REMARK  Name = ZINC19168539
REMARK  8 active torsions:
REMARK  status: ('A' for Active; 'I' for Inactive)
REMARK    1  A    between atoms: C_1  and  C_2
REMARK    2  A    between atoms: C_2  and  N_3
REMARK    3  A    between atoms: N_3  and  C_4
REMARK    4  A    between atoms: C_5  and  N_20
REMARK    5  A    between atoms: N_6  and  C_13
REMARK    6  A    between atoms: C_13  and  C_14
REMARK    7  A    between atoms: C_21  and  C_23
REMARK    8  A    between atoms: C_26  and  C_28
REMARK                            x       y       z     vdW  Elec       q    Type
REMARK                         _______ _______ _______ _____ _____    ______ ____
ROOT
ATOM      1  C   UNL     1       1.290  -0.530   0.128  0.00  0.00    +0.140 A 
ATOM      2  C   UNL     1       2.163  -0.699  -0.927  0.00  0.00    +0.128 A 
ATOM      3  N   UNL     1       3.308  -1.438  -0.739  0.00  0.00    -0.276 N 
ATOM      4  C   UNL     1       3.568  -1.998   0.457  0.00  0.00    +0.331 A 
ATOM      5  O   UNL     1       4.583  -2.652   0.601  0.00  0.00    -0.246 OA
ATOM      6  N   UNL     1       2.727  -1.847   1.495  0.00  0.00    -0.273 N 
ATOM      7  H   UNL     1       2.944  -2.273   2.373  0.00  0.00    +0.173 HD
ATOM      8  C   UNL     1       1.594  -1.129   1.365  0.00  0.00    +0.277 A 
ATOM      9  O   UNL     1       0.838  -0.999   2.313  0.00  0.00    -0.266 OA
ENDROOT
BRANCH   1  10
ATOM     10  N   UNL     1       0.110   0.226  -0.031  0.00  0.00    -0.258 N 
ATOM     11  C   UNL     1       0.184   1.553  -0.254  0.00  0.00    +0.286 C 
ATOM     12  O   UNL     1       1.264   2.116  -0.221  0.00  0.00    -0.266 OA
BRANCH  11  13
ATOM     13  C   UNL     1      -1.032   2.317  -0.542  0.00  0.00    +0.190 A 
ATOM     14  C   UNL     1      -1.098   3.672  -0.783  0.00  0.00    +0.055 A 
ATOM     15  C   UNL     1      -2.444   3.977  -1.011  0.00  0.00    +0.051 A 
ATOM     16  C   UNL     1      -3.144   2.810  -0.894  0.00  0.00    +0.139 A 
ATOM     17  O   UNL     1      -2.284   1.818  -0.612  0.00  0.00    -0.450 OA
BRANCH  16  18
ATOM     18  C   UNL     1      -4.605   2.664  -1.052  0.00  0.00    +0.052 A 
ATOM     19  C   UNL     1      -5.125   1.675  -1.890  0.00  0.00    +0.014 A 
ATOM     20  C   UNL     1      -6.490   1.543  -2.033  0.00  0.00    +0.001 A 
ATOM     21  C   UNL     1      -7.346   2.388  -1.349  0.00  0.00    +0.003 A 
ATOM     22  C   UNL     1      -6.841   3.371  -0.517  0.00  0.00    +0.039 A 
ATOM     23  C   UNL     1      -5.475   3.512  -0.360  0.00  0.00    +0.134 A 
ATOM     24  F   UNL     1      -4.982   4.468   0.457  0.00  0.00    -0.205 F 
ENDBRANCH  16  18
ENDBRANCH  11  13
BRANCH  10  26
ATOM     25  C   UNL     1      -1.665  -0.800  -1.364  0.00  0.00    +0.025 C 
ATOM     26  C   UNL     1      -1.197  -0.431   0.045  0.00  0.00    +0.111 C 
ENDBRANCH  10  26
ENDBRANCH   1  10
BRANCH   2  27
ATOM     27  N   UNL     1       1.894  -0.132  -2.150  0.00  0.00    -0.343 N 
ATOM     28  H   UNL     1       1.108   0.425  -2.264  0.00  0.00    +0.144 HD
ATOM     29  H   UNL     1       2.490  -0.289  -2.899  0.00  0.00    +0.144 HD
ENDBRANCH   2  27
BRANCH   3  30
ATOM     30  C   UNL     1       4.246  -1.623  -1.849  0.00  0.00    +0.163 C 
BRANCH  30  31
ATOM     31  C   UNL     1       3.869  -2.858  -2.626  0.00  0.00    -0.028 A 
ATOM     32  C   UNL     1       4.406  -4.083  -2.279  0.00  0.00    +0.005 A 
ATOM     33  C   UNL     1       4.056  -5.217  -2.988  0.00  0.00    +0.000 A 
ATOM     34  C   UNL     1       3.177  -5.124  -4.051  0.00  0.00    +0.000 A 
ATOM     35  C   UNL     1       2.643  -3.898  -4.401  0.00  0.00    +0.000 A 
ATOM     36  C   UNL     1       2.989  -2.765  -3.688  0.00  0.00    +0.005 A 
ENDBRANCH  30  31
ENDBRANCH   3  30
TORSDOF 7
