REMARK  Name = ZINC04016729
REMARK  12 active torsions:
REMARK  status: ('A' for Active; 'I' for Inactive)
REMARK    1  A    between atoms: C_1  and  C_2
REMARK    2  A    between atoms: C_2  and  C_3
REMARK    3  A    between atoms: C_2  and  C_4
REMARK    4  A    between atoms: C_4  and  C_5
REMARK    5  A    between atoms: C_5  and  O_7
REMARK    6  A    between atoms: O_7  and  C_8
REMARK    7  A    between atoms: C_10  and  N_78
REMARK    8  A    between atoms: C_16  and  C_19
REMARK    9  A    between atoms: C_17  and  O_18
REMARK   10  A    between atoms: C_20  and  C_21
REMARK   11  A    between atoms: C_30  and  C_31
REMARK   12  A    between atoms: C_30  and  C_32
REMARK                            x       y       z     vdW  Elec       q    Type
REMARK                         _______ _______ _______ _____ _____    ______ ____
ROOT
ATOM      1  C   UNL     1      -1.741   4.985   1.661  0.00  0.00    +0.210 C 
ATOM      2  C   UNL     1      -1.320   4.720   0.213  0.00  0.00    +0.015 C 
ATOM      3  C   UNL     1      -2.374   5.248  -0.727  0.00  0.00    +0.026 A 
ATOM      4  C   UNL     1      -3.321   6.167  -0.307  0.00  0.00    +0.127 A 
ATOM      5  C   UNL     1      -4.280   6.641  -1.204  0.00  0.00    +0.047 A 
ATOM      6  C   UNL     1      -4.299   6.200  -2.506  0.00  0.00    +0.015 A 
ATOM      7  C   UNL     1      -3.348   5.268  -2.939  0.00  0.00    +0.017 A 
ATOM      8  C   UNL     1      -2.382   4.794  -2.037  0.00  0.00    +0.129 A 
ATOM      9  O   UNL     1      -3.349   6.631   0.968  0.00  0.00    -0.482 OA
ATOM     10  C   UNL     1      -2.183   6.450   1.772  0.00  0.00    +0.140 C 
ATOM     11  C   UNL     1      -2.505   6.782   3.230  0.00  0.00    +0.059 C 
ATOM     12  C   UNL     1      -1.064   7.365   1.270  0.00  0.00    +0.059 C 
ENDROOT
BRANCH   2  18
ATOM     13  C   UNL     1      -0.335   2.679   1.066  0.00  0.00    -0.078 C 
ATOM     14  C   UNL     1      -0.071   1.207   0.742  0.00  0.00    -0.019 C 
ATOM     15  C   UNL     1      -1.406   0.466   0.633  0.00  0.00    -0.004 C 
ATOM     16  C   UNL     1      -2.268   1.134  -0.442  0.00  0.00    -0.019 C 
ATOM     17  C   UNL     1      -2.467   2.609  -0.084  0.00  0.00    -0.078 C 
ATOM     18  N   UNL     1      -1.147   3.271  -0.019  0.00  0.00    +0.387 N 
ATOM     19  H   UNL     1      -0.660   3.132  -0.913  0.00  0.00    -0.081 HD
ENDBRANCH   2  18
BRANCH   8  20
ATOM     20  O   UNL     1      -1.456   3.891  -2.448  0.00  0.00    -0.506 OA
ATOM     21  H   UNL     1      -1.758   2.973  -2.409  0.00  0.00    +0.292 HD
ENDBRANCH   8  20
BRANCH   7  22
ATOM     22  C   UNL     1      -3.361   4.790  -4.327  0.00  0.00    +0.016 C 
ATOM     23  C   UNL     1      -4.294   5.250  -5.191  0.00  0.00    +0.068 C 
BRANCH  23  24
ATOM     24  C   UNL     1      -4.306   4.788  -6.532  0.00  0.00    +0.239 C 
ATOM     25  O   UNL     1      -3.541   3.908  -6.880  0.00  0.00    -0.271 OA
ATOM     26  N   UNL     1      -5.167   5.324  -7.421  0.00  0.00    -0.298 N 
ATOM     27  C   UNL     1      -6.177   6.300  -6.990  0.00  0.00    +0.108 C 
ATOM     28  C   UNL     1      -6.046   7.556  -7.865  0.00  0.00    +0.019 C 
ATOM     29  C   UNL     1      -6.146   7.157  -9.339  0.00  0.00    +0.003 C 
ATOM     30  C   UNL     1      -5.000   6.205  -9.690  0.00  0.00    +0.019 C 
ATOM     31  C   UNL     1      -5.116   4.937  -8.837  0.00  0.00    +0.108 C 
ENDBRANCH  23  24
ENDBRANCH   7  22
BRANCH   1  32
ATOM     32  O   UNL     1      -2.845   4.112   2.017  0.00  0.00    -0.459 OA
BRANCH  32  33
ATOM     33  C   UNL     1      -2.941   3.745   3.305  0.00  0.00    +0.308 C 
ATOM     34  O   UNL     1      -2.129   4.140   4.108  0.00  0.00    -0.251 OA
BRANCH  33  35
ATOM     35  C   UNL     1      -4.062   2.841   3.749  0.00  0.00    +0.123 C 
BRANCH  35  37
ATOM     36  C   UNL     1      -4.150   3.888   6.016  0.00  0.00    +0.008 C 
ATOM     37  C   UNL     1      -3.941   2.579   5.252  0.00  0.00    -0.007 C 
ATOM     38  C   UNL     1      -5.002   1.564   5.680  0.00  0.00    +0.008 C 
ENDBRANCH  35  37
ENDBRANCH  33  35
ENDBRANCH  32  33
ENDBRANCH   1  32
TORSDOF 8
