REMARK  Name = ZINC43410686
REMARK  7 active torsions:
REMARK  status: ('A' for Active; 'I' for Inactive)
REMARK    1  A    between atoms: C_1  and  C_2
REMARK    2  A    between atoms: C_2  and  C_3
REMARK    3  A    between atoms: C_2  and  C_4
REMARK    4  A    between atoms: C_2  and  O_5
REMARK    5  A    between atoms: O_5  and  C_6
REMARK    6  A    between atoms: C_7  and  C_16
REMARK    7  A    between atoms: N_17  and  O_18
REMARK                            x       y       z     vdW  Elec       q    Type
REMARK                         _______ _______ _______ _____ _____    ______ ____
ROOT
ATOM      1  C   UNL     1       1.961  -0.082  -1.338  0.00  0.00    +0.226 A 
ATOM      2  C   UNL     1       2.673  -0.495  -2.473  0.00  0.00    +0.079 A 
ATOM      3  C   UNL     1       3.999  -0.087  -2.611  0.00  0.00    +0.022 A 
ATOM      4  C   UNL     1       4.562   0.713  -1.623  0.00  0.00    -0.025 A 
ATOM      5  C   UNL     1       3.800   1.084  -0.538  0.00  0.00    +0.048 A 
ATOM      6  N   UNL     1       2.539   0.681  -0.432  0.00  0.00    -0.217 NA
ATOM      7  C   UNL     1       4.340   1.964   0.562  0.00  0.00    +0.056 C 
ATOM      8  C   UNL     1       5.867   1.985   0.533  0.00  0.00    +0.006 C 
ATOM      9  C   UNL     1       6.320   2.323  -0.892  0.00  0.00    +0.005 C 
ATOM     10  C   UNL     1       5.998   1.133  -1.794  0.00  0.00    +0.037 C 
ENDROOT
BRANCH   2  11
ATOM     11  C   UNL     1       2.032  -1.345  -3.499  0.00  0.00    +0.168 C 
ATOM     12  N   UNL     1       0.793  -1.718  -3.355  0.00  0.00    -0.071 NA
ATOM     13  N   UNL     1       2.749  -1.744  -4.614  0.00  0.00    -0.340 N 
ATOM     14  H   UNL     1       3.673  -1.466  -4.722  0.00  0.00    +0.144 HD
ATOM     15  H   UNL     1       2.329  -2.301  -5.288  0.00  0.00    +0.144 HD
BRANCH  12  16
ATOM     16  O   UNL     1       0.180  -2.531  -4.338  0.00  0.00    -0.408 OA
ATOM     17  H   UNL     1      -0.741  -2.756  -4.144  0.00  0.00    +0.328 HD
ENDBRANCH  12  16
ENDBRANCH   2  11
BRANCH   1  18
ATOM     18  O   UNL     1       0.671  -0.465  -1.174  0.00  0.00    -0.470 OA
BRANCH  18  20
ATOM     19  C   UNL     1      -0.019   1.526   0.010  0.00  0.00    +0.055 C 
ATOM     20  C   UNL     1       0.002  -0.004   0.002  0.00  0.00    +0.104 C 
ATOM     21  C   UNL     1       0.742  -0.511   1.242  0.00  0.00    +0.055 C 
ATOM     22  C   UNL     1      -1.433  -0.534   0.013  0.00  0.00    +0.055 C 
ENDBRANCH  18  20
ENDBRANCH   1  18
TORSDOF 4
