REMARK  Name = ZINC17173023
REMARK  3 active torsions:
REMARK  status: ('A' for Active; 'I' for Inactive)
REMARK    1  A    between atoms: C_1  and  C_2
REMARK    2  A    between atoms: C_2  and  C_28
REMARK    3  A    between atoms: C_6  and  C_17
REMARK                            x       y       z     vdW  Elec       q    Type
REMARK                         _______ _______ _______ _____ _____    ______ ____
ROOT
ATOM      1  C   UNL     1      -0.019   1.526   0.010  0.00  0.00    +0.011 C 
ATOM      2  C   UNL     1       0.002  -0.004   0.002  0.00  0.00    -0.023 C 
ATOM      3  C   UNL     1       0.741  -0.503  -1.242  0.00  0.00    +0.058 C 
ATOM      4  C   UNL     1       2.168  -0.009  -1.216  0.00  0.00    +0.017 C 
ATOM      5  C   UNL     1       2.814   0.181  -0.047  0.00  0.00    +0.024 C 
ATOM      6  C   UNL     1       4.244   0.659  -0.010  0.00  0.00    +0.094 C 
ATOM      7  C   UNL     1       4.642   1.287  -1.313  0.00  0.00    +0.069 A 
ATOM      8  C   UNL     1       3.896   1.054  -2.473  0.00  0.00    +0.135 A 
ATOM      9  N   UNL     1       4.263   1.615  -3.619  0.00  0.00    -0.207 NA
ATOM     10  C   UNL     1       5.334   2.401  -3.680  0.00  0.00    +0.182 A 
ATOM     11  S   UNL     1       5.775   3.106  -5.176  0.00  0.00    -0.011 S 
ATOM     12  N   UNL     1       6.078   2.652  -2.587  0.00  0.00    -0.301 N 
ATOM     13  C   UNL     1       5.742   2.096  -1.384  0.00  0.00    +0.258 A 
ATOM     14  O   UNL     1       6.484   2.344  -0.283  0.00  0.00    -0.267 OA
ATOM     15  N   UNL     1       2.782   0.243  -2.413  0.00  0.00    -0.302 N 
ATOM     16  C   UNL     1       2.173  -0.059   1.182  0.00  0.00    +0.162 C 
ATOM     17  O   UNL     1       2.788   0.108   2.217  0.00  0.00    -0.292 OA
ATOM     18  C   UNL     1       0.742  -0.517   1.242  0.00  0.00    +0.086 C 
ATOM     19  C   UNL     1      -1.431  -0.539  -0.000  0.00  0.00    +0.011 C 
ATOM     20  H   UNL     1       6.855   3.229  -2.652  0.00  0.00    +0.171 HD
ATOM     21  H   UNL     1       2.430  -0.151  -3.226  0.00  0.00    +0.153 HD
ENDROOT
BRANCH   6  22
ATOM     22  C   UNL     1       5.149  -0.513   0.268  0.00  0.00    -0.017 A 
ATOM     23  C   UNL     1       5.178  -1.587  -0.603  0.00  0.00    +0.007 A 
ATOM     24  C   UNL     1       6.008  -2.662  -0.349  0.00  0.00    +0.020 A 
ATOM     25  C   UNL     1       6.811  -2.665   0.778  0.00  0.00    +0.042 A 
ATOM     26  C   UNL     1       6.784  -1.591   1.649  0.00  0.00    +0.040 A 
ATOM     27  C   UNL     1       5.956  -0.513   1.392  0.00  0.00    +0.046 A 
ATOM     28 CL   UNL     1       5.926   0.838   2.482  0.00  0.00    -0.083 Cl
ATOM     29 CL   UNL     1       7.853  -4.016   1.097  0.00  0.00    -0.083 Cl
ENDBRANCH   6  22
TORSDOF 1
