REMARK  Name = ZINC09911557
REMARK  14 active torsions:
REMARK  status: ('A' for Active; 'I' for Inactive)
REMARK    1  A    between atoms: C_1  and  C_2
REMARK    2  A    between atoms: C_5  and  S_8
REMARK    3  A    between atoms: S_8  and  C_11
REMARK    4  A    between atoms: C_11  and  C_12
REMARK    5  A    between atoms: C_12  and  C_13
REMARK    6  A    between atoms: C_13  and  C_14
REMARK    7  A    between atoms: N_16  and  C_17
REMARK    8  A    between atoms: C_18  and  C_29
REMARK    9  A    between atoms: C_22  and  C_27
REMARK   10  A    between atoms: C_22  and  C_28
REMARK   11  A    between atoms: C_23  and  C_25
REMARK   12  A    between atoms: C_23  and  C_26
REMARK   13  A    between atoms: C_29  and  O_31
REMARK   14  A    between atoms: O_31  and  C_32
REMARK                            x       y       z     vdW  Elec       q    Type
REMARK                         _______ _______ _______ _____ _____    ______ ____
ROOT
ATOM      1  C   UNL     1      -2.381   1.157   0.020  0.00  0.00    +0.086 A 
ATOM      2  C   UNL     1      -3.681   1.654   0.029  0.00  0.00    +0.091 A 
ATOM      3  C   UNL     1      -4.760   0.689   0.021  0.00  0.00    -0.024 A 
ATOM      4  C   UNL     1      -4.382  -0.610   0.018  0.00  0.00    -0.016 A 
ATOM      5  S   UNL     1      -2.613  -0.560   0.014  0.00  0.00    -0.079 S 
ATOM      6  C   UNL     1      -5.285  -1.800   0.027  0.00  0.00    -0.041 C 
ATOM      7  C   UNL     1      -6.956  -0.116  -0.753  0.00  0.00    -0.069 C 
ATOM      8  C   UNL     1      -6.248   1.013   0.006  0.00  0.00    +0.024 C 
ATOM      9  C   UNL     1      -6.539  -0.074  -2.226  0.00  0.00    -0.010 C 
ATOM     10  C   UNL     1      -8.472   0.145  -0.682  0.00  0.00    -0.010 C 
ATOM     11  C   UNL     1      -4.842  -2.784  -1.064  0.00  0.00    -0.005 C 
ATOM     12  C   UNL     1      -5.145  -2.506   1.389  0.00  0.00    -0.005 C 
ATOM     13  N   UNL     1      -6.725  -1.456  -0.153  0.00  0.00    +0.389 N 
ATOM     14  H   UNL     1      -7.181  -1.480   0.767  0.00  0.00    -0.084 HD
ATOM     15  H   UNL     1      -7.152  -2.161  -0.765  0.00  0.00    -0.084 HD
ENDROOT
BRANCH   1  18
ATOM     16  C   UNL     1      -0.014   1.209   0.009  0.00  0.00    +0.218 C 
ATOM     17  O   UNL     1       0.002  -0.004   0.002  0.00  0.00    -0.275 OA
ATOM     18  N   UNL     1      -1.191   1.867   0.018  0.00  0.00    -0.279 N 
ATOM     19  H   UNL     1      -1.204   2.836   0.023  0.00  0.00    +0.155 HD
BRANCH  16  20
ATOM     20  C   UNL     1       1.280   1.980   0.001  0.00  0.00    +0.098 C 
BRANCH  20  21
ATOM     21  C   UNL     1       2.457   1.002  -0.016  0.00  0.00    +0.032 C 
BRANCH  21  22
ATOM     22  C   UNL     1       3.771   1.784  -0.024  0.00  0.00    +0.172 C 
BRANCH  22  23
ATOM     23  S   UNL     1       5.166   0.625  -0.044  0.00  0.00    -0.003 S 
ATOM     24  O   UNL     1       5.231  -0.084   1.186  0.00  0.00    -0.169 OA
ATOM     25  O   UNL     1       5.207  -0.070  -1.283  0.00  0.00    -0.169 OA
BRANCH  23  30
ATOM     26  C   UNL     1      10.087   4.116  -0.072  0.00  0.00    +0.044 C 
ATOM     27  C   UNL     1       8.858   3.244  -0.065  0.00  0.00    -0.050 A 
ATOM     28  C   UNL     1       8.305   2.838   1.135  0.00  0.00    +0.005 A 
ATOM     29  C   UNL     1       7.178   2.038   1.142  0.00  0.00    +0.027 A 
ATOM     30  C   UNL     1       6.603   1.644  -0.052  0.00  0.00    +0.088 A 
ATOM     31  C   UNL     1       7.158   2.046  -1.252  0.00  0.00    +0.027 A 
ATOM     32  C   UNL     1       8.283   2.849  -1.259  0.00  0.00    +0.005 A 
ENDBRANCH  23  30
ENDBRANCH  22  23
ENDBRANCH  21  22
ENDBRANCH  20  21
ENDBRANCH  16  20
ENDBRANCH   1  18
BRANCH   2  33
ATOM     33  C   UNL     1      -3.934   3.096   0.049  0.00  0.00    +0.342 C 
ATOM     34  O   UNL     1      -4.040   3.710  -0.995  0.00  0.00    -0.245 OA
BRANCH  33  35
ATOM     35  O   UNL     1      -4.048   3.744   1.227  0.00  0.00    -0.464 OA
ATOM     36  C   UNL     1      -4.298   5.173   1.171  0.00  0.00    +0.280 C 
ENDBRANCH  33  35
ENDBRANCH   2  33
TORSDOF 8
