REMARK  Name = ZINC21075978
REMARK  12 active torsions:
REMARK  status: ('A' for Active; 'I' for Inactive)
REMARK    1  A    between atoms: C_2  and  C_3
REMARK    2  A    between atoms: C_3  and  C_4
REMARK    3  A    between atoms: C_8  and  C_11
REMARK    4  A    between atoms: C_9  and  O_10
REMARK    5  A    between atoms: N_12  and  N_13
REMARK    6  A    between atoms: C_16  and  S_19
REMARK    7  A    between atoms: S_19  and  C_20
REMARK    8  A    between atoms: C_20  and  C_21
REMARK    9  A    between atoms: C_21  and  C_22
REMARK   10  A    between atoms: N_24  and  C_25
REMARK   11  A    between atoms: C_25  and  C_26
REMARK   12  A    between atoms: C_25  and  C_32
REMARK                            x       y       z     vdW  Elec       q    Type
REMARK                         _______ _______ _______ _____ _____    ______ ____
ROOT
ATOM      1  N   UNL     1       2.777  -8.339  -0.070  0.00  0.00    -0.205 N 
ATOM      2  C   UNL     1       2.285  -7.042  -0.058  0.00  0.00    +0.232 A 
ATOM      3  N   UNL     1       3.034  -5.898  -0.059  0.00  0.00    -0.186 NA
ATOM      4  C   UNL     1       2.179  -4.833  -0.045  0.00  0.00    +0.210 A 
ATOM      5  N   UNL     1       0.952  -5.299  -0.030  0.00  0.00    -0.144 NA
ATOM      6  N   UNL     1       1.020  -6.698  -0.044  0.00  0.00    -0.245 N 
ATOM      7  H   UNL     1       3.863  -8.515  -0.081  0.00  0.00    +0.177 HD
ATOM      8  H   UNL     1       0.239  -7.473  -0.044  0.00  0.00    +0.192 HD
ENDROOT
BRANCH   1  10
ATOM      9  C   UNL     1       2.352 -10.639  -0.078  0.00  0.00    +0.142 C 
ATOM     10  N   UNL     1       1.891  -9.425  -0.067  0.00  0.00    -0.187 NA
BRANCH   9  15
ATOM     11  C   UNL     1      -0.831 -12.640  -0.059  0.00  0.00    -0.002 A 
ATOM     12  C   UNL     1      -0.332 -13.930  -0.071  0.00  0.00    +0.007 A 
ATOM     13  C   UNL     1       1.034 -14.152  -0.085  0.00  0.00    +0.001 A 
ATOM     14  C   UNL     1       1.912 -13.088  -0.088  0.00  0.00    +0.013 A 
ATOM     15  C   UNL     1       1.421 -11.780  -0.075  0.00  0.00    +0.036 A 
ATOM     16  C   UNL     1       0.036 -11.560  -0.055  0.00  0.00    +0.129 A 
BRANCH  16  17
ATOM     17  O   UNL     1      -0.453 -10.293  -0.037  0.00  0.00    -0.506 OA
ATOM     18  H   UNL     1       0.238  -9.437  -0.034  0.00  0.00    +0.292 HD
ENDBRANCH  16  17
BRANCH  11  19
ATOM     19  C   UNL     1      -2.320 -12.409  -0.043  0.00  0.00    +0.065 C 
BRANCH  19  21
ATOM     20  C   UNL     1      -3.773 -12.952  -1.928  0.00  0.00    +0.004 C 
ATOM     21  C   UNL     1      -2.811 -12.202  -1.453  0.00  0.00    -0.030 C 
ENDBRANCH  19  21
ENDBRANCH  11  19
ENDBRANCH   9  15
ENDBRANCH   1  10
BRANCH   4  22
ATOM     22  S   UNL     1       2.641  -3.133  -0.040  0.00  0.00    -0.084 S 
BRANCH  22  23
ATOM     23  C   UNL     1       1.058  -2.248  -0.020  0.00  0.00    +0.086 C 
BRANCH  23  24
ATOM     24  C   UNL     1       1.317  -0.740  -0.015  0.00  0.00    +0.107 C 
BRANCH  24  25
ATOM     25  C   UNL     1       0.002  -0.004   0.002  0.00  0.00    +0.215 C 
ATOM     26  O   UNL     1      -1.040  -0.625   0.009  0.00  0.00    -0.276 OA
ATOM     27  N   UNL     1      -0.016   1.344   0.009  0.00  0.00    -0.304 N 
ATOM     28  H   UNL     1       0.929   1.907   0.008  0.00  0.00    +0.150 HD
BRANCH  27  29
ATOM     29  C   UNL     1      -1.295   2.059   0.019  0.00  0.00    +0.134 C 
BRANCH  29  30
ATOM     30  C   UNL     1      -1.102   3.425   0.626  0.00  0.00    -0.023 A 
ATOM     31  C   UNL     1       0.035   4.155   0.337  0.00  0.00    +0.006 A 
ATOM     32  C   UNL     1       0.210   5.410   0.890  0.00  0.00    +0.000 A 
ATOM     33  C   UNL     1      -0.747   5.930   1.740  0.00  0.00    +0.000 A 
ATOM     34  C   UNL     1      -1.882   5.197   2.034  0.00  0.00    +0.000 A 
ATOM     35  C   UNL     1      -2.059   3.944   1.477  0.00  0.00    +0.006 A 
ENDBRANCH  29  30
BRANCH  29  36
ATOM     36  C   UNL     1      -1.800   2.204  -1.393  0.00  0.00    -0.023 A 
ATOM     37  C   UNL     1      -0.919   2.501  -2.415  0.00  0.00    +0.006 A 
ATOM     38  C   UNL     1      -1.382   2.629  -3.712  0.00  0.00    +0.000 A 
ATOM     39  C   UNL     1      -2.728   2.470  -3.984  0.00  0.00    +0.000 A 
ATOM     40  C   UNL     1      -3.610   2.178  -2.960  0.00  0.00    +0.000 A 
ATOM     41  C   UNL     1      -3.146   2.044  -1.665  0.00  0.00    +0.006 A 
ENDBRANCH  29  36
ENDBRANCH  27  29
ENDBRANCH  24  25
ENDBRANCH  23  24
ENDBRANCH  22  23
ENDBRANCH   4  22
TORSDOF 12
