REMARK  Name = ZINC26457482
REMARK  5 active torsions:
REMARK  status: ('A' for Active; 'I' for Inactive)
REMARK    1  A    between atoms: C_3  and  N_9
REMARK    2  A    between atoms: C_10  and  C_12
REMARK    3  A    between atoms: N_17  and  C_18
REMARK    4  A    between atoms: C_18  and  C_19
REMARK    5  A    between atoms: N_24  and  C_25
REMARK                            x       y       z     vdW  Elec       q    Type
REMARK                         _______ _______ _______ _____ _____    ______ ____
ROOT
ATOM      1  C   UNL     1       1.437   5.630  -8.461  0.00  0.00    +0.020 C 
ATOM      2  C   UNL     1       2.034   5.433  -9.870  0.00  0.00    -0.008 C 
ATOM      3  C   UNL     1       1.531   4.020 -10.268  0.00  0.00    -0.020 C 
ATOM      4  C   UNL     1       1.573   3.279  -8.909  0.00  0.00    -0.077 C 
ATOM      5  N   UNL     1       1.157   4.290  -7.914  0.00  0.00    +0.393 N 
ATOM      6  H   UNL     1       0.080   4.192  -7.711  0.00  0.00    -0.080 HD
ENDROOT
BRANCH   1   8
ATOM      7  N   UNL     1       2.177   7.603  -7.164  0.00  0.00    -0.286 N 
ATOM      8  C   UNL     1       2.429   6.346  -7.580  0.00  0.00    +0.204 C 
ATOM      9  O   UNL     1       3.454   5.790  -7.245  0.00  0.00    -0.277 OA
ATOM     10  H   UNL     1       1.206   8.071  -7.385  0.00  0.00    +0.155 HD
BRANCH   7  13
ATOM     11  C   UNL     1       5.443   8.645  -5.834  0.00  0.00    +0.022 A 
ATOM     12  C   UNL     1       4.485   7.943  -6.539  0.00  0.00    +0.026 A 
ATOM     13  C   UNL     1       3.150   8.313  -6.450  0.00  0.00    +0.052 A 
ATOM     14  C   UNL     1       2.782   9.392  -5.656  0.00  0.00    +0.064 A 
ATOM     15  C   UNL     1       3.744  10.087  -4.948  0.00  0.00    +0.041 A 
ATOM     16  C   UNL     1       5.074   9.716  -5.039  0.00  0.00    +0.042 A 
ATOM     17 CL   UNL     1       6.282  10.595  -4.155  0.00  0.00    -0.083 Cl
ATOM     18 CL   UNL     1       1.114   9.863  -5.549  0.00  0.00    -0.082 Cl
ENDBRANCH   7  13
ENDBRANCH   1   8
BRANCH   5  19
ATOM     19  C   UNL     1       1.850   4.087  -6.635  0.00  0.00    +0.020 C 
BRANCH  19  20
ATOM     20  C   UNL     1       1.245   2.909  -5.916  0.00  0.00    +0.204 C 
ATOM     21  O   UNL     1       0.326   2.298  -6.420  0.00  0.00    -0.277 OA
ATOM     22  N   UNL     1       1.724   2.534  -4.714  0.00  0.00    -0.242 N 
ATOM     23  C   UNL     1       1.183   1.480  -4.071  0.00  0.00    +0.306 C 
ATOM     24  O   UNL     1       0.262   0.868  -4.576  0.00  0.00    -0.252 OA
ATOM     25  N   UNL     1       1.662   1.105  -2.869  0.00  0.00    -0.296 N 
ATOM     26  H   UNL     1       2.557   3.088  -4.257  0.00  0.00    +0.159 HD
ATOM     27  H   UNL     1       2.495   1.659  -2.412  0.00  0.00    +0.151 HD
BRANCH  25  28
ATOM     28  C   UNL     1       1.074  -0.041  -2.171  0.00  0.00    +0.074 C 
ATOM     29  C   UNL     1       2.103  -0.655  -1.205  0.00  0.00    +0.022 C 
ATOM     30  C   UNL     1       1.501  -0.544   0.211  0.00  0.00    +0.002 C 
ATOM     31  C   UNL     1       0.489   0.625   0.102  0.00  0.00    +0.002 C 
ATOM     32  C   UNL     1      -0.118   0.422  -1.308  0.00  0.00    +0.022 C 
ENDBRANCH  25  28
ENDBRANCH  19  20
ENDBRANCH   5  19
TORSDOF 5
