REMARK  Name = ZINC08596744
REMARK  15 active torsions:
REMARK  status: ('A' for Active; 'I' for Inactive)
REMARK    1  A    between atoms: C_1  and  C_2
REMARK    2  A    between atoms: C_2  and  C_3
REMARK    3  A    between atoms: C_2  and  C_4
REMARK    4  A    between atoms: C_4  and  N_5
REMARK    5  A    between atoms: N_5  and  C_6
REMARK    6  A    between atoms: N_5  and  C_33
REMARK    7  A    between atoms: C_6  and  C_7
REMARK    8  A    between atoms: C_7  and  N_8
REMARK    9  A    between atoms: C_9  and  C_11
REMARK   10  A    between atoms: N_13  and  C_32
REMARK   11  A    between atoms: C_17  and  S_22
REMARK   12  A    between atoms: S_22  and  N_25
REMARK   13  A    between atoms: C_33  and  C_34
REMARK   14  A    between atoms: C_34  and  C_35
REMARK   15  A    between atoms: C_34  and  C_36
REMARK                            x       y       z     vdW  Elec       q    Type
REMARK                         _______ _______ _______ _____ _____    ______ ____
ROOT
ATOM      1  C   UNL     1      -6.877  -3.763  -4.145  0.00  0.00    +0.100 A 
ATOM      2  C   UNL     1      -7.431  -4.843  -4.801  0.00  0.00    +0.102 A 
ATOM      3  N   UNL     1      -8.691  -4.834  -5.254  0.00  0.00    -0.349 N 
ATOM      4  C   UNL     1      -9.531  -3.752  -5.103  0.00  0.00    +0.053 A 
ATOM      5  C   UNL     1     -10.834  -3.794  -5.593  0.00  0.00    +0.028 A 
ATOM      6  C   UNL     1     -11.664  -2.706  -5.435  0.00  0.00    +0.030 A 
ATOM      7  C   UNL     1     -11.217  -1.561  -4.790  0.00  0.00    +0.106 A 
ATOM      8  C   UNL     1      -9.932  -1.497  -4.298  0.00  0.00    +0.042 A 
ATOM      9  C   UNL     1      -9.081  -2.592  -4.450  0.00  0.00    +0.048 A 
ATOM     10  C   UNL     1      -7.701  -2.563  -3.931  0.00  0.00    +0.202 A 
ATOM     11  O   UNL     1      -7.260  -1.585  -3.353  0.00  0.00    -0.286 OA
ATOM     12  C   UNL     1      -9.198  -6.024  -5.940  0.00  0.00    +0.149 C 
ENDROOT
BRANCH   1  14
ATOM     13  N   UNL     1      -4.997  -2.802  -2.918  0.00  0.00    -0.313 N 
ATOM     14  C   UNL     1      -5.488  -3.813  -3.662  0.00  0.00    +0.249 C 
ATOM     15  O   UNL     1      -4.783  -4.766  -3.935  0.00  0.00    -0.270 OA
ATOM     16  H   UNL     1      -5.578  -2.076  -2.642  0.00  0.00    +0.149 HD
BRANCH  13  17
ATOM     17  C   UNL     1      -3.585  -2.800  -2.525  0.00  0.00    +0.086 C 
BRANCH  17  18
ATOM     18  C   UNL     1      -3.289  -1.552  -1.692  0.00  0.00    -0.060 C 
BRANCH  18  19
ATOM     19  N   UNL     1      -1.874  -1.550  -1.298  0.00  0.00    +0.381 N 
ATOM     20  H   UNL     1      -1.647  -2.429  -0.857  0.00  0.00    -0.082 HD
BRANCH  19  21
ATOM     21  C   UNL     1      -1.629  -0.451  -0.356  0.00  0.00    -0.076 C 
BRANCH  21  23
ATOM     22  C   UNL     1      -1.591   0.194   2.058  0.00  0.00    +0.005 C 
ATOM     23  C   UNL     1      -1.920  -0.926   1.069  0.00  0.00    -0.034 C 
ATOM     24  C   UNL     1      -3.400  -1.296   1.191  0.00  0.00    +0.005 C 
ENDBRANCH  21  23
ENDBRANCH  19  21
BRANCH  19  25
ATOM     25  C   UNL     1      -1.035  -1.369  -2.490  0.00  0.00    -0.076 C 
BRANCH  25  26
ATOM     26  C   UNL     1       0.438  -1.528  -2.106  0.00  0.00    -0.034 C 
ATOM     27  C   UNL     1       0.678  -2.945  -1.582  0.00  0.00    +0.005 C 
ATOM     28  C   UNL     1       1.315  -1.283  -3.336  0.00  0.00    +0.005 C 
ENDBRANCH  25  26
ENDBRANCH  19  25
ENDBRANCH  18  19
ENDBRANCH  17  18
ENDBRANCH  13  17
ENDBRANCH   1  14
BRANCH   7  29
ATOM     29  S   UNL     1     -12.298  -0.182  -4.601  0.00  0.00    +0.061 S 
ATOM     30  O   UNL     1     -11.472   0.964  -4.449  0.00  0.00    -0.153 OA
ATOM     31  O   UNL     1     -13.273  -0.287  -5.629  0.00  0.00    -0.153 OA
BRANCH  29  32
ATOM     32  N   UNL     1     -13.100  -0.381  -3.166  0.00  0.00    -0.177 NA
ATOM     33  C   UNL     1     -14.350  -1.107  -3.166  0.00  0.00    +0.109 C 
ATOM     34  C   UNL     1     -15.521  -0.125  -3.415  0.00  0.00    +0.017 C 
ATOM     35  C   UNL     1     -15.731   0.729  -2.235  0.00  0.00    +0.001 C 
ATOM     36  C   UNL     1     -14.549   1.629  -1.892  0.00  0.00    +0.001 C 
ATOM     37  C   UNL     1     -13.564   0.862  -1.045  0.00  0.00    +0.017 C 
ATOM     38  C   UNL     1     -12.505   0.184  -1.939  0.00  0.00    +0.109 C 
ENDBRANCH  29  32
ENDBRANCH   7  29
TORSDOF 10
