REMARK  Name = ZINC17193941
REMARK  5 active torsions:
REMARK  status: ('A' for Active; 'I' for Inactive)
REMARK    1  A    between atoms: C_1  and  C_2
REMARK    2  A    between atoms: N_4  and  C_21
REMARK    3  A    between atoms: C_8  and  N_9
REMARK    4  A    between atoms: N_12  and  C_13
REMARK    5  A    between atoms: C_24  and  C_27
REMARK                            x       y       z     vdW  Elec       q    Type
REMARK                         _______ _______ _______ _____ _____    ______ ____
ROOT
ATOM      1  C   UNL     1      -0.020   1.502   0.010  0.00  0.00    +0.068 C 
ATOM      2  C   UNL     1      -0.009  -0.005   0.002  0.00  0.00    +0.070 C 
ATOM      3  N   UNL     1      -0.012  -0.766  -1.049  0.00  0.00    -0.176 NA
ATOM      4  N   UNL     1       0.000  -2.116  -0.699  0.00  0.00    -0.156 N 
ATOM      5  C   UNL     1       0.012  -2.247   0.643  0.00  0.00    +0.273 C 
ATOM      6  O   UNL     1       0.025  -3.288   1.278  0.00  0.00    -0.268 OA
ATOM      7  C   UNL     1       0.013  -0.880   1.184  0.00  0.00    +0.075 C 
ATOM      8  C   UNL     1       0.029  -0.501   2.512  0.00  0.00    +0.091 C 
ENDROOT
BRANCH   8   9
ATOM      9  N   UNL     1       0.050  -1.448   3.490  0.00  0.00    -0.275 N 
ATOM     10  C   UNL     1       0.065  -1.078   4.786  0.00  0.00    +0.308 C 
ATOM     11  O   UNL     1       0.061   0.101   5.082  0.00  0.00    -0.252 OA
ATOM     12  N   UNL     1       0.085  -2.015   5.755  0.00  0.00    -0.269 N 
ATOM     13  H   UNL     1       0.053  -2.389   3.255  0.00  0.00    +0.156 HD
ATOM     14  H   UNL     1       0.021  -2.954   5.522  0.00  0.00    +0.156 HD
BRANCH  12  15
ATOM     15  C   UNL     1       0.199  -1.633   7.096  0.00  0.00    +0.036 A 
ATOM     16  C   UNL     1       0.920  -2.420   7.985  0.00  0.00    +0.025 A 
ATOM     17  C   UNL     1       1.031  -2.041   9.308  0.00  0.00    +0.023 A 
ATOM     18  C   UNL     1       0.426  -0.878   9.750  0.00  0.00    +0.059 A 
ATOM     19  C   UNL     1      -0.294  -0.091   8.866  0.00  0.00    +0.061 A 
ATOM     20  C   UNL     1      -0.403  -0.463   7.540  0.00  0.00    +0.044 A 
ATOM     21 CL   UNL     1      -1.053   1.367   9.424  0.00  0.00    -0.082 Cl
ATOM     22 CL   UNL     1       0.568  -0.405  11.414  0.00  0.00    -0.082 Cl
ENDBRANCH  12  15
ENDBRANCH   8   9
BRANCH   4  23
ATOM     23  C   UNL     1       0.000  -3.180  -1.609  0.00  0.00    +0.060 A 
ATOM     24  C   UNL     1       0.007  -4.490  -1.148  0.00  0.00    +0.026 A 
ATOM     25  C   UNL     1       0.007  -5.538  -2.048  0.00  0.00    +0.006 A 
ATOM     26  C   UNL     1       0.000  -5.283  -3.407  0.00  0.00    -0.041 A 
ATOM     27  C   UNL     1      -0.007  -3.980  -3.870  0.00  0.00    +0.006 A 
ATOM     28  C   UNL     1      -0.013  -2.928  -2.975  0.00  0.00    +0.026 A 
BRANCH  26  29
ATOM     29  C   UNL     1       0.001  -6.428  -4.387  0.00  0.00    -0.003 C 
ATOM     30  C   UNL     1      -1.243  -7.290  -4.165  0.00  0.00    +0.015 C 
ATOM     31  C   UNL     1      -1.242  -8.453  -5.159  0.00  0.00    -0.010 C 
ATOM     32  C   UNL     1      -1.251  -7.903  -6.587  0.00  0.00    +0.007 C 
ATOM     33  C   UNL     1      -0.006  -7.042  -6.809  0.00  0.00    -0.010 C 
ATOM     34  C   UNL     1      -0.007  -5.879  -5.814  0.00  0.00    +0.015 C 
ATOM     35  C   UNL     1       1.248  -7.892  -6.597  0.00  0.00    +0.007 C 
ATOM     36  C   UNL     1       1.256  -8.442  -5.170  0.00  0.00    -0.010 C 
ATOM     37  C   UNL     1       0.011  -9.304  -4.948  0.00  0.00    +0.007 C 
ATOM     38  C   UNL     1       1.255  -7.279  -4.175  0.00  0.00    +0.015 C 
ENDBRANCH  26  29
ENDBRANCH   4  23
TORSDOF 4
