REMARK  Name = ZINC39684387
REMARK  8 active torsions:
REMARK  status: ('A' for Active; 'I' for Inactive)
REMARK    1  A    between atoms: C_1  and  C_2
REMARK    2  A    between atoms: C_2  and  C_4
REMARK    3  A    between atoms: C_2  and  N_8
REMARK    4  A    between atoms: C_4  and  C_5
REMARK    5  A    between atoms: C_4  and  C_6
REMARK    6  A    between atoms: C_4  and  C_7
REMARK    7  A    between atoms: C_9  and  C_11
REMARK    8  A    between atoms: C_22  and  C_24
REMARK                            x       y       z     vdW  Elec       q    Type
REMARK                         _______ _______ _______ _____ _____    ______ ____
ROOT
ATOM      1  C   UNL     1      -2.980  -1.548  -1.335  0.00  0.00    +0.100 C 
ATOM      2  C   UNL     1      -3.287  -2.939  -0.738  0.00  0.00    +0.121 C 
ATOM      3  N   UNL     1      -4.375  -3.479  -1.587  0.00  0.00    -0.296 N 
ATOM      4  C   UNL     1      -4.013  -3.058  -2.962  0.00  0.00    +0.115 C 
ATOM      5  C   UNL     1      -3.458  -1.630  -2.794  0.00  0.00    -0.004 C 
ATOM      6  C   UNL     1      -4.557  -0.603  -3.049  0.00  0.00    -0.010 C 
ATOM      7  C   UNL     1      -4.976  -0.665  -4.521  0.00  0.00    -0.082 C 
ATOM      8  N   UNL     1      -3.813  -0.390  -5.374  0.00  0.00    +0.379 N 
ATOM      9  C   UNL     1      -2.799  -1.434  -5.191  0.00  0.00    -0.082 C 
ATOM     10  C   UNL     1      -2.288  -1.405  -3.747  0.00  0.00    -0.010 C 
ATOM     11  C   UNL     1      -5.450  -4.192  -1.197  0.00  0.00    +0.247 C 
ATOM     12  O   UNL     1      -5.668  -4.366  -0.014  0.00  0.00    -0.270 OA
ATOM     13  H   UNL     1      -4.104  -0.371  -6.340  0.00  0.00    -0.086 HD
ATOM     14  H   UNL     1      -3.421   0.506  -5.127  0.00  0.00    -0.086 HD
ENDROOT
BRANCH  11  15
ATOM     15  C   UNL     1      -6.365  -4.763  -2.209  0.00  0.00    +0.040 A 
ATOM     16  C   UNL     1      -5.923  -4.970  -3.516  0.00  0.00    +0.033 A 
ATOM     17  C   UNL     1      -6.782  -5.503  -4.457  0.00  0.00    +0.043 A 
ATOM     18  C   UNL     1      -8.079  -5.833  -4.105  0.00  0.00    +0.040 A 
ATOM     19  C   UNL     1      -8.524  -5.630  -2.810  0.00  0.00    +0.043 A 
ATOM     20  C   UNL     1      -7.673  -5.103  -1.859  0.00  0.00    +0.033 A 
ATOM     21 CL   UNL     1     -10.153  -6.045  -2.378  0.00  0.00    -0.083 Cl
ATOM     22 CL   UNL     1      -6.233  -5.760  -6.084  0.00  0.00    -0.083 Cl
ENDBRANCH  11  15
BRANCH   1  24
ATOM     23  N   UNL     1      -1.056   0.000  -1.189  0.00  0.00    -0.312 N 
ATOM     24  C   UNL     1      -1.500  -1.269  -1.282  0.00  0.00    +0.218 C 
ATOM     25  O   UNL     1      -0.708  -2.187  -1.324  0.00  0.00    -0.275 OA
ATOM     26  H   UNL     1      -1.689   0.734  -1.155  0.00  0.00    +0.149 HD
BRANCH  23  28
ATOM     27  C   UNL     1       0.940   0.336  -2.561  0.00  0.00    +0.028 C 
ATOM     28  C   UNL     1       0.383   0.271  -1.137  0.00  0.00    +0.075 C 
BRANCH  28  29
ATOM     29  C   UNL     1       0.625   1.607  -0.433  0.00  0.00    -0.020 C 
ATOM     30  C   UNL     1      -0.077   2.726  -1.206  0.00  0.00    +0.012 C 
ATOM     31  C   UNL     1       0.068   1.542   0.990  0.00  0.00    +0.012 C 
ATOM     32  C   UNL     1       2.128   1.891  -0.380  0.00  0.00    +0.012 C 
ENDBRANCH  28  29
ENDBRANCH  23  28
ENDBRANCH   1  24
TORSDOF 4
