REMARK  Name = ZINC39466733
REMARK  4 active torsions:
REMARK  status: ('A' for Active; 'I' for Inactive)
REMARK    1  A    between atoms: C_4  and  C_7
REMARK    2  A    between atoms: C_7  and  P_8
REMARK    3  A    between atoms: C_16  and  C_27
REMARK    4  A    between atoms: C_32  and  O_33
REMARK                            x       y       z     vdW  Elec       q    Type
REMARK                         _______ _______ _______ _____ _____    ______ ____
ROOT
ATOM      1  P   UNL     1       4.260  -1.012   1.674  0.00  0.00    +0.262 P 
ATOM      2  O   UNL     1       4.479   0.271   2.378  0.00  0.00    -0.274 OA
ATOM      3  N   UNL     1       5.640  -1.916   1.680  0.00  0.00    -0.291 NA
ATOM      4  N   UNL     1       5.522  -3.273   1.463  0.00  0.00    +0.397 N 
ATOM      5  C   UNL     1       6.872  -3.832   1.636  0.00  0.00    -0.046 C 
ATOM      6  C   UNL     1       6.873  -5.337   1.401  0.00  0.00    +0.005 C 
ATOM      7  C   UNL     1       6.420  -5.651  -0.000  0.00  0.00    -0.013 C 
ATOM      8  C   UNL     1       5.923  -6.869  -0.273  0.00  0.00    +0.017 C 
ATOM      9  C   UNL     1       5.846  -7.877   0.809  0.00  0.00    +0.127 C 
ATOM     10  C   UNL     1       5.845  -7.482   2.079  0.00  0.00    +0.016 C 
ATOM     11  C   UNL     1       5.921  -6.009   2.395  0.00  0.00    +0.018 C 
ATOM     12  C   UNL     1       4.533  -5.388   2.234  0.00  0.00    -0.002 C 
ATOM     13  C   UNL     1       4.596  -3.869   2.428  0.00  0.00    -0.020 C 
ATOM     14  C   UNL     1       3.170  -3.332   2.244  0.00  0.00    +0.156 C 
ATOM     15  O   UNL     1       3.159  -1.911   2.468  0.00  0.00    -0.319 OA
ATOM     16  F   UNL     1       5.777  -9.192   0.507  0.00  0.00    -0.205 F 
ATOM     17  H   UNL     1       6.506  -1.507   1.831  0.00  0.00    +0.111 HD
ATOM     18  H   UNL     1       5.189  -3.439   0.525  0.00  0.00    -0.055 HD
ENDROOT
BRANCH   8  19
ATOM     19  C   UNL     1       5.457  -7.200  -1.641  0.00  0.00    +0.026 A 
ATOM     20  C   UNL     1       6.380  -7.450  -2.654  0.00  0.00    +0.012 A 
ATOM     21  C   UNL     1       5.941  -7.757  -3.926  0.00  0.00    +0.001 A 
ATOM     22  C   UNL     1       4.586  -7.819  -4.199  0.00  0.00    +0.004 A 
ATOM     23  C   UNL     1       3.661  -7.574  -3.202  0.00  0.00    +0.046 A 
ATOM     24  C   UNL     1       4.088  -7.269  -1.919  0.00  0.00    +0.125 A 
BRANCH  24  25
ATOM     25  O   UNL     1       3.180  -7.034  -0.937  0.00  0.00    -0.506 OA
ATOM     26  H   UNL     1       2.916  -6.107  -0.859  0.00  0.00    +0.292 HD
ENDBRANCH  24  25
ENDBRANCH   8  19
BRANCH   1  27
ATOM     27  C   UNL     1       3.711  -0.707  -0.038  0.00  0.00    +0.147 C 
BRANCH  27  31
ATOM     28  C   UNL     1      -0.017   1.378   0.010  0.00  0.00    +0.000 A 
ATOM     29  C   UNL     1       1.171   2.086   0.002  0.00  0.00    +0.000 A 
ATOM     30  C   UNL     1       2.377   1.411  -0.013  0.00  0.00    +0.004 A 
ATOM     31  C   UNL     1       2.396   0.029  -0.020  0.00  0.00    -0.037 A 
ATOM     32  C   UNL     1       1.208  -0.679  -0.012  0.00  0.00    +0.004 A 
ATOM     33  C   UNL     1       0.002  -0.004   0.002  0.00  0.00    +0.000 A 
ENDBRANCH  27  31
ENDBRANCH   1  27
TORSDOF 4
