REMARK  Name = ZINC19143514
REMARK  15 active torsions:
REMARK  status: ('A' for Active; 'I' for Inactive)
REMARK    1  A    between atoms: C_1  and  C_2
REMARK    2  A    between atoms: C_2  and  N_3
REMARK    3  A    between atoms: N_3  and  C_4
REMARK    4  A    between atoms: N_3  and  C_6
REMARK    5  A    between atoms: C_4  and  C_5
REMARK    6  A    between atoms: C_9  and  C_12
REMARK    7  A    between atoms: N_13  and  N_14
REMARK    8  A    between atoms: C_26  and  N_27
REMARK    9  A    between atoms: N_27  and  C_28
REMARK   10  A    between atoms: C_28  and  C_29
REMARK   11  A    between atoms: C_28  and  C_31
REMARK   12  A    between atoms: C_28  and  C_33
REMARK   13  A    between atoms: C_29  and  O_30
REMARK   14  A    between atoms: C_31  and  O_32
REMARK   15  A    between atoms: C_33  and  O_34
REMARK                            x       y       z     vdW  Elec       q    Type
REMARK                         _______ _______ _______ _____ _____    ______ ____
ROOT
ATOM      1  N   UNL     1      -4.448  -7.712  -2.129  0.00  0.00    -0.119 N 
ATOM      2  C   UNL     1      -5.602  -7.024  -2.043  0.00  0.00    +0.274 C 
ATOM      3  O   UNL     1      -6.654  -7.569  -2.321  0.00  0.00    -0.268 OA
ATOM      4  C   UNL     1      -5.598  -5.618  -1.616  0.00  0.00    +0.047 A 
ATOM      5  C   UNL     1      -6.765  -4.873  -1.514  0.00  0.00    +0.014 A 
ATOM      6  C   UNL     1      -6.714  -3.548  -1.106  0.00  0.00    +0.001 A 
ATOM      7  C   UNL     1      -5.518  -2.940  -0.795  0.00  0.00    +0.010 A 
ATOM      8  C   UNL     1      -4.320  -3.663  -0.885  0.00  0.00    +0.004 A 
ATOM      9  C   UNL     1      -4.362  -5.009  -1.298  0.00  0.00    +0.008 A 
ATOM     10  C   UNL     1      -3.170  -5.764  -1.399  0.00  0.00    +0.048 A 
ATOM     11  C   UNL     1      -1.954  -5.163  -1.086  0.00  0.00    +0.015 A 
ATOM     12  C   UNL     1      -1.911  -3.840  -0.685  0.00  0.00    +0.024 A 
ATOM     13  C   UNL     1      -3.067  -3.082  -0.574  0.00  0.00    +0.036 A 
ATOM     14  C   UNL     1      -3.256  -7.161  -1.833  0.00  0.00    +0.274 C 
ATOM     15  O   UNL     1      -2.242  -7.828  -1.928  0.00  0.00    -0.268 OA
ENDROOT
BRANCH   1  17
ATOM     16  C   UNL     1      -4.891  -9.349  -3.738  0.00  0.00    +0.139 C 
ATOM     17  N   UNL     1      -4.489  -9.051  -2.540  0.00  0.00    -0.177 NA
BRANCH  16  21
ATOM     18  C   UNL     1      -5.292  -6.300  -6.664  0.00  0.00    +0.030 A 
ATOM     19  C   UNL     1      -4.695  -6.013  -5.441  0.00  0.00    +0.024 A 
ATOM     20  C   UNL     1      -4.563  -7.000  -4.489  0.00  0.00    +0.011 A 
ATOM     21  C   UNL     1      -5.030  -8.291  -4.754  0.00  0.00    -0.005 A 
ATOM     22  C   UNL     1      -5.624  -8.577  -5.987  0.00  0.00    +0.011 A 
ATOM     23  C   UNL     1      -5.758  -7.583  -6.931  0.00  0.00    +0.024 A 
BRANCH  18  24
ATOM     24  N   UNL     1      -5.424  -5.299  -7.625  0.00  0.00    -0.330 N 
BRANCH  24  26
ATOM     25  C   UNL     1      -7.559  -5.349  -8.818  0.00  0.00    +0.024 C 
ATOM     26  C   UNL     1      -6.052  -5.599  -8.914  0.00  0.00    +0.102 C 
ENDBRANCH  24  26
BRANCH  24  27
ATOM     27  C   UNL     1      -4.934  -3.947  -7.346  0.00  0.00    +0.102 C 
ATOM     28  C   UNL     1      -3.475  -3.830  -7.795  0.00  0.00    +0.024 C 
ENDBRANCH  24  27
ENDBRANCH  18  24
ENDBRANCH  16  21
ENDBRANCH   1  17
BRANCH  13  29
ATOM     29  N   UNL     1      -2.996  -1.763  -0.166  0.00  0.00    -0.332 N 
ATOM     30  H   UNL     1      -3.792  -1.208  -0.177  0.00  0.00    +0.147 HD
BRANCH  29  31
ATOM     31  C   UNL     1      -1.719  -1.203   0.283  0.00  0.00    +0.101 C 
BRANCH  31  32
ATOM     32  C   UNL     1      -1.940   0.220   0.800  0.00  0.00    +0.186 C 
BRANCH  32  33
ATOM     33  O   UNL     1      -0.695   0.766   1.239  0.00  0.00    -0.393 OA
ATOM     34  H   UNL     1      -0.759   1.669   1.580  0.00  0.00    +0.209 HD
ENDBRANCH  32  33
ENDBRANCH  31  32
BRANCH  31  35
ATOM     35  C   UNL     1      -0.735  -1.173  -0.888  0.00  0.00    +0.186 C 
BRANCH  35  36
ATOM     36  O   UNL     1      -1.309  -0.440  -1.973  0.00  0.00    -0.393 OA
ATOM     37  H   UNL     1      -0.739  -0.380  -2.752  0.00  0.00    +0.209 HD
ENDBRANCH  35  36
ENDBRANCH  31  35
BRANCH  31  38
ATOM     38  C   UNL     1      -1.149  -2.071   1.406  0.00  0.00    +0.186 C 
BRANCH  38  39
ATOM     39  O   UNL     1      -2.097  -2.155   2.472  0.00  0.00    -0.393 OA
ATOM     40  H   UNL     1      -1.801  -2.691   3.221  0.00  0.00    +0.209 HD
ENDBRANCH  38  39
ENDBRANCH  31  38
ENDBRANCH  29  31
ENDBRANCH  13  29
TORSDOF 13
