REMARK  Name = ZINC14159232
REMARK  13 active torsions:
REMARK  status: ('A' for Active; 'I' for Inactive)
REMARK    1  A    between atoms: C_1  and  C_2
REMARK    2  A    between atoms: C_6  and  N_9
REMARK    3  A    between atoms: C_7  and  C_8
REMARK    4  A    between atoms: N_9  and  C_10
REMARK    5  A    between atoms: C_10  and  N_12
REMARK    6  A    between atoms: N_14  and  C_15
REMARK    7  A    between atoms: C_15  and  C_16
REMARK    8  A    between atoms: C_16  and  S_17
REMARK    9  A    between atoms: S_17  and  C_18
REMARK   10  A    between atoms: C_18  and  C_19
REMARK   11  A    between atoms: C_20  and  C_25
REMARK   12  A    between atoms: C_29  and  C_34
REMARK   13  A    between atoms: C_31  and  C_33
REMARK                            x       y       z     vdW  Elec       q    Type
REMARK                         _______ _______ _______ _____ _____    ______ ____
ROOT
ATOM      1  N   UNL     1       2.514   0.809   0.191  0.00  0.00    -0.159 NA
ATOM      2  C   UNL     1       1.370   1.425   0.435  0.00  0.00    +0.195 C 
ATOM      3  N   UNL     1       1.346   2.779   0.606  0.00  0.00    -0.357 N 
ATOM      4  N   UNL     1       0.209   0.703   0.516  0.00  0.00    -0.297 N 
ATOM      5  C   UNL     1       0.213  -0.654   0.223  0.00  0.00    +0.231 A 
ATOM      6  N   UNL     1       1.364  -1.257  -0.031  0.00  0.00    -0.217 NA
ATOM      7  C   UNL     1       1.404  -2.549  -0.309  0.00  0.00    +0.044 A 
ATOM      8  C   UNL     1       0.220  -3.270  -0.343  0.00  0.00    +0.046 A 
ATOM      9  C   UNL     1      -0.967  -2.606  -0.077  0.00  0.00    +0.044 A 
ATOM     10  N   UNL     1      -0.936  -1.313   0.199  0.00  0.00    -0.217 NA
ATOM     11  C   UNL     1      -2.279  -3.348  -0.103  0.00  0.00    +0.066 C 
ATOM     12  C   UNL     1       2.719  -3.229  -0.590  0.00  0.00    +0.066 C 
ATOM     13  H   UNL     1       2.261   3.369   0.451  0.00  0.00    +0.162 HD
ATOM     14  H   UNL     1      -0.727   1.199   0.814  0.00  0.00    +0.171 HD
ENDROOT
BRANCH   1  15
ATOM     15  C   UNL     1       3.649   1.517   0.099  0.00  0.00    +0.161 C 
ATOM     16  S   UNL     1       4.249   2.355   1.466  0.00  0.00    -0.016 S 
BRANCH  15  17
ATOM     17  N   UNL     1       4.318   1.569  -1.070  0.00  0.00    -0.295 N 
ATOM     18  H   UNL     1       3.889   1.103  -1.970  0.00  0.00    +0.154 HD
BRANCH  17  24
ATOM     19  C   UNL     1       8.947   1.678  -2.719  0.00  0.00    +0.044 C 
ATOM     20  C   UNL     1       7.818   2.291  -1.931  0.00  0.00    -0.046 A 
ATOM     21  C   UNL     1       8.006   3.494  -1.276  0.00  0.00    +0.004 A 
ATOM     22  C   UNL     1       6.972   4.059  -0.552  0.00  0.00    +0.002 A 
ATOM     23  C   UNL     1       5.748   3.424  -0.482  0.00  0.00    +0.023 A 
ATOM     24  C   UNL     1       5.556   2.215  -1.139  0.00  0.00    +0.036 A 
ATOM     25  C   UNL     1       6.598   1.647  -1.861  0.00  0.00    -0.026 A 
ATOM     26  C   UNL     1       6.396   0.333  -2.570  0.00  0.00    +0.046 C 
ENDBRANCH  17  24
ENDBRANCH  15  17
ENDBRANCH   1  15
BRANCH   3  27
ATOM     27  C   UNL     1       0.101   3.445   0.997  0.00  0.00    +0.126 C 
BRANCH  27  28
ATOM     28  C   UNL     1       0.316   4.960   1.008  0.00  0.00    +0.090 C 
BRANCH  28  29
ATOM     29  S   UNL     1      -1.179   5.778   1.629  0.00  0.00    -0.153 S 
BRANCH  29  30
ATOM     30  C   UNL     1      -0.766   7.544   1.580  0.00  0.00    +0.126 C 
BRANCH  30  31
ATOM     31  C   UNL     1      -1.939   8.348   2.078  0.00  0.00    +0.072 A 
ATOM     32  C   UNL     1      -2.167   8.708   3.355  0.00  0.00    +0.036 A 
ATOM     33  N   UNL     1      -3.334   9.425   3.362  0.00  0.00    -0.348 N 
ATOM     34  H   UNL     1      -3.726   9.828   4.308  0.00  0.00    +0.166 HD
ATOM     35  C   UNL     1      -3.778   9.478   2.088  0.00  0.00    +0.197 A 
ATOM     36  N   UNL     1      -2.936   8.837   1.325  0.00  0.00    -0.240 NA
ATOM     37  C   UNL     1      -1.305   8.384   4.547  0.00  0.00    +0.065 C 
ENDBRANCH  30  31
ENDBRANCH  29  30
ENDBRANCH  28  29
ENDBRANCH  27  28
ENDBRANCH   3  27
TORSDOF 8
