REMARK  Name = ZINC20684984
REMARK  8 active torsions:
REMARK  status: ('A' for Active; 'I' for Inactive)
REMARK    1  A    between atoms: C_4  and  N_28
REMARK    2  A    between atoms: C_5  and  N_7
REMARK    3  A    between atoms: N_10  and  C_13
REMARK    4  A    between atoms: C_13  and  C_14
REMARK    5  A    between atoms: N_16  and  C_17
REMARK    6  A    between atoms: C_17  and  C_18
REMARK    7  A    between atoms: C_21  and  S_24
REMARK    8  A    between atoms: S_24  and  N_27
REMARK                            x       y       z     vdW  Elec       q    Type
REMARK                         _______ _______ _______ _____ _____    ______ ____
ROOT
ATOM      1  C   UNL     1       2.462   0.920  -0.017  0.00  0.00    +0.019 C 
ENDROOT
BRANCH   1   5
ATOM      2  N   UNL     1       5.984   3.042  -0.984  0.00  0.00    -0.332 N 
ATOM      3  C   UNL     1       5.966   2.271   0.267  0.00  0.00    +0.086 C 
ATOM      4  C   UNL     1       4.855   1.221   0.201  0.00  0.00    -0.059 C 
ATOM      5  N   UNL     1       3.565   1.890  -0.022  0.00  0.00    +0.387 N 
ATOM      6  C   UNL     1       3.584   2.660  -1.273  0.00  0.00    -0.059 C 
ATOM      7  C   UNL     1       4.695   3.710  -1.207  0.00  0.00    +0.086 C 
ATOM      8  H   UNL     1       3.400   2.593   0.808  0.00  0.00    -0.081 HD
BRANCH   2  13
ATOM      9  C   UNL     1       8.136   5.861  -0.022  0.00  0.00    +0.002 A 
ATOM     10  C   UNL     1       9.112   5.790  -0.999  0.00  0.00    +0.002 A 
ATOM     11  C   UNL     1       9.052   4.808  -1.971  0.00  0.00    +0.034 A 
ATOM     12  C   UNL     1       8.016   3.895  -1.969  0.00  0.00    +0.147 A 
ATOM     13  C   UNL     1       7.034   3.964  -0.989  0.00  0.00    +0.060 A 
ATOM     14  C   UNL     1       7.094   4.955  -0.018  0.00  0.00    +0.025 A 
BRANCH  12  15
ATOM     15  N   UNL     1       7.952   2.845  -3.010  0.00  0.00    +0.058 N 
ATOM     16  O   UNL     1       8.813   2.785  -3.869  0.00  0.00    -0.126 OA
ATOM     17  O   UNL     1       7.038   2.040  -3.008  0.00  0.00    -0.126 OA
ENDBRANCH  12  15
ENDBRANCH   2  13
ENDBRANCH   1   5
BRANCH   1  18
ATOM     18  C   UNL     1       1.147   1.655   0.000  0.00  0.00    +0.197 C 
ATOM     19  O   UNL     1       1.130   2.868   0.007  0.00  0.00    -0.278 OA
ATOM     20  N   UNL     1      -0.011   0.966   0.007  0.00  0.00    -0.313 N 
ATOM     21  H   UNL     1       0.004  -0.134   0.006  0.00  0.00    +0.149 HD
BRANCH  20  22
ATOM     22  C   UNL     1      -1.290   1.681   0.017  0.00  0.00    +0.139 C 
BRANCH  22  23
ATOM     23  C   UNL     1      -2.422   0.686   0.017  0.00  0.00    -0.030 A 
ATOM     24  C   UNL     1      -2.950   0.241  -1.180  0.00  0.00    +0.007 A 
ATOM     25  C   UNL     1      -3.986  -0.675  -1.180  0.00  0.00    +0.029 A 
ATOM     26  C   UNL     1      -4.499  -1.138   0.017  0.00  0.00    +0.105 A 
ATOM     27  C   UNL     1      -3.974  -0.689   1.214  0.00  0.00    +0.029 A 
ATOM     28  C   UNL     1      -2.935   0.224   1.214  0.00  0.00    +0.007 A 
BRANCH  26  29
ATOM     29  S   UNL     1      -5.822  -2.302   0.017  0.00  0.00    +0.056 S 
ATOM     30  O   UNL     1      -5.769  -2.977  -1.233  0.00  0.00    -0.153 OA
ATOM     31  O   UNL     1      -5.756  -2.992   1.258  0.00  0.00    -0.153 OA
BRANCH  29  32
ATOM     32  N   UNL     1      -7.234  -1.438   0.030  0.00  0.00    -0.204 NA
ATOM     33  H   UNL     1      -8.088  -2.132   0.030  0.00  0.00    +0.144 HD
ATOM     34  H   UNL     1      -7.281  -0.799  -0.864  0.00  0.00    +0.144 HD
ENDBRANCH  29  32
ENDBRANCH  26  29
ENDBRANCH  22  23
ENDBRANCH  20  22
ENDBRANCH   1  18
TORSDOF 8
