REMARK  Name = ZINC01824975
REMARK  7 active torsions:
REMARK  status: ('A' for Active; 'I' for Inactive)
REMARK    1  A    between atoms: C_1  and  O_2
REMARK    2  A    between atoms: O_2  and  C_3
REMARK    3  A    between atoms: C_6  and  C_9
REMARK    4  A    between atoms: C_11  and  C_28
REMARK    5  A    between atoms: N_13  and  C_15
REMARK    6  A    between atoms: C_15  and  N_16
REMARK    7  A    between atoms: C_32  and  N_34
REMARK                            x       y       z     vdW  Elec       q    Type
REMARK                         _______ _______ _______ _____ _____    ______ ____
ROOT
ATOM      1  C   UNL     1       2.578  -2.540   4.292  0.00  0.00    +0.047 C 
ATOM      2  C   UNL     1       2.692  -3.860   4.426  0.00  0.00    +0.023 C 
ATOM      3  C   UNL     1       3.451  -4.103   5.712  0.00  0.00    +0.132 C 
ATOM      4  N   UNL     1       3.724  -2.752   6.240  0.00  0.00    -0.200 NA
ATOM      5  N   UNL     1       3.184  -1.872   5.346  0.00  0.00    -0.275 N 
ATOM      6  H   UNL     1       3.218  -0.907   5.438  0.00  0.00    +0.167 HD
ENDROOT
BRANCH   1  10
ATOM      7  C   UNL     1       0.626  -0.618   1.041  0.00  0.00    +0.120 A 
ATOM      8  C   UNL     1       1.202   0.142   2.050  0.00  0.00    +0.046 A 
ATOM      9  C   UNL     1       1.836  -0.478   3.106  0.00  0.00    +0.013 A 
ATOM     10  C   UNL     1       1.897  -1.870   3.160  0.00  0.00    -0.003 A 
ATOM     11  C   UNL     1       1.317  -2.631   2.145  0.00  0.00    +0.013 A 
ATOM     12  C   UNL     1       0.680  -2.005   1.095  0.00  0.00    +0.046 A 
BRANCH   7  14
ATOM     13  C   UNL     1      -0.017   1.425   0.010  0.00  0.00    +0.277 C 
ATOM     14  O   UNL     1       0.002  -0.004   0.002  0.00  0.00    -0.495 OA
ENDBRANCH   7  14
ENDBRANCH   1  10
BRANCH   3  15
ATOM     15  C   UNL     1       4.740  -4.832   5.433  0.00  0.00    -0.023 A 
ATOM     16  C   UNL     1       5.834  -4.140   4.946  0.00  0.00    +0.006 A 
ATOM     17  C   UNL     1       7.016  -4.808   4.690  0.00  0.00    +0.003 A 
ATOM     18  C   UNL     1       7.105  -6.168   4.921  0.00  0.00    +0.033 A 
ATOM     19  C   UNL     1       6.012  -6.860   5.409  0.00  0.00    +0.127 A 
ATOM     20  C   UNL     1       4.831  -6.190   5.669  0.00  0.00    +0.038 A 
BRANCH  19  21
ATOM     21  N   UNL     1       6.108  -8.316   5.656  0.00  0.00    +0.056 N 
ATOM     22  O   UNL     1       7.142  -8.901   5.431  0.00  0.00    -0.126 OA
ATOM     23  O   UNL     1       5.152  -8.921   6.082  0.00  0.00    -0.126 OA
ENDBRANCH  19  21
ENDBRANCH   3  15
BRANCH   4  24
ATOM     24  C   UNL     1       3.137  -2.579   7.575  0.00  0.00    +0.221 C 
BRANCH  24  25
ATOM     25  N   UNL     1       4.065  -3.093   8.586  0.00  0.00    -0.249 N 
ATOM     26  C   UNL     1       4.078  -4.409   9.043  0.00  0.00    +0.049 A 
ATOM     27  C   UNL     1       3.294  -5.505   8.708  0.00  0.00    +0.025 A 
ATOM     28  C   UNL     1       3.509  -6.727   9.317  0.00  0.00    +0.017 A 
ATOM     29  C   UNL     1       4.507  -6.877  10.267  0.00  0.00    +0.019 A 
ATOM     30  C   UNL     1       5.298  -5.801  10.615  0.00  0.00    +0.029 A 
ATOM     31  C   UNL     1       5.089  -4.563  10.006  0.00  0.00    +0.049 A 
ATOM     32  C   UNL     1       5.740  -3.248  10.148  0.00  0.00    +0.250 C 
ATOM     33  O   UNL     1       6.663  -2.954  10.880  0.00  0.00    -0.282 OA
ATOM     34  C   UNL     1       5.016  -2.355   9.185  0.00  0.00    +0.292 C 
ATOM     35  O   UNL     1       5.244  -1.180   8.986  0.00  0.00    -0.266 OA
ATOM     36 BR   UNL     1       4.784  -8.558  11.088  0.00  0.00    -0.050 Br
ENDBRANCH  24  25
ENDBRANCH   4  24
TORSDOF 6
