REMARK  Name = ZINC40014724
REMARK  15 active torsions:
REMARK  status: ('A' for Active; 'I' for Inactive)
REMARK    1  A    between atoms: C_1  and  C_2
REMARK    2  A    between atoms: C_2  and  N_3
REMARK    3  A    between atoms: N_3  and  C_4
REMARK    4  A    between atoms: N_3  and  C_6
REMARK    5  A    between atoms: C_4  and  C_5
REMARK    6  A    between atoms: C_6  and  C_7
REMARK    7  A    between atoms: C_7  and  C_8
REMARK    8  A    between atoms: C_8  and  N_9
REMARK    9  A    between atoms: C_10  and  C_26
REMARK   10  A    between atoms: C_30  and  O_32
REMARK   11  A    between atoms: O_32  and  C_33
REMARK   12  A    between atoms: C_33  and  C_34
REMARK   13  A    between atoms: C_34  and  C_35
REMARK   14  A    between atoms: C_35  and  C_36
REMARK   15  A    between atoms: C_35  and  C_37
REMARK                            x       y       z     vdW  Elec       q    Type
REMARK                         _______ _______ _______ _____ _____    ______ ____
ROOT
ATOM      1  N   UNL     1      -4.288  -4.606   0.107  0.00  0.00    -0.284 N 
ATOM      2  C   UNL     1      -5.243  -4.759   1.217  0.00  0.00    +0.145 C 
ATOM      3  C   UNL     1      -6.497  -5.292   0.604  0.00  0.00    +0.072 A 
ATOM      4  C   UNL     1      -7.787  -5.653   1.202  0.00  0.00    +0.199 A 
ATOM      5  O   UNL     1      -8.084  -5.393   2.354  0.00  0.00    -0.287 OA
ATOM      6  C   UNL     1      -8.695  -6.365   0.268  0.00  0.00    +0.066 A 
ATOM      7  C   UNL     1      -9.872  -6.949   0.737  0.00  0.00    +0.035 A 
ATOM      8  C   UNL     1     -10.701  -7.611  -0.142  0.00  0.00    +0.042 A 
ATOM      9  C   UNL     1     -10.364  -7.694  -1.488  0.00  0.00    +0.023 A 
ATOM     10  C   UNL     1      -9.206  -7.120  -1.961  0.00  0.00    +0.048 A 
ATOM     11  C   UNL     1      -8.351  -6.443  -1.091  0.00  0.00    +0.140 A 
ATOM     12  O   UNL     1      -7.225  -5.880  -1.585  0.00  0.00    -0.450 OA
ATOM     13  C   UNL     1      -6.280  -5.426  -0.738  0.00  0.00    +0.199 A 
ATOM     14  C   UNL     1      -4.903  -4.992  -1.029  0.00  0.00    +0.283 C 
ATOM     15  O   UNL     1      -4.393  -4.987  -2.132  0.00  0.00    -0.267 OA
ATOM     16 CL   UNL     1     -12.168  -8.341   0.431  0.00  0.00    -0.084 Cl
ENDROOT
BRANCH   2  17
ATOM     17  C   UNL     1      -4.706  -5.732   2.234  0.00  0.00    -0.019 A 
ATOM     18  C   UNL     1      -4.042  -6.871   1.817  0.00  0.00    +0.006 A 
ATOM     19  C   UNL     1      -3.548  -7.766   2.748  0.00  0.00    +0.004 A 
ATOM     20  C   UNL     1      -3.717  -7.524   4.098  0.00  0.00    +0.045 A 
ATOM     21  C   UNL     1      -4.383  -6.382   4.519  0.00  0.00    +0.121 A 
ATOM     22  C   UNL     1      -4.873  -5.483   3.583  0.00  0.00    +0.051 A 
BRANCH  21  23
ATOM     23  O   UNL     1      -4.551  -6.142   5.846  0.00  0.00    -0.492 OA
BRANCH  23  24
ATOM     24  C   UNL     1      -4.016  -7.108   6.753  0.00  0.00    +0.229 C 
BRANCH  24  25
ATOM     25  C   UNL     1      -4.300  -6.670   8.191  0.00  0.00    +0.044 C 
BRANCH  25  26
ATOM     26  C   UNL     1      -3.727  -7.704   9.162  0.00  0.00    -0.014 C 
ATOM     27  C   UNL     1      -3.901  -7.207  10.598  0.00  0.00    +0.007 C 
ATOM     28  C   UNL     1      -4.468  -9.032   8.989  0.00  0.00    +0.007 C 
ENDBRANCH  25  26
ENDBRANCH  24  25
ENDBRANCH  23  24
ENDBRANCH  21  23
ENDBRANCH   2  17
BRANCH   1  29
ATOM     29  C   UNL     1      -2.913  -4.113   0.217  0.00  0.00    +0.107 C 
BRANCH  29  30
ATOM     30  C   UNL     1      -2.901  -2.592   0.048  0.00  0.00    +0.000 C 
BRANCH  30  31
ATOM     31  C   UNL     1      -1.464  -2.078   0.163  0.00  0.00    -0.077 C 
BRANCH  31  32
ATOM     32  N   UNL     1      -1.438  -0.634  -0.108  0.00  0.00    +0.379 N 
ATOM     33  H   UNL     1      -1.863  -0.453  -1.004  0.00  0.00    -0.082 HD
BRANCH  32  35
ATOM     34  C   UNL     1      -2.263   1.562   0.594  0.00  0.00    -0.017 C 
ATOM     35  C   UNL     1      -2.184   0.074   0.941  0.00  0.00    -0.082 C 
ENDBRANCH  32  35
BRANCH  32  36
ATOM     36  C   UNL     1      -0.046  -0.164  -0.121  0.00  0.00    -0.082 C 
ATOM     37  C   UNL     1       0.689  -0.780  -1.313  0.00  0.00    -0.017 C 
ENDBRANCH  32  36
ENDBRANCH  31  32
ENDBRANCH  30  31
ENDBRANCH  29  30
ENDBRANCH   1  29
TORSDOF 11
