REMARK  Name = ZINC16073656
REMARK  6 active torsions:
REMARK  status: ('A' for Active; 'I' for Inactive)
REMARK    1  A    between atoms: C_7  and  C_11
REMARK    2  A    between atoms: C_11  and  C_12
REMARK    3  A    between atoms: N_14  and  N_15
REMARK    4  A    between atoms: C_16  and  C_18
REMARK    5  A    between atoms: C_18  and  O_19
REMARK    6  A    between atoms: O_19  and  C_20
REMARK                            x       y       z     vdW  Elec       q    Type
REMARK                         _______ _______ _______ _____ _____    ______ ____
ROOT
ATOM      1  N   UNL     1      -0.995  -4.895  -2.989  0.00  0.00    -0.232 N 
ATOM      2  C   UNL     1      -1.838  -5.918  -3.231  0.00  0.00    +0.267 C 
ATOM      3  O   UNL     1      -2.256  -6.590  -2.312  0.00  0.00    -0.271 OA
ATOM      4  H   UNL     1      -0.661  -4.357  -3.724  0.00  0.00    +0.173 HD
ENDROOT
BRANCH   1   7
ATOM      5  C   UNL     1       0.242  -3.584  -1.434  0.00  0.00    +0.233 C 
ATOM      6  O   UNL     1       0.660  -2.913  -2.353  0.00  0.00    -0.274 OA
ATOM      7  N   UNL     1      -0.601  -4.607  -1.676  0.00  0.00    -0.234 N 
ATOM      8  H   UNL     1      -0.935  -5.145  -0.941  0.00  0.00    +0.173 HD
BRANCH   5   9
ATOM      9  C   UNL     1       0.666  -3.275  -0.021  0.00  0.00    +0.134 C 
BRANCH   9  16
ATOM     10  C   UNL     1      -0.017   1.362   0.009  0.00  0.00    +0.001 A 
ATOM     11  C   UNL     1       1.170   2.083   0.002  0.00  0.00    +0.002 A 
ATOM     12  C   UNL     1       2.386   1.436  -0.013  0.00  0.00    +0.026 A 
ATOM     13  C   UNL     1       2.428   0.046  -0.021  0.00  0.00    +0.047 A 
ATOM     14  C   UNL     1       1.223  -0.681  -0.013  0.00  0.00    +0.003 A 
ATOM     15  C   UNL     1       0.002  -0.004   0.002  0.00  0.00    +0.010 A 
ATOM     16  C   UNL     1       1.604  -2.095  -0.025  0.00  0.00    -0.014 A 
ATOM     17  C   UNL     1       2.945  -2.141  -0.038  0.00  0.00    +0.087 A 
ATOM     18  N   UNL     1       3.455  -0.871  -0.036  0.00  0.00    -0.360 N 
ATOM     19  H   UNL     1       4.399  -0.650  -0.044  0.00  0.00    +0.165 HD
ENDBRANCH   9  16
ENDBRANCH   5   9
ENDBRANCH   1   7
BRANCH   2  20
ATOM     20  C   UNL     1      -2.262  -6.227  -4.644  0.00  0.00    +0.326 C 
BRANCH  20  21
ATOM     21  O   UNL     1      -3.151  -7.346  -4.641  0.00  0.00    -0.483 OA
BRANCH  21  22
ATOM     22  C   UNL     1      -3.629  -7.756  -5.843  0.00  0.00    +0.125 A 
ATOM     23  C   UNL     1      -3.240  -7.092  -7.005  0.00  0.00    +0.046 A 
ATOM     24  C   UNL     1      -3.713  -7.493  -8.221  0.00  0.00    +0.015 A 
ATOM     25  C   UNL     1      -4.593  -8.578  -8.302  0.00  0.00    +0.018 A 
ATOM     26  C   UNL     1      -5.115  -9.030  -9.593  0.00  0.00    +0.018 A 
ATOM     27  C   UNL     1      -5.965 -10.090  -9.606  0.00  0.00    +0.092 A 
ATOM     28  C   UNL     1      -6.319 -10.720  -8.395  0.00  0.00    +0.337 A 
ATOM     29  O   UNL     1      -7.082 -11.669  -8.421  0.00  0.00    -0.245 OA
ATOM     30  O   UNL     1      -5.837 -10.300  -7.215  0.00  0.00    -0.422 OA
ATOM     31  C   UNL     1      -4.988  -9.253  -7.133  0.00  0.00    +0.143 A 
ATOM     32  C   UNL     1      -4.495  -8.836  -5.906  0.00  0.00    +0.092 A 
ENDBRANCH  21  22
ENDBRANCH  20  21
ENDBRANCH   2  20
TORSDOF 6
