REMARK  Name = ZINC06964866
REMARK  8 active torsions:
REMARK  status: ('A' for Active; 'I' for Inactive)
REMARK    1  A    between atoms: C_1  and  C_2
REMARK    2  A    between atoms: C_2  and  O_3
REMARK    3  A    between atoms: O_3  and  C_4
REMARK    4  A    between atoms: C_8  and  N_10
REMARK    5  A    between atoms: C_11  and  C_13
REMARK    6  A    between atoms: C_14  and  C_30
REMARK    7  A    between atoms: C_19  and  C_21
REMARK    8  A    between atoms: C_25  and  N_27
REMARK                            x       y       z     vdW  Elec       q    Type
REMARK                         _______ _______ _______ _____ _____    ______ ____
ROOT
ATOM      1  C   UNL     1      -1.003   6.026   1.839  0.00  0.00    +0.056 C 
ATOM      2  C   UNL     1      -2.315   5.708   1.814  0.00  0.00    +0.017 C 
ATOM      3  N   UNL     1      -3.080   5.960   0.711  0.00  0.00    -0.300 N 
ATOM      4  C   UNL     1      -2.608   6.527  -0.406  0.00  0.00    +0.135 C 
ATOM      5  S   UNL     1      -3.676   6.788  -1.718  0.00  0.00    -0.019 S 
ATOM      6  N   UNL     1      -1.318   6.899  -0.532  0.00  0.00    -0.315 N 
ATOM      7  C   UNL     1      -0.409   6.670   0.604  0.00  0.00    +0.139 C 
ATOM      8  C   UNL     1      -2.946   5.065   3.022  0.00  0.00    +0.061 C 
ATOM      9  H   UNL     1      -4.018   5.714   0.738  0.00  0.00    +0.154 HD
ATOM     10  H   UNL     1      -0.997   7.309  -1.350  0.00  0.00    +0.149 HD
ENDROOT
BRANCH   7  11
ATOM     11  C   UNL     1       0.723   5.800   0.124  0.00  0.00    -0.020 A 
ATOM     12  C   UNL     1       0.453   4.598  -0.504  0.00  0.00    +0.006 A 
ATOM     13  C   UNL     1       1.492   3.801  -0.948  0.00  0.00    +0.003 A 
ATOM     14  C   UNL     1       2.801   4.201  -0.754  0.00  0.00    +0.033 A 
ATOM     15  C   UNL     1       3.071   5.402  -0.127  0.00  0.00    +0.127 A 
ATOM     16  C   UNL     1       2.032   6.202   0.313  0.00  0.00    +0.038 A 
BRANCH  15  17
ATOM     17  N   UNL     1       4.473   5.833   0.075  0.00  0.00    +0.056 N 
ATOM     18  O   UNL     1       5.388   5.128  -0.311  0.00  0.00    -0.126 OA
ATOM     19  O   UNL     1       4.711   6.892   0.628  0.00  0.00    -0.126 OA
ENDBRANCH  15  17
ENDBRANCH   7  11
BRANCH   1  21
ATOM     20  N   UNL     1      -0.032   4.498   3.406  0.00  0.00    -0.282 N 
ATOM     21  C   UNL     1      -0.209   5.765   2.983  0.00  0.00    +0.248 C 
ATOM     22  O   UNL     1       0.314   6.686   3.584  0.00  0.00    -0.270 OA
ATOM     23  H   UNL     1      -0.367   3.758   2.876  0.00  0.00    +0.155 HD
BRANCH  20  28
ATOM     24  C   UNL     1       0.891   2.957   6.618  0.00  0.00    +0.122 A 
ATOM     25  C   UNL     1       1.957   3.762   6.995  0.00  0.00    +0.046 A 
ATOM     26  C   UNL     1       2.360   4.805   6.183  0.00  0.00    +0.005 A 
ATOM     27  C   UNL     1       1.704   5.048   4.991  0.00  0.00    +0.023 A 
ATOM     28  C   UNL     1       0.633   4.249   4.611  0.00  0.00    +0.037 A 
ATOM     29  C   UNL     1       0.228   3.201   5.425  0.00  0.00    +0.069 A 
BRANCH  24  30
ATOM     30  O   UNL     1       0.497   1.931   7.417  0.00  0.00    -0.492 OA
BRANCH  30  32
ATOM     31  C   UNL     1       0.642   0.547   9.393  0.00  0.00    +0.048 C 
ATOM     32  C   UNL     1       1.226   1.739   8.632  0.00  0.00    +0.225 C 
ENDBRANCH  30  32
ENDBRANCH  24  30
ENDBRANCH  20  28
ENDBRANCH   1  21
TORSDOF 6
