REMARK  Name = ZINC04823896
REMARK  7 active torsions:
REMARK  status: ('A' for Active; 'I' for Inactive)
REMARK    1  A    between atoms: C_1  and  C_2
REMARK    2  A    between atoms: C_2  and  C_14
REMARK    3  A    between atoms: N_3  and  N_4
REMARK    4  A    between atoms: C_5  and  C_6
REMARK    5  A    between atoms: C_5  and  C_7
REMARK    6  A    between atoms: C_10  and  N_13
REMARK    7  A    between atoms: C_17  and  N_20
REMARK                            x       y       z     vdW  Elec       q    Type
REMARK                         _______ _______ _______ _____ _____    ______ ____
ROOT
ATOM      1  C   UNL     1      -0.013   1.086   0.008  0.00  0.00    +0.068 C 
ATOM      2  C   UNL     1      -0.718   1.572   1.248  0.00  0.00    +0.068 C 
ATOM      3  N   UNL     1      -0.038   1.793   2.343  0.00  0.00    -0.154 NA
ENDROOT
BRANCH   2   4
ATOM      4  C   UNL     1      -2.169   1.797   1.227  0.00  0.00    -0.002 A 
ATOM      5  C   UNL     1      -2.899   1.566   0.054  0.00  0.00    +0.011 A 
ATOM      6  C   UNL     1      -4.259   1.774   0.040  0.00  0.00    +0.023 A 
ATOM      7  C   UNL     1      -4.908   2.223   1.186  0.00  0.00    +0.025 A 
ATOM      8  C   UNL     1      -4.187   2.459   2.353  0.00  0.00    +0.023 A 
ATOM      9  C   UNL     1      -2.827   2.249   2.378  0.00  0.00    +0.011 A 
BRANCH   7  10
ATOM     10  N   UNL     1      -6.284   2.438   1.166  0.00  0.00    -0.358 N 
ATOM     11  H   UNL     1      -6.738   2.751   1.964  0.00  0.00    +0.142 HD
ATOM     12  H   UNL     1      -6.788   2.274   0.353  0.00  0.00    +0.142 HD
ENDBRANCH   7  10
ENDBRANCH   2   4
BRANCH   3  13
ATOM     13  N   UNL     1       1.237   1.595   2.362  0.00  0.00    -0.154 NA
ATOM     14  C   UNL     1       1.917   1.817   3.457  0.00  0.00    +0.068 C 
ATOM     15  C   UNL     1       1.212   2.303   4.697  0.00  0.00    +0.068 C 
BRANCH  14  16
ATOM     16  C   UNL     1       3.368   1.591   3.478  0.00  0.00    -0.002 A 
ATOM     17  C   UNL     1       4.099   1.833   4.648  0.00  0.00    +0.011 A 
ATOM     18  C   UNL     1       5.458   1.616   4.665  0.00  0.00    +0.023 A 
ATOM     19  C   UNL     1       6.107   1.167   3.518  0.00  0.00    +0.025 A 
ATOM     20  C   UNL     1       5.386   0.930   2.352  0.00  0.00    +0.023 A 
ATOM     21  C   UNL     1       4.026   1.140   2.328  0.00  0.00    +0.011 A 
BRANCH  19  22
ATOM     22  N   UNL     1       7.484   0.954   3.538  0.00  0.00    -0.358 N 
ATOM     23  H   UNL     1       7.938   0.642   2.740  0.00  0.00    +0.142 HD
ATOM     24  H   UNL     1       7.988   1.119   4.350  0.00  0.00    +0.142 HD
ENDBRANCH  19  22
ENDBRANCH  14  16
ENDBRANCH   3  13
TORSDOF 5
