REMARK  Name = ZINC13020978
REMARK  7 active torsions:
REMARK  status: ('A' for Active; 'I' for Inactive)
REMARK    1  A    between atoms: C_1  and  C_2
REMARK    2  A    between atoms: C_8  and  N_10
REMARK    3  A    between atoms: N_13  and  C_14
REMARK    4  A    between atoms: C_14  and  C_15
REMARK    5  A    between atoms: N_17  and  C_18
REMARK    6  A    between atoms: C_18  and  C_19
REMARK    7  A    between atoms: N_21  and  C_22
REMARK                            x       y       z     vdW  Elec       q    Type
REMARK                         _______ _______ _______ _____ _____    ______ ____
ROOT
ATOM      1  C   UNL     1       4.064  -6.024  -0.493  0.00  0.00    +0.231 C 
ATOM      2  O   UNL     1       3.151  -6.822  -0.509  0.00  0.00    -0.274 OA
ATOM      3  N   UNL     1       3.805  -4.706  -0.373  0.00  0.00    -0.305 N 
ATOM      4  H   UNL     1       4.536  -4.068  -0.361  0.00  0.00    +0.149 HD
ENDROOT
BRANCH   1   5
ATOM      5  C   UNL     1       5.487  -6.505  -0.610  0.00  0.00    +0.201 C 
BRANCH   5   9
ATOM      6  N   UNL     1       6.686  -9.963  -0.954  0.00  0.00    -0.296 N 
ATOM      7  C   UNL     1       6.673  -8.620  -0.845  0.00  0.00    +0.300 C 
ATOM      8  O   UNL     1       7.718  -8.000  -0.851  0.00  0.00    -0.253 OA
ATOM      9  N   UNL     1       5.501  -7.965  -0.728  0.00  0.00    -0.291 N 
ATOM     10  H   UNL     1       5.851 -10.459  -0.949  0.00  0.00    +0.151 HD
ATOM     11  H   UNL     1       4.667  -8.460  -0.723  0.00  0.00    +0.151 HD
BRANCH   6  18
ATOM     12  C   UNL     1       7.145 -11.758  -3.180  0.00  0.00    +0.009 C 
ATOM     13  C   UNL     1       7.728 -12.012  -1.789  0.00  0.00    +0.006 C 
ATOM     14  C   UNL     1       9.058 -12.757  -1.921  0.00  0.00    +0.005 C 
ATOM     15  C   UNL     1       9.641 -13.011  -0.529  0.00  0.00    +0.000 C 
ATOM     16  C   UNL     1       9.872 -11.675   0.179  0.00  0.00    +0.002 C 
ATOM     17  C   UNL     1       8.542 -10.930   0.311  0.00  0.00    +0.022 C 
ATOM     18  C   UNL     1       7.959 -10.676  -1.081  0.00  0.00    +0.077 C 
ENDBRANCH   6  18
ENDBRANCH   5   9
ENDBRANCH   1   5
BRANCH   3  19
ATOM     19  C   UNL     1       2.422  -4.239  -0.260  0.00  0.00    +0.200 C 
BRANCH  19  20
ATOM     20  C   UNL     1       2.407  -2.737  -0.138  0.00  0.00    +0.234 C 
ATOM     21  O   UNL     1       3.450  -2.118  -0.144  0.00  0.00    -0.274 OA
ATOM     22  N   UNL     1       1.236  -2.081  -0.021  0.00  0.00    -0.284 N 
ATOM     23  H   UNL     1       0.407  -2.579   0.061  0.00  0.00    +0.155 HD
BRANCH  22  24
ATOM     24  C   UNL     1       1.214  -0.681  -0.019  0.00  0.00    +0.034 A 
ATOM     25  C   UNL     1       2.138   0.030  -0.773  0.00  0.00    +0.026 A 
ATOM     26  C   UNL     1       2.115   1.411  -0.769  0.00  0.00    +0.040 A 
ATOM     27  C   UNL     1       1.171   2.087  -0.014  0.00  0.00    +0.124 A 
ATOM     28  C   UNL     1       0.249   1.379   0.740  0.00  0.00    +0.040 A 
ATOM     29  C   UNL     1       0.269  -0.002   0.738  0.00  0.00    +0.026 A 
ATOM     30  F   UNL     1       1.151   3.437  -0.011  0.00  0.00    -0.205 F 
ENDBRANCH  22  24
ENDBRANCH  19  20
ENDBRANCH   3  19
TORSDOF 6
