REMARK  Name = ZINC08670370
REMARK  13 active torsions:
REMARK  status: ('A' for Active; 'I' for Inactive)
REMARK    1  A    between atoms: C_1  and  C_2
REMARK    2  A    between atoms: C_5  and  C_8
REMARK    3  A    between atoms: C_8  and  C_10
REMARK    4  A    between atoms: C_8  and  N_19
REMARK    5  A    between atoms: N_12  and  C_13
REMARK    6  A    between atoms: C_13  and  C_14
REMARK    7  A    between atoms: N_19  and  C_20
REMARK    8  A    between atoms: C_21  and  C_28
REMARK    9  A    between atoms: C_23  and  C_27
REMARK   10  A    between atoms: C_25  and  C_26
REMARK   11  A    between atoms: C_29  and  C_31
REMARK   12  A    between atoms: C_31  and  N_32
REMARK   13  A    between atoms: C_33  and  C_35
REMARK                            x       y       z     vdW  Elec       q    Type
REMARK                         _______ _______ _______ _____ _____    ______ ____
ROOT
ATOM      1  N   UNL     1       1.096  -4.688   1.095  0.00  0.00    -0.254 N 
ATOM      2  C   UNL     1       2.115  -5.556   0.945  0.00  0.00    +0.238 C 
ATOM      3  O   UNL     1       2.478  -5.878  -0.167  0.00  0.00    -0.274 OA
ENDROOT
BRANCH   1   4
ATOM      4  C   UNL     1       0.676  -4.317   2.378  0.00  0.00    +0.043 A 
ATOM      5  C   UNL     1      -0.191  -5.135   3.090  0.00  0.00    -0.029 A 
ATOM      6  C   UNL     1      -0.603  -4.767   4.356  0.00  0.00    +0.008 A 
ATOM      7  C   UNL     1      -0.152  -3.585   4.914  0.00  0.00    -0.050 A 
ATOM      8  C   UNL     1       0.711  -2.768   4.208  0.00  0.00    +0.008 A 
ATOM      9  C   UNL     1       1.131  -3.133   2.944  0.00  0.00    -0.029 A 
ATOM     10  C   UNL     1       2.077  -2.245   2.177  0.00  0.00    +0.046 C 
ATOM     11  C   UNL     1      -0.604  -3.186   6.296  0.00  0.00    +0.044 C 
ATOM     12  C   UNL     1      -0.683  -6.423   2.482  0.00  0.00    +0.046 C 
ENDBRANCH   1   4
BRANCH   1  13
ATOM     13  C   UNL     1       0.427  -4.131  -0.083  0.00  0.00    +0.197 C 
BRANCH  13  18
ATOM     14  C   UNL     1      -3.592  -0.332   1.593  0.00  0.00    +0.044 C 
ATOM     15  C   UNL     1      -2.544  -1.323   1.156  0.00  0.00    -0.050 A 
ATOM     16  C   UNL     1      -1.501  -0.913   0.346  0.00  0.00    +0.004 A 
ATOM     17  C   UNL     1      -0.539  -1.822  -0.054  0.00  0.00    +0.006 A 
ATOM     18  C   UNL     1      -0.621  -3.140   0.355  0.00  0.00    -0.018 A 
ATOM     19  C   UNL     1      -1.663  -3.549   1.165  0.00  0.00    +0.006 A 
ATOM     20  C   UNL     1      -2.622  -2.639   1.570  0.00  0.00    +0.004 A 
ENDBRANCH  13  18
BRANCH  13  21
ATOM     21  C   UNL     1      -0.228  -5.243  -0.862  0.00  0.00    +0.239 C 
ATOM     22  O   UNL     1      -0.161  -6.385  -0.460  0.00  0.00    -0.273 OA
ATOM     23  N   UNL     1      -0.887  -4.968  -2.004  0.00  0.00    -0.306 N 
ATOM     24  H   UNL     1      -0.941  -4.054  -2.326  0.00  0.00    +0.149 HD
BRANCH  23  25
ATOM     25  C   UNL     1      -1.524  -6.049  -2.761  0.00  0.00    +0.178 C 
BRANCH  25  26
ATOM     26  C   UNL     1      -2.188  -5.480  -3.988  0.00  0.00    +0.122 A 
ATOM     27  C   UNL     1      -1.616  -5.333  -5.196  0.00  0.00    +0.046 A 
ATOM     28  C   UNL     1      -2.593  -4.764  -6.046  0.00  0.00    +0.041 A 
ATOM     29  C   UNL     1      -3.704  -4.598  -5.305  0.00  0.00    +0.195 A 
ATOM     30  O   UNL     1      -3.455  -5.038  -4.061  0.00  0.00    -0.466 OA
ENDBRANCH  25  26
ENDBRANCH  23  25
ENDBRANCH  13  21
ENDBRANCH   1  13
BRANCH   2  31
ATOM     31  C   UNL     1       2.802  -6.129   2.157  0.00  0.00    +0.201 C 
BRANCH  31  32
ATOM     32  N   UNL     1       3.867  -7.040   1.730  0.00  0.00    -0.302 N 
ATOM     33  C   UNL     1       4.622  -7.673   2.650  0.00  0.00    +0.251 C 
ATOM     34  O   UNL     1       4.419  -7.488   3.835  0.00  0.00    -0.270 OA
ATOM     35  H   UNL     1       4.029  -7.188   0.785  0.00  0.00    +0.150 HD
BRANCH  33  36
ATOM     36  C   UNL     1       5.687  -8.585   2.222  0.00  0.00    +0.074 A 
ATOM     37  C   UNL     1       6.563  -9.330   2.997  0.00  0.00    +0.021 A 
ATOM     38  C   UNL     1       7.465 -10.102   2.304  0.00  0.00    +0.008 A 
ATOM     39  C   UNL     1       7.440 -10.086   0.948  0.00  0.00    +0.046 A 
ATOM     40  S   UNL     1       6.189  -9.030   0.571  0.00  0.00    -0.092 S 
ENDBRANCH  33  36
ENDBRANCH  31  32
ENDBRANCH   2  31
TORSDOF 9
