REMARK  Name = ZINC09299794
REMARK  12 active torsions:
REMARK  status: ('A' for Active; 'I' for Inactive)
REMARK    1  A    between atoms: C_1  and  C_2
REMARK    2  A    between atoms: C_2  and  C_3
REMARK    3  A    between atoms: C_3  and  N_4
REMARK    4  A    between atoms: N_4  and  C_5
REMARK    5  A    between atoms: N_4  and  S_8
REMARK    6  A    between atoms: C_5  and  C_6
REMARK    7  A    between atoms: C_6  and  C_7
REMARK    8  A    between atoms: S_8  and  C_11
REMARK    9  A    between atoms: C_14  and  C_17
REMARK   10  A    between atoms: C_17  and  N_19
REMARK   11  A    between atoms: N_21  and  C_33
REMARK   12  A    between atoms: C_33  and  C_34
REMARK                            x       y       z     vdW  Elec       q    Type
REMARK                         _______ _______ _______ _____ _____    ______ ____
ROOT
ATOM      1  C   UNL     1       5.666   7.459  -0.841  0.00  0.00    +0.269 C 
ATOM      2  O   UNL     1       6.476   6.614  -0.502  0.00  0.00    -0.268 OA
ENDROOT
BRANCH   1   3
ATOM      3  N   UNL     1       4.371   7.144  -0.934  0.00  0.00    -0.152 NA
ATOM      4  C   UNL     1       3.966   5.909  -0.657  0.00  0.00    +0.167 A 
ATOM      5  N   UNL     1       2.702   5.407  -0.696  0.00  0.00    -0.317 N 
ATOM      6  C   UNL     1       2.472   4.082  -0.370  0.00  0.00    +0.062 A 
ATOM      7  C   UNL     1       1.250   3.392  -0.351  0.00  0.00    +0.076 A 
ATOM      8  C   UNL     1       1.192   2.058   0.002  0.00  0.00    +0.164 A 
ATOM      9  C   UNL     1       2.349   1.364   0.346  0.00  0.00    +0.163 A 
ATOM     10  C   UNL     1       3.567   2.026   0.335  0.00  0.00    +0.066 A 
ATOM     11  C   UNL     1       3.617   3.354  -0.016  0.00  0.00    +0.043 A 
ATOM     12  S   UNL     1       4.921   4.550  -0.159  0.00  0.00    -0.052 S 
ATOM     13  O   UNL     1       2.304   0.049   0.692  0.00  0.00    -0.485 OA
ATOM     14  C   UNL     1       1.020  -0.478   1.048  0.00  0.00    +0.270 C 
ATOM     15  C   UNL     1       0.002  -0.004   0.002  0.00  0.00    +0.270 C 
ATOM     16  O   UNL     1      -0.017   1.427   0.010  0.00  0.00    -0.485 OA
BRANCH   5  17
ATOM     17  C   UNL     1       1.584   6.271  -1.083  0.00  0.00    +0.151 C 
BRANCH  17  18
ATOM     18  C   UNL     1       1.884   7.692  -0.682  0.00  0.00    -0.013 C 
ATOM     19  C   UNL     1       1.842   8.648  -1.577  0.00  0.00    +0.005 C 
ENDBRANCH  17  18
ENDBRANCH   5  17
ENDBRANCH   1   3
BRANCH   1  23
ATOM     20  C   UNL     1       6.962  11.409  -1.727  0.00  0.00    +0.106 A 
ATOM     21  C   UNL     1       7.884  10.451  -1.342  0.00  0.00    +0.029 A 
ATOM     22  C   UNL     1       7.469   9.167  -1.053  0.00  0.00    +0.015 A 
ATOM     23  C   UNL     1       6.118   8.835  -1.149  0.00  0.00    +0.039 A 
ATOM     24  C   UNL     1       5.194   9.804  -1.543  0.00  0.00    +0.015 A 
ATOM     25  C   UNL     1       5.620  11.086  -1.824  0.00  0.00    +0.029 A 
BRANCH  20  26
ATOM     26  S   UNL     1       7.500  13.046  -2.095  0.00  0.00    +0.061 S 
ATOM     27  O   UNL     1       6.377  13.895  -1.903  0.00  0.00    -0.153 OA
ATOM     28  O   UNL     1       8.726  13.236  -1.403  0.00  0.00    -0.153 OA
BRANCH  26  29
ATOM     29  N   UNL     1       7.857  13.092  -3.712  0.00  0.00    -0.177 NA
BRANCH  29  30
ATOM     30  C   UNL     1       6.818  13.448  -4.681  0.00  0.00    +0.109 C 
BRANCH  30  32
ATOM     31  C   UNL     1       5.817  15.315  -6.006  0.00  0.00    +0.005 C 
ATOM     32  C   UNL     1       6.902  14.943  -4.993  0.00  0.00    +0.014 C 
ENDBRANCH  30  32
ENDBRANCH  29  30
BRANCH  29  33
ATOM     33  C   UNL     1       9.211  12.777  -4.172  0.00  0.00    +0.109 C 
BRANCH  33  34
ATOM     34  C   UNL     1       9.284  11.301  -4.571  0.00  0.00    +0.014 C 
ATOM     35  C   UNL     1      10.699  10.972  -5.051  0.00  0.00    +0.005 C 
ENDBRANCH  33  34
ENDBRANCH  29  33
ENDBRANCH  26  29
ENDBRANCH  20  26
ENDBRANCH   1  23
TORSDOF 10
