REMARK  Name = ZINC35486565
REMARK  10 active torsions:
REMARK  status: ('A' for Active; 'I' for Inactive)
REMARK    1  A    between atoms: C_1  and  C_2
REMARK    2  A    between atoms: N_15  and  C_28
REMARK    3  A    between atoms: C_16  and  C_18
REMARK    4  A    between atoms: C_20  and  O_26
REMARK    5  A    between atoms: C_21  and  O_25
REMARK    6  A    between atoms: O_26  and  C_27
REMARK    7  A    between atoms: C_28  and  C_29
REMARK    8  A    between atoms: C_29  and  N_30
REMARK    9  A    between atoms: N_30  and  C_31
REMARK   10  A    between atoms: N_30  and  C_32
REMARK                            x       y       z     vdW  Elec       q    Type
REMARK                         _______ _______ _______ _____ _____    ______ ____
ROOT
ATOM      1  C   UNL     1      -0.018   1.503   0.010  0.00  0.00    +0.044 C 
ATOM      2  C   UNL     1       0.002  -0.004   0.002  0.00  0.00    -0.050 A 
ATOM      3  C   UNL     1       0.006  -0.689  -1.205  0.00  0.00    +0.007 A 
ATOM      4  C   UNL     1       0.021  -2.065  -1.235  0.00  0.00    +0.047 A 
ATOM      5  C   UNL     1       0.035  -2.790  -0.043  0.00  0.00    +0.139 A 
ATOM      6  C   UNL     1       0.037  -2.086   1.172  0.00  0.00    +0.065 A 
ATOM      7  C   UNL     1       0.023  -0.692   1.183  0.00  0.00    +0.018 A 
ATOM      8  C   UNL     1       0.068  -2.849   2.446  0.00  0.00    +0.199 A 
ATOM      9  O   UNL     1      -0.097  -2.332   3.537  0.00  0.00    -0.287 OA
ATOM     10  C   UNL     1       0.314  -4.283   2.265  0.00  0.00    +0.072 A 
ATOM     11  C   UNL     1       0.294  -4.850   1.022  0.00  0.00    +0.199 A 
ATOM     12  O   UNL     1       0.043  -4.141  -0.096  0.00  0.00    -0.450 OA
ATOM     13  C   UNL     1       0.583  -6.288   1.166  0.00  0.00    +0.283 C 
ATOM     14  O   UNL     1       0.643  -7.081   0.247  0.00  0.00    -0.267 OA
ATOM     15  N   UNL     1       0.770  -6.596   2.465  0.00  0.00    -0.285 N 
ATOM     16  C   UNL     1       0.614  -5.362   3.253  0.00  0.00    +0.145 C 
ENDROOT
BRANCH  16  17
ATOM     17  C   UNL     1       1.891  -5.051   3.990  0.00  0.00    -0.018 A 
ATOM     18  C   UNL     1       1.839  -4.537   5.273  0.00  0.00    +0.055 A 
ATOM     19  C   UNL     1       3.012  -4.250   5.953  0.00  0.00    +0.163 A 
ATOM     20  C   UNL     1       4.241  -4.482   5.342  0.00  0.00    +0.173 A 
ATOM     21  C   UNL     1       4.286  -4.997   4.057  0.00  0.00    +0.063 A 
ATOM     22  C   UNL     1       3.111  -5.286   3.385  0.00  0.00    +0.025 A 
ATOM     23 BR   UNL     1       5.954  -5.313   3.223  0.00  0.00    -0.046 Br
BRANCH  20  24
ATOM     24  O   UNL     1       5.395  -4.201   6.005  0.00  0.00    -0.503 OA
ATOM     25  H   UNL     1       5.738  -4.940   6.527  0.00  0.00    +0.292 HD
ENDBRANCH  20  24
BRANCH  19  26
ATOM     26  O   UNL     1       2.962  -3.744   7.214  0.00  0.00    -0.491 OA
ATOM     27  C   UNL     1       1.666  -3.532   7.777  0.00  0.00    +0.277 C 
ENDBRANCH  19  26
ENDBRANCH  16  17
BRANCH  15  28
ATOM     28  C   UNL     1       1.076  -7.926   2.999  0.00  0.00    +0.090 C 
BRANCH  28  29
ATOM     29  C   UNL     1       2.593  -8.120   3.045  0.00  0.00    -0.060 C 
BRANCH  29  30
ATOM     30  N   UNL     1       2.899  -9.454   3.581  0.00  0.00    +0.377 N 
ATOM     31  C   UNL     1       4.348  -9.687   3.514  0.00  0.00    -0.097 C 
ATOM     32  C   UNL     1       2.454  -9.534   4.979  0.00  0.00    -0.097 C 
ATOM     33  H   UNL     1       2.420 -10.154   3.035  0.00  0.00    -0.083 HD
ENDBRANCH  29  30
ENDBRANCH  28  29
ENDBRANCH  15  28
TORSDOF 6
