REMARK  Name = ZINC39686914
REMARK  8 active torsions:
REMARK  status: ('A' for Active; 'I' for Inactive)
REMARK    1  A    between atoms: C_1  and  C_2
REMARK    2  A    between atoms: C_2  and  C_4
REMARK    3  A    between atoms: C_2  and  N_12
REMARK    4  A    between atoms: C_4  and  C_5
REMARK    5  A    between atoms: C_13  and  C_15
REMARK    6  A    between atoms: C_26  and  C_28
REMARK    7  A    between atoms: C_31  and  O_34
REMARK    8  A    between atoms: O_34  and  C_35
REMARK                            x       y       z     vdW  Elec       q    Type
REMARK                         _______ _______ _______ _____ _____    ______ ____
ROOT
ATOM      1  C   UNL     1       0.362  -1.561   3.226  0.00  0.00    +0.100 C 
ATOM      2  C   UNL     1       1.069  -2.935   3.216  0.00  0.00    +0.121 C 
ATOM      3  N   UNL     1       0.898  -3.454   4.593  0.00  0.00    -0.296 N 
ATOM      4  C   UNL     1      -0.483  -3.062   4.966  0.00  0.00    +0.115 C 
ATOM      5  C   UNL     1      -0.656  -1.649   4.375  0.00  0.00    -0.004 C 
ATOM      6  C   UNL     1      -2.074  -1.471   3.840  0.00  0.00    -0.010 C 
ATOM      7  C   UNL     1      -3.063  -1.504   5.008  0.00  0.00    -0.082 C 
ATOM      8  N   UNL     1      -2.739  -0.432   5.957  0.00  0.00    +0.379 N 
ATOM      9  C   UNL     1      -1.410  -0.661   6.537  0.00  0.00    -0.082 C 
ATOM     10  C   UNL     1      -0.350  -0.593   5.433  0.00  0.00    -0.010 C 
ATOM     11  C   UNL     1       1.794  -4.129   5.338  0.00  0.00    +0.247 C 
ATOM     12  O   UNL     1       2.936  -4.264   4.942  0.00  0.00    -0.270 OA
ATOM     13  H   UNL     1      -2.745   0.455   5.476  0.00  0.00    -0.086 HD
ATOM     14  H   UNL     1      -3.428  -0.417   6.694  0.00  0.00    -0.086 HD
ENDROOT
BRANCH  11  15
ATOM     15  C   UNL     1       1.391  -4.705   6.636  0.00  0.00    +0.037 A 
ATOM     16  C   UNL     1       0.041  -4.945   6.907  0.00  0.00    +0.016 A 
ATOM     17  C   UNL     1      -0.331  -5.482   8.119  0.00  0.00    +0.047 A 
ATOM     18  C   UNL     1       0.634  -5.786   9.072  0.00  0.00    +0.130 A 
ATOM     19  C   UNL     1       1.977  -5.549   8.807  0.00  0.00    +0.047 A 
ATOM     20  C   UNL     1       2.358  -5.017   7.595  0.00  0.00    +0.016 A 
BRANCH  18  21
ATOM     21  O   UNL     1       0.263  -6.315  10.266  0.00  0.00    -0.406 OA
BRANCH  21  22
ATOM     22  C   UNL     1       1.305  -6.603  11.200  0.00  0.00    +0.575 C 
ATOM     23  F   UNL     1       1.994  -5.424  11.509  0.00  0.00    -0.133 F 
ATOM     24  F   UNL     1       0.750  -7.138  12.367  0.00  0.00    -0.133 F 
ATOM     25  F   UNL     1       2.192  -7.527  10.639  0.00  0.00    -0.133 F 
ENDBRANCH  21  22
ENDBRANCH  18  21
ENDBRANCH  11  15
BRANCH   1  27
ATOM     26  N   UNL     1      -0.493  -0.069   1.447  0.00  0.00    -0.312 N 
ATOM     27  C   UNL     1      -0.344  -1.324   1.916  0.00  0.00    +0.218 C 
ATOM     28  O   UNL     1      -0.779  -2.263   1.283  0.00  0.00    -0.275 OA
ATOM     29  H   UNL     1      -0.145   0.682   1.953  0.00  0.00    +0.149 HD
BRANCH  26  31
ATOM     30  C   UNL     1      -2.690   0.228   0.413  0.00  0.00    +0.028 C 
ATOM     31  C   UNL     1      -1.180   0.160   0.174  0.00  0.00    +0.074 C 
BRANCH  31  32
ATOM     32  C   UNL     1      -0.701   1.480  -0.434  0.00  0.00    +0.060 C 
BRANCH  32  33
ATOM     33  C   UNL     1       0.761   1.371  -0.783  0.00  0.00    -0.010 A 
ATOM     34  C   UNL     1       1.720   1.808   0.111  0.00  0.00    +0.006 A 
ATOM     35  C   UNL     1       3.061   1.708  -0.210  0.00  0.00    +0.000 A 
ATOM     36  C   UNL     1       3.444   1.170  -1.425  0.00  0.00    +0.003 A 
ATOM     37  C   UNL     1       2.487   0.731  -2.319  0.00  0.00    +0.038 A 
ATOM     38  C   UNL     1       1.144   0.827  -1.997  0.00  0.00    +0.127 A 
ATOM     39  F   UNL     1       0.207   0.394  -2.869  0.00  0.00    -0.205 F 
ENDBRANCH  32  33
ENDBRANCH  31  32
ENDBRANCH  26  31
ENDBRANCH   1  27
TORSDOF 7
