REMARK  Name = ZINC21254755
REMARK  8 active torsions:
REMARK  status: ('A' for Active; 'I' for Inactive)
REMARK    1  A    between atoms: C_1  and  N_2
REMARK    2  A    between atoms: N_2  and  C_3
REMARK    3  A    between atoms: N_2  and  C_4
REMARK    4  A    between atoms: C_7  and  C_10
REMARK    5  A    between atoms: C_15  and  C_25
REMARK    6  A    between atoms: C_28  and  O_32
REMARK    7  A    between atoms: C_29  and  O_31
REMARK    8  A    between atoms: O_32  and  C_33
REMARK                            x       y       z     vdW  Elec       q    Type
REMARK                         _______ _______ _______ _____ _____    ______ ____
ROOT
ATOM      1  C   UNL     1       1.178   2.009  -0.286  0.00  0.00    +0.032 C 
ATOM      2  C   UNL     1      -0.221   1.400  -0.203  0.00  0.00    +0.059 C 
ATOM      3  C   UNL     1      -0.122  -0.114  -0.112  0.00  0.00    +0.017 C 
ATOM      4  C   UNL     1       0.919  -0.692   0.511  0.00  0.00    +0.036 C 
ATOM      5  C   UNL     1       1.137  -2.178   0.677  0.00  0.00    +0.136 C 
ATOM      6  N   UNL     1      -0.007  -2.996   0.337  0.00  0.00    -0.331 N 
ATOM      7  C   UNL     1      -0.491  -3.046  -0.970  0.00  0.00    +0.049 A 
ATOM      8  C   UNL     1      -0.393  -4.197  -1.733  0.00  0.00    +0.025 A 
ATOM      9  C   UNL     1      -0.783  -4.168  -3.061  0.00  0.00    +0.002 A 
ATOM     10  C   UNL     1      -1.269  -3.001  -3.622  0.00  0.00    +0.002 A 
ATOM     11  C   UNL     1      -1.389  -1.854  -2.855  0.00  0.00    +0.025 A 
ATOM     12  C   UNL     1      -1.015  -1.887  -1.523  0.00  0.00    +0.052 A 
ATOM     13  N   UNL     1      -1.153  -0.787  -0.684  0.00  0.00    -0.316 N 
ATOM     14  C   UNL     1       1.944   0.104   1.073  0.00  0.00    +0.163 C 
ATOM     15  O   UNL     1       2.861  -0.445   1.653  0.00  0.00    -0.292 OA
ATOM     16  C   UNL     1       1.940   1.600   0.980  0.00  0.00    +0.088 C 
ATOM     17  H   UNL     1      -0.508  -3.591   1.114  0.00  0.00    +0.147 HD
ATOM     18  H   UNL     1      -2.189  -0.471  -0.496  0.00  0.00    +0.152 HD
ENDROOT
BRANCH   1  22
ATOM     19  C   UNL     1       0.893   6.268  -0.495  0.00  0.00    +0.029 A 
ATOM     20  C   UNL     1       1.501   5.559  -1.524  0.00  0.00    +0.023 A 
ATOM     21  C   UNL     1       1.591   4.183  -1.453  0.00  0.00    +0.006 A 
ATOM     22  C   UNL     1       1.077   3.510  -0.360  0.00  0.00    -0.043 A 
ATOM     23  C   UNL     1       0.467   4.212   0.663  0.00  0.00    +0.006 A 
ATOM     24  C   UNL     1       0.378   5.589   0.602  0.00  0.00    +0.023 A 
BRANCH  19  26
ATOM     25  C   UNL     1       1.345   8.374  -1.721  0.00  0.00    +0.129 C 
ATOM     26  N   UNL     1       0.801   7.660  -0.564  0.00  0.00    -0.336 N 
ATOM     27  C   UNL     1       0.160   8.406   0.522  0.00  0.00    +0.129 C 
ENDBRANCH  19  26
ENDBRANCH   1  22
BRANCH   5  28
ATOM     28  C   UNL     1       2.295  -2.587  -0.197  0.00  0.00    -0.019 A 
ATOM     29  C   UNL     1       2.189  -2.486  -1.572  0.00  0.00    +0.009 A 
ATOM     30  C   UNL     1       3.248  -2.859  -2.378  0.00  0.00    +0.050 A 
ATOM     31  C   UNL     1       4.418  -3.336  -1.809  0.00  0.00    +0.161 A 
ATOM     32  C   UNL     1       4.524  -3.438  -0.426  0.00  0.00    +0.159 A 
ATOM     33  C   UNL     1       3.461  -3.057   0.377  0.00  0.00    +0.055 A 
BRANCH  32  34
ATOM     34  O   UNL     1       5.670  -3.905   0.138  0.00  0.00    -0.503 OA
ATOM     35  H   UNL     1       5.752  -3.985   1.232  0.00  0.00    +0.292 HD
ENDBRANCH  32  34
BRANCH  31  36
ATOM     36  O   UNL     1       5.461  -3.703  -2.601  0.00  0.00    -0.491 OA
ATOM     37  C   UNL     1       5.282  -3.571  -4.013  0.00  0.00    +0.277 C 
ENDBRANCH  31  36
ENDBRANCH   5  28
TORSDOF 5
