REMARK  Name = ZINC20763475
REMARK  5 active torsions:
REMARK  status: ('A' for Active; 'I' for Inactive)
REMARK    1  A    between atoms: C_7  and  C_11
REMARK    2  A    between atoms: C_11  and  C_12
REMARK    3  A    between atoms: C_12  and  N_13
REMARK    4  A    between atoms: C_14  and  C_16
REMARK    5  A    between atoms: C_16  and  C_17
REMARK                            x       y       z     vdW  Elec       q    Type
REMARK                         _______ _______ _______ _____ _____    ______ ____
ROOT
ATOM      1  N   UNL     1      -0.675  -4.736  -1.452  0.00  0.00    -0.315 N 
ATOM      2  C   UNL     1      -1.186  -5.195  -2.612  0.00  0.00    +0.215 C 
ATOM      3  O   UNL     1      -0.891  -4.657  -3.659  0.00  0.00    -0.276 OA
ATOM      4  H   UNL     1      -0.911  -5.166  -0.615  0.00  0.00    +0.149 HD
ENDROOT
BRANCH   1   5
ATOM      5  C   UNL     1       0.236  -3.589  -1.455  0.00  0.00    +0.109 C 
BRANCH   5   6
ATOM      6  C   UNL     1       0.666  -3.275  -0.021  0.00  0.00    +0.056 C 
BRANCH   6  13
ATOM      7  C   UNL     1      -0.017   1.362   0.009  0.00  0.00    +0.001 A 
ATOM      8  C   UNL     1       1.170   2.083   0.002  0.00  0.00    +0.002 A 
ATOM      9  C   UNL     1       2.386   1.436  -0.013  0.00  0.00    +0.026 A 
ATOM     10  C   UNL     1       2.428   0.046  -0.021  0.00  0.00    +0.047 A 
ATOM     11  C   UNL     1       1.223  -0.681  -0.013  0.00  0.00    +0.003 A 
ATOM     12  C   UNL     1       0.002  -0.004   0.002  0.00  0.00    +0.010 A 
ATOM     13  C   UNL     1       1.604  -2.095  -0.025  0.00  0.00    -0.021 A 
ATOM     14  C   UNL     1       2.945  -2.141  -0.038  0.00  0.00    +0.087 A 
ATOM     15  N   UNL     1       3.455  -0.871  -0.036  0.00  0.00    -0.360 N 
ATOM     16  H   UNL     1       4.399  -0.650  -0.044  0.00  0.00    +0.165 HD
ENDBRANCH   6  13
ENDBRANCH   5   6
ENDBRANCH   1   5
BRANCH   2  17
ATOM     17  C   UNL     1      -2.123  -6.375  -2.609  0.00  0.00    +0.127 C 
BRANCH  17  18
ATOM     18  C   UNL     1      -2.553  -6.689  -4.043  0.00  0.00    +0.168 C 
ATOM     19  C   UNL     1      -3.394  -7.935  -4.055  0.00  0.00    +0.238 C 
ATOM     20  O   UNL     1      -3.058  -8.866  -4.756  0.00  0.00    -0.273 OA
ATOM     21  N   UNL     1      -4.497  -8.047  -3.320  0.00  0.00    -0.283 N 
ATOM     22  C   UNL     1      -4.978  -7.095  -2.439  0.00  0.00    +0.046 A 
ATOM     23  C   UNL     1      -5.489  -7.549  -1.221  0.00  0.00    +0.024 A 
ATOM     24  C   UNL     1      -5.989  -6.662  -0.294  0.00  0.00    +0.002 A 
ATOM     25  C   UNL     1      -5.992  -5.303  -0.563  0.00  0.00    +0.001 A 
ATOM     26  C   UNL     1      -5.493  -4.836  -1.755  0.00  0.00    +0.015 A 
ATOM     27  C   UNL     1      -4.976  -5.727  -2.710  0.00  0.00    +0.058 A 
ATOM     28  C   UNL     1      -4.449  -5.157  -3.956  0.00  0.00    +0.246 C 
ATOM     29  O   UNL     1      -5.064  -4.238  -4.462  0.00  0.00    -0.270 OA
ATOM     30  N   UNL     1      -3.343  -5.577  -4.572  0.00  0.00    -0.300 N 
ATOM     31  H   UNL     1      -5.008  -8.867  -3.409  0.00  0.00    +0.155 HD
ATOM     32  H   UNL     1      -3.056  -5.138  -5.388  0.00  0.00    +0.150 HD
ENDBRANCH  17  18
ENDBRANCH   2  17
TORSDOF 5
