REMARK  Name = ZINC23471862
REMARK  8 active torsions:
REMARK  status: ('A' for Active; 'I' for Inactive)
REMARK    1  A    between atoms: C_1  and  C_2
REMARK    2  A    between atoms: C_2  and  N_3
REMARK    3  A    between atoms: C_4  and  C_6
REMARK    4  A    between atoms: C_9  and  N_12
REMARK    5  A    between atoms: N_20  and  C_23
REMARK    6  A    between atoms: C_23  and  N_24
REMARK    7  A    between atoms: N_27  and  C_30
REMARK    8  A    between atoms: C_30  and  C_31
REMARK                            x       y       z     vdW  Elec       q    Type
REMARK                         _______ _______ _______ _____ _____    ______ ____
ROOT
ATOM      1  N   UNL     1      -3.109   4.802   0.056  0.00  0.00    -0.242 NA
ATOM      2  C   UNL     1      -2.640   3.577   0.046  0.00  0.00    +0.135 C 
ATOM      3  C   UNL     1      -1.224   3.155   0.030  0.00  0.00    +0.027 A 
ATOM      4  C   UNL     1      -0.021   3.856   0.022  0.00  0.00    +0.012 A 
ATOM      5  C   UNL     1       1.174   3.166   0.008  0.00  0.00    +0.001 A 
ATOM      6  C   UNL     1       1.175   1.781   0.000  0.00  0.00    +0.002 A 
ATOM      7  C   UNL     1      -0.013   1.076   0.008  0.00  0.00    +0.024 A 
ATOM      8  C   UNL     1      -1.226   1.753   0.017  0.00  0.00    +0.047 A 
ATOM      9  N   UNL     1      -2.539   1.292   0.033  0.00  0.00    -0.252 N 
ATOM     10  C   UNL     1      -3.417   2.309   0.047  0.00  0.00    +0.271 C 
ATOM     11  O   UNL     1      -4.628   2.211   0.058  0.00  0.00    -0.268 OA
ENDROOT
BRANCH   1  15
ATOM     12  C   UNL     1      -7.183   5.450   0.100  0.00  0.00    +0.037 A 
ATOM     13  C   UNL     1      -6.350   6.182   0.951  0.00  0.00    +0.015 A 
ATOM     14  C   UNL     1      -5.001   5.969   0.939  0.00  0.00    +0.028 A 
ATOM     15  C   UNL     1      -4.452   5.016   0.071  0.00  0.00    +0.065 A 
ATOM     16  C   UNL     1      -5.287   4.287  -0.786  0.00  0.00    +0.028 A 
ATOM     17  C   UNL     1      -6.637   4.499  -0.766  0.00  0.00    +0.015 A 
BRANCH  12  19
ATOM     18  N   UNL     1      -9.445   4.977  -0.705  0.00  0.00    -0.312 N 
ATOM     19  C   UNL     1      -8.642   5.683   0.116  0.00  0.00    +0.244 C 
ATOM     20  O   UNL     1      -9.118   6.509   0.869  0.00  0.00    -0.270 OA
ATOM     21  H   UNL     1      -9.015   4.229  -1.387  0.00  0.00    +0.149 HD
BRANCH  18  23
ATOM     22  C   UNL     1     -11.566   4.285  -1.707  0.00  0.00    +0.024 C 
ATOM     23  C   UNL     1     -10.892   5.207  -0.689  0.00  0.00    +0.101 C 
ENDBRANCH  18  23
ENDBRANCH  12  19
ENDBRANCH   1  15
BRANCH   9  24
ATOM     24  C   UNL     1      -2.917  -0.124   0.028  0.00  0.00    +0.200 C 
BRANCH  24  25
ATOM     25  N   UNL     1      -3.057  -0.589  -1.359  0.00  0.00    -0.290 NA
ATOM     26  C   UNL     1      -4.366  -0.214  -1.910  0.00  0.00    +0.067 C 
ATOM     27  C   UNL     1      -4.441  -0.646  -3.377  0.00  0.00    -0.063 C 
ATOM     28  N   UNL     1      -4.229  -2.097  -3.469  0.00  0.00    +0.384 N 
ATOM     29  C   UNL     1      -2.920  -2.471  -2.918  0.00  0.00    -0.063 C 
ATOM     30  C   UNL     1      -2.845  -2.040  -1.451  0.00  0.00    +0.067 C 
ATOM     31  H   UNL     1      -5.006  -2.592  -2.868  0.00  0.00    -0.081 HD
BRANCH  28  32
ATOM     32  C   UNL     1      -4.369  -2.562  -4.856  0.00  0.00    -0.043 C 
BRANCH  32  33
ATOM     33  C   UNL     1      -5.607  -1.956  -5.467  0.00  0.00    -0.064 A 
ATOM     34  C   UNL     1      -6.818  -2.616  -5.373  0.00  0.00    +0.002 A 
ATOM     35  C   UNL     1      -7.954  -2.058  -5.929  0.00  0.00    +0.000 A 
ATOM     36  C   UNL     1      -7.877  -0.845  -6.587  0.00  0.00    +0.000 A 
ATOM     37  C   UNL     1      -6.665  -0.188  -6.686  0.00  0.00    +0.000 A 
ATOM     38  C   UNL     1      -5.530  -0.743  -6.125  0.00  0.00    +0.002 A 
ENDBRANCH  32  33
ENDBRANCH  28  32
ENDBRANCH  24  25
ENDBRANCH   9  24
TORSDOF 7
