REMARK  Name = ZINC59170426
REMARK  6 active torsions:
REMARK  status: ('A' for Active; 'I' for Inactive)
REMARK    1  A    between atoms: C_1  and  C_2
REMARK    2  A    between atoms: C_6  and  N_8
REMARK    3  A    between atoms: C_9  and  C_11
REMARK    4  A    between atoms: N_25  and  C_26
REMARK    5  A    between atoms: C_29  and  S_32
REMARK    6  A    between atoms: S_32  and  N_35
REMARK                            x       y       z     vdW  Elec       q    Type
REMARK                         _______ _______ _______ _____ _____    ______ ____
ROOT
ATOM      1  C   UNL     1      -0.184  -4.857   3.638  0.00  0.00    +0.098 A 
ATOM      2  C   UNL     1      -0.154  -6.248   3.647  0.00  0.00    +0.030 A 
ATOM      3  C   UNL     1      -0.221  -6.906   4.894  0.00  0.00    +0.026 A 
ATOM      4  C   UNL     1       0.025  -8.346   4.995  0.00  0.00    -0.007 A 
ATOM      5  C   UNL     1       0.313  -9.122   3.869  0.00  0.00    +0.009 A 
ATOM      6  C   UNL     1       0.536 -10.461   4.010  0.00  0.00    +0.001 A 
ATOM      7  C   UNL     1       0.480 -11.065   5.262  0.00  0.00    +0.001 A 
ATOM      8  C   UNL     1       0.202 -10.337   6.380  0.00  0.00    +0.008 A 
ATOM      9  C   UNL     1      -0.032  -8.957   6.271  0.00  0.00    -0.017 A 
ATOM     10  C   UNL     1      -0.321  -8.172   7.404  0.00  0.00    +0.012 A 
ATOM     11  C   UNL     1      -0.557  -6.840   7.294  0.00  0.00    +0.047 A 
ATOM     12  C   UNL     1      -0.520  -6.187   6.059  0.00  0.00    +0.138 A 
ATOM     13  O   UNL     1      -0.797  -4.863   5.983  0.00  0.00    -0.439 OA
ATOM     14  C   UNL     1      -0.245  -4.178   4.946  0.00  0.00    +0.212 A 
ATOM     15  N   UNL     1       0.214  -2.953   5.100  0.00  0.00    -0.325 N 
ATOM     16  H   UNL     1       0.702  -2.524   4.380  0.00  0.00    +0.169 HD
ENDROOT
BRANCH  15  17
ATOM     17  C   UNL     1       0.003  -2.288   6.276  0.00  0.00    +0.042 A 
ATOM     18  C   UNL     1      -1.256  -2.314   6.882  0.00  0.00    +0.027 A 
ATOM     19  C   UNL     1      -1.461  -1.641   8.068  0.00  0.00    +0.030 A 
ATOM     20  C   UNL     1      -0.423  -0.940   8.657  0.00  0.00    +0.105 A 
ATOM     21  C   UNL     1       0.826  -0.908   8.063  0.00  0.00    +0.030 A 
ATOM     22  C   UNL     1       1.047  -1.582   6.880  0.00  0.00    +0.027 A 
BRANCH  20  23
ATOM     23  S   UNL     1      -0.695  -0.082  10.172  0.00  0.00    +0.056 S 
ATOM     24  O   UNL     1       0.284   0.946  10.238  0.00  0.00    -0.153 OA
ATOM     25  O   UNL     1      -2.088   0.187  10.243  0.00  0.00    -0.153 OA
BRANCH  23  26
ATOM     26  N   UNL     1      -0.354  -1.139  11.401  0.00  0.00    -0.204 NA
ATOM     27  H   UNL     1      -0.065  -2.042  11.198  0.00  0.00    +0.144 HD
ATOM     28  H   UNL     1      -0.443  -0.854  12.324  0.00  0.00    +0.144 HD
ENDBRANCH  23  26
ENDBRANCH  20  23
ENDBRANCH  15  17
BRANCH   1  30
ATOM     29  N   UNL     1      -0.323  -2.761   2.393  0.00  0.00    -0.281 N 
ATOM     30  C   UNL     1      -0.151  -4.098   2.378  0.00  0.00    +0.253 C 
ATOM     31  O   UNL     1       0.032  -4.676   1.324  0.00  0.00    -0.270 OA
ATOM     32  H   UNL     1      -0.414  -2.293   3.238  0.00  0.00    +0.155 HD
BRANCH  29  38
ATOM     33  C   UNL     1      -2.141   0.964  -0.250  0.00  0.00    +0.044 C 
ATOM     34  C   UNL     1      -1.242  -0.239  -0.118  0.00  0.00    -0.049 A 
ATOM     35  C   UNL     1      -0.463  -0.639  -1.188  0.00  0.00    +0.003 A 
ATOM     36  C   UNL     1       0.363  -1.742  -1.072  0.00  0.00    +0.002 A 
ATOM     37  C   UNL     1       0.412  -2.448   0.115  0.00  0.00    +0.023 A 
ATOM     38  C   UNL     1      -0.370  -2.049   1.191  0.00  0.00    +0.034 A 
ATOM     39  C   UNL     1      -1.194  -0.936   1.072  0.00  0.00    +0.026 A 
ENDBRANCH  29  38
ENDBRANCH   1  30
TORSDOF 5
