REMARK  Name = ZINC39688449
REMARK  6 active torsions:
REMARK  status: ('A' for Active; 'I' for Inactive)
REMARK    1  A    between atoms: C_1  and  C_2
REMARK    2  A    between atoms: C_2  and  C_4
REMARK    3  A    between atoms: C_2  and  N_12
REMARK    4  A    between atoms: C_4  and  C_5
REMARK    5  A    between atoms: C_13  and  C_15
REMARK    6  A    between atoms: C_26  and  C_28
REMARK                            x       y       z     vdW  Elec       q    Type
REMARK                         _______ _______ _______ _____ _____    ______ ____
ROOT
ATOM      1  C   UNL     1       2.544  -3.726  -2.571  0.00  0.00    +0.100 C 
ATOM      2  C   UNL     1       1.338  -4.494  -1.985  0.00  0.00    +0.121 C 
ATOM      3  N   UNL     1       0.162  -3.945  -2.700  0.00  0.00    -0.296 N 
ATOM      4  C   UNL     1       0.628  -3.766  -4.095  0.00  0.00    +0.115 C 
ATOM      5  C   UNL     1       2.075  -3.253  -3.957  0.00  0.00    -0.004 C 
ATOM      6  C   UNL     1       2.956  -3.856  -5.047  0.00  0.00    -0.010 C 
ATOM      7  C   UNL     1       2.507  -3.325  -6.412  0.00  0.00    -0.082 C 
ATOM      8  N   UNL     1       2.609  -1.861  -6.427  0.00  0.00    +0.379 N 
ATOM      9  C   UNL     1       1.690  -1.285  -5.439  0.00  0.00    -0.082 C 
ATOM     10  C   UNL     1       2.104  -1.729  -4.033  0.00  0.00    -0.010 C 
ATOM     11  C   UNL     1      -1.057  -3.671  -2.194  0.00  0.00    +0.247 C 
ATOM     12  O   UNL     1      -1.942  -3.271  -2.925  0.00  0.00    -0.270 OA
ATOM     13  H   UNL     1       3.555  -1.589  -6.203  0.00  0.00    -0.086 HD
ATOM     14  H   UNL     1       2.372  -1.518  -7.346  0.00  0.00    -0.086 HD
ENDROOT
BRANCH  11  15
ATOM     15  C   UNL     1      -1.318  -3.856  -0.751  0.00  0.00    +0.037 A 
ATOM     16  C   UNL     1      -0.779  -2.948   0.177  0.00  0.00    +0.013 A 
ATOM     17  C   UNL     1      -1.004  -3.097   1.507  0.00  0.00    +0.009 A 
ATOM     18  C   UNL     1      -1.785  -4.170   1.973  0.00  0.00    -0.018 A 
ATOM     19  C   UNL     1      -2.032  -4.345   3.345  0.00  0.00    +0.008 A 
ATOM     20  C   UNL     1      -2.792  -5.393   3.766  0.00  0.00    +0.001 A 
ATOM     21  C   UNL     1      -3.332  -6.300   2.856  0.00  0.00    +0.001 A 
ATOM     22  C   UNL     1      -3.114  -6.163   1.520  0.00  0.00    +0.008 A 
ATOM     23  C   UNL     1      -2.334  -5.093   1.047  0.00  0.00    -0.017 A 
ATOM     24  C   UNL     1      -2.096  -4.919  -0.325  0.00  0.00    +0.021 A 
ENDBRANCH  11  15
BRANCH   1  26
ATOM     25  N   UNL     1       4.135  -2.037  -1.713  0.00  0.00    -0.312 N 
ATOM     26  C   UNL     1       2.886  -2.544  -1.701  0.00  0.00    +0.218 C 
ATOM     27  O   UNL     1       2.037  -2.049  -0.990  0.00  0.00    -0.275 OA
ATOM     28  H   UNL     1       4.825  -2.461  -2.246  0.00  0.00    +0.149 HD
BRANCH  25  30
ATOM     29  C   UNL     1       4.083   0.408  -1.718  0.00  0.00    +0.028 C 
ATOM     30  C   UNL     1       4.449  -0.845  -0.921  0.00  0.00    +0.074 C 
BRANCH  30  31
ATOM     31  C   UNL     1       5.945  -0.827  -0.600  0.00  0.00    +0.057 C 
BRANCH  31  32
ATOM     32  C   UNL     1       6.422  -2.233  -0.345  0.00  0.00    -0.045 A 
ATOM     33  C   UNL     1       6.267  -2.799   0.907  0.00  0.00    +0.006 A 
ATOM     34  C   UNL     1       6.703  -4.089   1.142  0.00  0.00    +0.038 A 
ATOM     35  C   UNL     1       7.296  -4.815   0.122  0.00  0.00    +0.123 A 
ATOM     36  C   UNL     1       7.450  -4.247  -1.131  0.00  0.00    +0.038 A 
ATOM     37  C   UNL     1       7.008  -2.959  -1.365  0.00  0.00    +0.006 A 
ATOM     38  F   UNL     1       7.723  -6.076   0.351  0.00  0.00    -0.205 F 
ENDBRANCH  31  32
ENDBRANCH  30  31
ENDBRANCH  25  30
ENDBRANCH   1  26
TORSDOF 5
