REMARK  Name = ZINC00903934
REMARK  10 active torsions:
REMARK  status: ('A' for Active; 'I' for Inactive)
REMARK    1  A    between atoms: C_1  and  C_2
REMARK    2  A    between atoms: C_5  and  N_8
REMARK    3  A    between atoms: N_8  and  C_9
REMARK    4  A    between atoms: C_9  and  C_11
REMARK    5  A    between atoms: C_9  and  C_16
REMARK    6  A    between atoms: N_18  and  C_19
REMARK    7  A    between atoms: C_19  and  C_20
REMARK    8  A    between atoms: C_26  and  C_28
REMARK    9  A    between atoms: C_28  and  N_29
REMARK   10  A    between atoms: C_31  and  C_34
REMARK                            x       y       z     vdW  Elec       q    Type
REMARK                         _______ _______ _______ _____ _____    ______ ____
ROOT
ATOM      1  N   UNL     1      -0.373  -3.567   0.413  0.00  0.00    -0.253 N 
ATOM      2  C   UNL     1      -0.468  -3.854  -0.900  0.00  0.00    +0.244 C 
ATOM      3  O   UNL     1      -0.641  -5.000  -1.259  0.00  0.00    -0.273 OA
ENDROOT
BRANCH   1   8
ATOM      4  C   UNL     1      -0.017   1.832   2.118  0.00  0.00    +0.044 C 
ATOM      5  C   UNL     1      -0.112   0.398   1.665  0.00  0.00    -0.050 A 
ATOM      6  C   UNL     1       0.487   0.007   0.481  0.00  0.00    +0.005 A 
ATOM      7  C   UNL     1       0.402  -1.307   0.063  0.00  0.00    +0.024 A 
ATOM      8  C   UNL     1      -0.285  -2.236   0.834  0.00  0.00    +0.038 A 
ATOM      9  C   UNL     1      -0.884  -1.840   2.023  0.00  0.00    +0.024 A 
ATOM     10  C   UNL     1      -0.791  -0.526   2.437  0.00  0.00    +0.005 A 
ENDBRANCH   1   8
BRANCH   1  11
ATOM     11  C   UNL     1      -0.362  -4.650   1.401  0.00  0.00    +0.204 C 
BRANCH  11  12
ATOM     12  C   UNL     1      -1.775  -4.949   1.833  0.00  0.00    +0.019 A 
ATOM     13  C   UNL     1      -2.275  -6.078   2.391  0.00  0.00    +0.013 A 
ATOM     14  C   UNL     1      -3.619  -6.129   2.711  0.00  0.00    +0.008 A 
ATOM     15  C   UNL     1      -4.396  -5.048   2.457  0.00  0.00    +0.045 A 
ATOM     16  S   UNL     1      -3.221  -3.905   1.751  0.00  0.00    -0.099 S 
ENDBRANCH  11  12
BRANCH  11  17
ATOM     17  C   UNL     1       0.451  -4.229   2.598  0.00  0.00    +0.239 C 
ATOM     18  O   UNL     1       0.971  -3.134   2.624  0.00  0.00    -0.273 OA
ATOM     19  N   UNL     1       0.601  -5.071   3.640  0.00  0.00    -0.311 N 
ATOM     20  H   UNL     1       0.185  -5.947   3.619  0.00  0.00    +0.149 HD
BRANCH  19  21
ATOM     21  C   UNL     1       1.392  -4.663   4.803  0.00  0.00    +0.135 C 
BRANCH  21  22
ATOM     22  C   UNL     1       1.403  -5.793   5.835  0.00  0.00    +0.135 C 
ATOM     23  C   UNL     1       2.206  -5.368   7.090  0.00  0.00    +0.035 C 
ATOM     24  C   UNL     1       1.573  -6.287   8.170  0.00  0.00    +0.031 C 
ATOM     25  C   UNL     1       0.104  -6.377   7.703  0.00  0.00    +0.160 C 
ATOM     26  O   UNL     1       0.071  -6.049   6.308  0.00  0.00    -0.375 OA
ENDBRANCH  21  22
ENDBRANCH  19  21
ENDBRANCH  11  17
ENDBRANCH   1  11
BRANCH   2  27
ATOM     27  C   UNL     1      -0.358  -2.752  -1.922  0.00  0.00    +0.264 C 
BRANCH  27  28
ATOM     28  N   UNL     1      -1.241  -3.046  -3.053  0.00  0.00    -0.154 N 
ATOM     29  N   UNL     1      -0.911  -3.718  -4.102  0.00  0.00    -0.130 NA
ATOM     30  C   UNL     1      -1.964  -3.772  -4.894  0.00  0.00    +0.205 A 
ATOM     31  N   UNL     1      -2.945  -3.101  -4.275  0.00  0.00    -0.108 NA
ATOM     32  N   UNL     1      -2.470  -2.677  -3.153  0.00  0.00    -0.045 NA
BRANCH  30  33
ATOM     33  C   UNL     1      -2.046  -4.445  -6.215  0.00  0.00    +0.023 A 
ATOM     34  C   UNL     1      -0.936  -5.112  -6.729  0.00  0.00    +0.013 A 
ATOM     35  C   UNL     1      -1.017  -5.736  -7.957  0.00  0.00    +0.021 A 
ATOM     36  C   UNL     1      -2.199  -5.701  -8.678  0.00  0.00    +0.041 A 
ATOM     37  C   UNL     1      -3.304  -5.040  -8.170  0.00  0.00    +0.021 A 
ATOM     38  C   UNL     1      -3.234  -4.417  -6.940  0.00  0.00    +0.013 A 
ATOM     39 CL   UNL     1      -2.295  -6.487 -10.222  0.00  0.00    -0.084 Cl
ENDBRANCH  30  33
ENDBRANCH  27  28
ENDBRANCH   2  27
TORSDOF 9
