REMARK  Name = ZINC39665100
REMARK  7 active torsions:
REMARK  status: ('A' for Active; 'I' for Inactive)
REMARK    1  A    between atoms: C_1  and  C_2
REMARK    2  A    between atoms: C_2  and  C_4
REMARK    3  A    between atoms: C_2  and  O_29
REMARK    4  A    between atoms: C_4  and  N_5
REMARK    5  A    between atoms: C_6  and  C_8
REMARK    6  A    between atoms: C_19  and  C_21
REMARK    7  A    between atoms: O_29  and  C_30
REMARK                            x       y       z     vdW  Elec       q    Type
REMARK                         _______ _______ _______ _____ _____    ______ ____
ROOT
ATOM      1  C   UNL     1       0.908  -3.869  -2.330  0.00  0.00    +0.100 C 
ATOM      2  C   UNL     1       1.523  -4.492  -1.057  0.00  0.00    +0.121 C 
ATOM      3  N   UNL     1       2.184  -5.732  -1.529  0.00  0.00    -0.296 N 
ATOM      4  C   UNL     1       2.790  -5.354  -2.829  0.00  0.00    +0.115 C 
ATOM      5  C   UNL     1       1.743  -4.436  -3.490  0.00  0.00    -0.004 C 
ATOM      6  C   UNL     1       2.436  -3.305  -4.245  0.00  0.00    -0.010 C 
ATOM      7  C   UNL     1       3.213  -3.889  -5.429  0.00  0.00    -0.082 C 
ATOM      8  N   UNL     1       2.289  -4.604  -6.318  0.00  0.00    +0.379 N 
ATOM      9  C   UNL     1       1.698  -5.746  -5.611  0.00  0.00    -0.082 C 
ATOM     10  C   UNL     1       0.857  -5.241  -4.435  0.00  0.00    -0.010 C 
ATOM     11  C   UNL     1       2.225  -6.931  -0.916  0.00  0.00    +0.247 C 
ATOM     12  O   UNL     1       1.585  -7.116   0.100  0.00  0.00    -0.270 OA
ATOM     13  H   UNL     1       1.556  -3.976  -6.614  0.00  0.00    -0.086 HD
ATOM     14  H   UNL     1       2.792  -4.934  -7.128  0.00  0.00    -0.086 HD
ENDROOT
BRANCH  11  15
ATOM     15  C   UNL     1       3.050  -8.021  -1.479  0.00  0.00    +0.040 A 
ATOM     16  C   UNL     1       4.149  -7.723  -2.286  0.00  0.00    +0.033 A 
ATOM     17  C   UNL     1       4.915  -8.746  -2.809  0.00  0.00    +0.043 A 
ATOM     18  C   UNL     1       4.595 -10.065  -2.535  0.00  0.00    +0.040 A 
ATOM     19  C   UNL     1       3.506 -10.367  -1.736  0.00  0.00    +0.043 A 
ATOM     20  C   UNL     1       2.736  -9.352  -1.202  0.00  0.00    +0.033 A 
ATOM     21 CL   UNL     1       3.112 -12.023  -1.398  0.00  0.00    -0.083 Cl
ATOM     22 CL   UNL     1       6.282  -8.377  -3.814  0.00  0.00    -0.083 Cl
ENDBRANCH  11  15
BRANCH   1  24
ATOM     23  N   UNL     1       0.094  -1.602  -2.893  0.00  0.00    -0.312 N 
ATOM     24  C   UNL     1       1.023  -2.367  -2.287  0.00  0.00    +0.218 C 
ATOM     25  O   UNL     1       1.952  -1.846  -1.705  0.00  0.00    -0.275 OA
ATOM     26  H   UNL     1      -0.649  -2.018  -3.358  0.00  0.00    +0.149 HD
BRANCH  23  27
ATOM     27  C   UNL     1       0.205  -0.142  -2.851  0.00  0.00    +0.148 C 
BRANCH  27  29
ATOM     28  C   UNL     1      -0.785   2.000  -3.673  0.00  0.00    +0.053 C 
ATOM     29  C   UNL     1      -0.968   0.482  -3.610  0.00  0.00    +0.187 C 
BRANCH  29  30
ATOM     30  O   UNL     1      -2.189   0.176  -2.934  0.00  0.00    -0.488 OA
BRANCH  30  31
ATOM     31  C   UNL     1      -3.325   0.181  -3.680  0.00  0.00    +0.121 A 
ATOM     32  C   UNL     1      -3.254   0.369  -5.053  0.00  0.00    +0.045 A 
ATOM     33  C   UNL     1      -4.410   0.372  -5.809  0.00  0.00    +0.004 A 
ATOM     34  C   UNL     1      -5.637   0.190  -5.199  0.00  0.00    +0.000 A 
ATOM     35  C   UNL     1      -5.710   0.002  -3.831  0.00  0.00    +0.004 A 
ATOM     36  C   UNL     1      -4.557  -0.009  -3.071  0.00  0.00    +0.045 A 
ENDBRANCH  30  31
ENDBRANCH  29  30
ENDBRANCH  27  29
ENDBRANCH  23  27
ENDBRANCH   1  24
TORSDOF 6
