REMARK  Name = ZINC12602920
REMARK  10 active torsions:
REMARK  status: ('A' for Active; 'I' for Inactive)
REMARK    1  A    between atoms: C_1  and  C_2
REMARK    2  A    between atoms: C_5  and  C_8
REMARK    3  A    between atoms: C_11  and  N_34
REMARK    4  A    between atoms: C_17  and  C_30
REMARK    5  A    between atoms: C_30  and  O_32
REMARK    6  A    between atoms: O_32  and  C_33
REMARK    7  A    between atoms: N_34  and  C_35
REMARK    8  A    between atoms: C_35  and  C_36
REMARK    9  A    between atoms: C_36  and  N_37
REMARK   10  A    between atoms: C_38  and  C_40
REMARK                            x       y       z     vdW  Elec       q    Type
REMARK                         _______ _______ _______ _____ _____    ______ ____
ROOT
ATOM      1  C   UNL     1      -2.567   0.475  -1.474  0.00  0.00    +0.087 C 
ATOM      2  C   UNL     1      -3.842  -0.367  -1.578  0.00  0.00    +0.008 C 
ATOM      3  C   UNL     1      -3.768  -1.531  -0.587  0.00  0.00    -0.068 C 
ATOM      4  C   UNL     1      -3.561  -0.981   0.828  0.00  0.00    +0.009 C 
ATOM      5  C   UNL     1      -2.288  -0.134   0.852  0.00  0.00    +0.103 C 
ATOM      6  N   UNL     1      -2.429   0.977  -0.102  0.00  0.00    -0.274 NA
ATOM      7  C   UNL     1      -1.329   1.940   0.019  0.00  0.00    +0.172 C 
ATOM      8  C   UNL     1      -1.471   2.717   1.335  0.00  0.00    +0.068 C 
ATOM      9  C   UNL     1      -1.708   1.723   2.445  0.00  0.00    -0.016 A 
ATOM     10  C   UNL     1      -2.077   0.439   2.231  0.00  0.00    +0.038 A 
ATOM     11  N   UNL     1      -2.215  -0.208   3.429  0.00  0.00    -0.356 N 
ATOM     12  H   UNL     1      -2.515  -1.266   3.451  0.00  0.00    +0.166 HD
ATOM     13  C   UNL     1      -1.932   0.650   4.453  0.00  0.00    +0.047 A 
ATOM     14  C   UNL     1      -1.601   1.904   3.875  0.00  0.00    +0.003 A 
ATOM     15  C   UNL     1      -1.259   3.001   4.672  0.00  0.00    +0.010 A 
ATOM     16  C   UNL     1      -1.258   2.806   6.031  0.00  0.00    +0.001 A 
ATOM     17  C   UNL     1      -1.580   1.585   6.599  0.00  0.00    +0.002 A 
ATOM     18  C   UNL     1      -1.923   0.482   5.835  0.00  0.00    +0.026 A 
ENDROOT
BRANCH   1  23
ATOM     19  C   UNL     1      -2.896   4.933  -5.136  0.00  0.00    +0.044 C 
ATOM     20  C   UNL     1      -2.810   3.771  -4.181  0.00  0.00    -0.050 A 
ATOM     21  C   UNL     1      -2.078   2.649  -4.521  0.00  0.00    +0.003 A 
ATOM     22  C   UNL     1      -1.999   1.582  -3.645  0.00  0.00    +0.005 A 
ATOM     23  C   UNL     1      -2.652   1.638  -2.429  0.00  0.00    -0.030 A 
ATOM     24  C   UNL     1      -3.389   2.757  -2.090  0.00  0.00    +0.005 A 
ATOM     25  C   UNL     1      -3.463   3.826  -2.964  0.00  0.00    +0.003 A 
ENDBRANCH   1  23
BRANCH   3  26
ATOM     26  N   UNL     1      -5.021  -2.297  -0.637  0.00  0.00    +0.382 N 
ATOM     27  H   UNL     1      -5.172  -2.816   0.322  0.00  0.00    -0.085 HD
ATOM     28  H   UNL     1      -5.862  -1.613  -0.820  0.00  0.00    -0.085 HD
BRANCH  26  29
ATOM     29  C   UNL     1      -4.984  -3.297  -1.712  0.00  0.00    -0.063 C 
BRANCH  29  30
ATOM     30  C   UNL     1      -6.302  -4.073  -1.733  0.00  0.00    +0.085 C 
BRANCH  30  31
ATOM     31  N   UNL     1      -6.266  -5.070  -2.806  0.00  0.00    -0.317 N 
ATOM     32  C   UNL     1      -7.326  -5.875  -3.013  0.00  0.00    +0.210 C 
ATOM     33  O   UNL     1      -8.310  -5.775  -2.312  0.00  0.00    -0.276 OA
ATOM     34  C   UNL     1      -7.288  -6.901  -4.117  0.00  0.00    +0.109 C 
ATOM     35  H   UNL     1      -5.373  -5.161  -3.442  0.00  0.00    +0.149 HD
ENDBRANCH  30  31
ENDBRANCH  29  30
ENDBRANCH  26  29
ENDBRANCH   3  26
BRANCH   7  36
ATOM     36  C   UNL     1      -0.014   1.204   0.009  0.00  0.00    +0.325 C 
ATOM     37  O   UNL     1       0.021   0.034  -0.289  0.00  0.00    -0.249 OA
BRANCH  36  38
ATOM     38  O   UNL     1       1.119   1.851   0.325  0.00  0.00    -0.467 OA
ATOM     39  C   UNL     1       2.349   1.081   0.288  0.00  0.00    +0.280 C 
ENDBRANCH  36  38
ENDBRANCH   7  36
TORSDOF 7
