REMARK  Name = ZINC08769380
REMARK  12 active torsions:
REMARK  status: ('A' for Active; 'I' for Inactive)
REMARK    1  A    between atoms: C_1  and  C_2
REMARK    2  A    between atoms: C_2  and  C_3
REMARK    3  A    between atoms: C_3  and  C_4
REMARK    4  A    between atoms: C_4  and  C_5
REMARK    5  A    between atoms: C_11  and  C_15
REMARK    6  A    between atoms: C_15  and  C_16
REMARK    7  A    between atoms: C_16  and  N_17
REMARK    8  A    between atoms: C_18  and  C_19
REMARK    9  A    between atoms: C_18  and  C_35
REMARK   10  A    between atoms: N_25  and  C_28
REMARK   11  A    between atoms: C_38  and  O_41
REMARK   12  A    between atoms: O_41  and  C_42
REMARK                            x       y       z     vdW  Elec       q    Type
REMARK                         _______ _______ _______ _____ _____    ______ ____
ROOT
ATOM      1  N   UNL     1      -4.506  -2.043   1.776  0.00  0.00    -0.286 NA
ATOM      2  C   UNL     1      -4.231  -2.791   2.885  0.00  0.00    +0.064 C 
ENDROOT
BRANCH   2   3
ATOM      3  C   UNL     1      -3.929  -4.151   2.754  0.00  0.00    +0.210 C 
ATOM      4  C   UNL     1      -4.063  -4.845   1.466  0.00  0.00    +0.238 C 
ATOM      5  O   UNL     1      -4.442  -4.251   0.473  0.00  0.00    -0.274 OA
ATOM      6  N   UNL     1      -3.749  -6.156   1.410  0.00  0.00    -0.238 N 
ATOM      7  C   UNL     1      -3.336  -6.823   2.498  0.00  0.00    +0.319 C 
ATOM      8  O   UNL     1      -3.074  -8.004   2.384  0.00  0.00    -0.251 OA
ATOM      9  N   UNL     1      -3.198  -6.254   3.703  0.00  0.00    -0.193 N 
ATOM     10  C   UNL     1      -3.471  -4.948   3.901  0.00  0.00    +0.245 C 
ATOM     11  O   UNL     1      -3.342  -4.442   5.001  0.00  0.00    -0.274 OA
ATOM     12  H   UNL     1      -3.828  -6.627   0.566  0.00  0.00    +0.159 HD
BRANCH   9  13
ATOM     13  C   UNL     1      -2.760  -7.033   4.783  0.00  0.00    +0.045 A 
ATOM     14  C   UNL     1      -1.501  -6.822   5.327  0.00  0.00    +0.025 A 
ATOM     15  C   UNL     1      -1.074  -7.587   6.395  0.00  0.00    +0.017 A 
ATOM     16  C   UNL     1      -1.896  -8.572   6.914  0.00  0.00    +0.018 A 
ATOM     17  C   UNL     1      -3.150  -8.788   6.370  0.00  0.00    +0.017 A 
ATOM     18  C   UNL     1      -3.583  -8.021   5.306  0.00  0.00    +0.025 A 
ATOM     19 BR   UNL     1      -1.306  -9.623   8.371  0.00  0.00    -0.050 Br
ENDBRANCH   9  13
ENDBRANCH   2   3
BRANCH   2  20
ATOM     20  C   UNL     1      -4.252  -2.167   4.217  0.00  0.00    -0.003 A 
ATOM     21  C   UNL     1      -5.044  -2.712   5.235  0.00  0.00    +0.013 A 
ATOM     22  C   UNL     1      -5.056  -2.128   6.481  0.00  0.00    +0.046 A 
ATOM     23  C   UNL     1      -4.292  -0.992   6.727  0.00  0.00    +0.120 A 
ATOM     24  C   UNL     1      -3.508  -0.444   5.717  0.00  0.00    +0.046 A 
ATOM     25  C   UNL     1      -3.485  -1.024   4.469  0.00  0.00    +0.013 A 
BRANCH  23  26
ATOM     26  O   UNL     1      -4.311  -0.416   7.955  0.00  0.00    -0.495 OA
ATOM     27  C   UNL     1      -5.138  -1.030   8.946  0.00  0.00    +0.277 C 
ENDBRANCH  23  26
ENDBRANCH   2  20
BRANCH   1  28
ATOM     28  C   UNL     1      -4.823  -0.620   1.913  0.00  0.00    +0.146 C 
BRANCH  28  29
ATOM     29  C   UNL     1      -4.973   0.005   0.525  0.00  0.00    +0.060 C 
BRANCH  29  36
ATOM     30  C   UNL     1      -2.333   3.836   1.093  0.00  0.00    -0.047 A 
ATOM     31  C   UNL     1      -3.082   5.002   1.177  0.00  0.00    +0.005 A 
ATOM     32  C   UNL     1      -4.456   4.961   1.094  0.00  0.00    +0.026 A 
ATOM     33  C   UNL     1      -5.103   3.741   0.924  0.00  0.00    +0.047 A 
ATOM     34  C   UNL     1      -4.338   2.563   0.834  0.00  0.00    +0.003 A 
ATOM     35  C   UNL     1      -2.947   2.627   0.926  0.00  0.00    +0.014 A 
ATOM     36  C   UNL     1      -5.298   1.470   0.666  0.00  0.00    -0.021 A 
ATOM     37  C   UNL     1      -6.523   2.021   0.656  0.00  0.00    +0.087 A 
ATOM     38  N   UNL     1      -6.425   3.377   0.809  0.00  0.00    -0.360 N 
ATOM     39  H   UNL     1      -7.176   3.990   0.833  0.00  0.00    +0.165 HD
BRANCH  30  40
ATOM     40  C   UNL     1      -0.830   3.905   1.187  0.00  0.00    +0.035 C 
BRANCH  40  41
ATOM     41  C   UNL     1      -0.240   4.085  -0.214  0.00  0.00    +0.004 C 
BRANCH  41  43
ATOM     42  C   UNL     1       1.875   4.334  -1.519  0.00  0.00    +0.004 C 
ATOM     43  C   UNL     1       1.285   4.155  -0.119  0.00  0.00    -0.003 C 
ENDBRANCH  41  43
ENDBRANCH  40  41
ENDBRANCH  30  40
ENDBRANCH  29  36
ENDBRANCH  28  29
ENDBRANCH   1  28
TORSDOF 10
