REMARK  Name = ZINC18286682
REMARK  4 active torsions:
REMARK  status: ('A' for Active; 'I' for Inactive)
REMARK    1  A    between atoms: C_6  and  N_7
REMARK    2  A    between atoms: C_11  and  N_15
REMARK    3  A    between atoms: C_18  and  C_21
REMARK    4  A    between atoms: C_18  and  N_24
REMARK                            x       y       z     vdW  Elec       q    Type
REMARK                         _______ _______ _______ _____ _____    ______ ____
ROOT
ATOM      1  N   UNL     1      -3.004  -3.338   1.205  0.00  0.00    -0.291 NA
ATOM      2  C   UNL     1      -4.424  -3.713   1.188  0.00  0.00    +0.084 C 
ATOM      3  C   UNL     1      -4.751  -4.531   2.440  0.00  0.00    +0.013 C 
ATOM      4  C   UNL     1      -3.873  -5.785   2.468  0.00  0.00    +0.015 C 
ATOM      5  C   UNL     1      -2.400  -5.368   2.436  0.00  0.00    +0.013 C 
ATOM      6  C   UNL     1      -2.141  -4.526   1.184  0.00  0.00    +0.084 C 
ENDROOT
BRANCH   1  11
ATOM      7  N   UNL     1      -1.378  -0.529   0.350  0.00  0.00    -0.209 N 
ATOM      8  C   UNL     1      -2.625  -0.045   0.291  0.00  0.00    +0.228 C 
ATOM      9  O   UNL     1      -2.928   1.126   0.363  0.00  0.00    -0.275 OA
ATOM     10  C   UNL     1      -3.596  -1.193   0.120  0.00  0.00    +0.125 C 
ATOM     11  C   UNL     1      -2.685  -2.437   0.090  0.00  0.00    +0.153 C 
ATOM     12  C   UNL     1      -1.294  -1.861   0.241  0.00  0.00    +0.244 C 
ATOM     13  O   UNL     1      -0.267  -2.503   0.264  0.00  0.00    -0.273 OA
BRANCH   7  19
ATOM     14  C   UNL     1       0.709   0.353  -0.493  0.00  0.00    +0.025 A 
ATOM     15  C   UNL     1       1.816   1.163  -0.337  0.00  0.00    +0.016 A 
ATOM     16  C   UNL     1       1.969   1.913   0.815  0.00  0.00    +0.013 A 
ATOM     17  C   UNL     1       1.013   1.855   1.813  0.00  0.00    +0.016 A 
ATOM     18  C   UNL     1      -0.097   1.046   1.662  0.00  0.00    +0.025 A 
ATOM     19  C   UNL     1      -0.253   0.292   0.506  0.00  0.00    +0.044 A 
ATOM     20  I   UNL     1       3.651   3.140   1.049  0.00  0.00    -0.044 I 
ENDBRANCH   7  19
ENDBRANCH   1  11
BRANCH   4  21
ATOM     21  N   UNL     1      -4.141  -6.544   3.697  0.00  0.00    +0.389 N 
ATOM     22  C   UNL     1      -3.766  -5.735   4.862  0.00  0.00    -0.077 C 
ATOM     23  C   UNL     1      -4.118  -6.489   6.147  0.00  0.00    -0.019 C 
ATOM     24  C   UNL     1      -3.355  -7.816   6.178  0.00  0.00    -0.004 C 
ATOM     25  C   UNL     1      -3.698  -8.620   4.921  0.00  0.00    -0.019 C 
ATOM     26  C   UNL     1      -3.361  -7.788   3.682  0.00  0.00    -0.077 C 
ATOM     27  H   UNL     1      -5.124  -6.766   3.746  0.00  0.00    -0.080 HD
ENDBRANCH   4  21
BRANCH   4  28
ATOM     28  C   UNL     1      -4.180  -6.642   1.268  0.00  0.00    +0.200 C 
ATOM     29  O   UNL     1      -3.464  -6.596   0.290  0.00  0.00    -0.278 OA
ATOM     30  N   UNL     1      -5.251  -7.461   1.280  0.00  0.00    -0.330 N 
ATOM     31  H   UNL     1      -5.781  -7.554   2.088  0.00  0.00    +0.145 HD
ATOM     32  H   UNL     1      -5.492  -7.956   0.482  0.00  0.00    +0.145 HD
ENDBRANCH   4  28
TORSDOF 4
