REMARK  Name = ZINC39678871
REMARK  9 active torsions:
REMARK  status: ('A' for Active; 'I' for Inactive)
REMARK    1  A    between atoms: C_1  and  N_2
REMARK    2  A    between atoms: N_2  and  C_3
REMARK    3  A    between atoms: N_2  and  C_4
REMARK    4  A    between atoms: C_4  and  C_5
REMARK    5  A    between atoms: C_5  and  C_6
REMARK    6  A    between atoms: C_6  and  C_7
REMARK    7  A    between atoms: C_7  and  N_8
REMARK    8  A    between atoms: C_9  and  C_11
REMARK    9  A    between atoms: C_22  and  C_24
REMARK                            x       y       z     vdW  Elec       q    Type
REMARK                         _______ _______ _______ _____ _____    ______ ____
ROOT
ATOM      1  C   UNL     1       1.302  -1.308   8.945  0.00  0.00    +0.100 C 
ATOM      2  C   UNL     1       2.595  -0.480   8.766  0.00  0.00    +0.121 C 
ATOM      3  N   UNL     1       2.388   0.722   9.609  0.00  0.00    -0.296 N 
ATOM      4  C   UNL     1       1.710   0.208  10.823  0.00  0.00    +0.115 C 
ATOM      5  C   UNL     1       0.727  -0.856  10.297  0.00  0.00    -0.004 C 
ATOM      6  C   UNL     1      -0.658  -0.244  10.104  0.00  0.00    -0.010 C 
ATOM      7  C   UNL     1      -1.233   0.146  11.469  0.00  0.00    -0.082 C 
ATOM      8  N   UNL     1      -1.316  -1.044  12.325  0.00  0.00    +0.379 N 
ATOM      9  C   UNL     1       0.029  -1.572  12.581  0.00  0.00    -0.082 C 
ATOM     10  C   UNL     1       0.658  -2.034  11.263  0.00  0.00    -0.010 C 
ATOM     11  C   UNL     1       2.738   1.994   9.333  0.00  0.00    +0.247 C 
ATOM     12  O   UNL     1       3.177   2.279   8.236  0.00  0.00    -0.270 OA
ATOM     13  H   UNL     1      -1.751  -0.796  13.201  0.00  0.00    -0.086 HD
ATOM     14  H   UNL     1      -1.871  -1.750  11.864  0.00  0.00    -0.086 HD
ENDROOT
BRANCH  11  15
ATOM     15  C   UNL     1       2.589   3.041  10.365  0.00  0.00    +0.038 A 
ATOM     16  C   UNL     1       2.513   2.690  11.714  0.00  0.00    +0.014 A 
ATOM     17  C   UNL     1       2.374   3.671  12.673  0.00  0.00    +0.022 A 
ATOM     18  C   UNL     1       2.308   5.004  12.300  0.00  0.00    +0.059 A 
ATOM     19  C   UNL     1       2.383   5.359  10.962  0.00  0.00    +0.060 A 
ATOM     20  C   UNL     1       2.529   4.386   9.995  0.00  0.00    +0.034 A 
ATOM     21 CL   UNL     1       2.300   7.031  10.504  0.00  0.00    -0.082 Cl
ATOM     22 CL   UNL     1       2.132   6.233  13.513  0.00  0.00    -0.082 Cl
ENDBRANCH  11  15
BRANCH   1  24
ATOM     23  N   UNL     1      -0.618  -1.909   7.505  0.00  0.00    -0.315 N 
ATOM     24  C   UNL     1       0.329  -1.008   7.833  0.00  0.00    +0.218 C 
ATOM     25  O   UNL     1       0.398   0.044   7.235  0.00  0.00    -0.275 OA
ATOM     26  H   UNL     1      -0.673  -2.751   7.984  0.00  0.00    +0.149 HD
BRANCH  23  27
ATOM     27  C   UNL     1      -1.563  -1.618   6.425  0.00  0.00    +0.104 C 
BRANCH  27  28
ATOM     28  C   UNL     1      -2.525  -2.796   6.258  0.00  0.00    +0.017 C 
BRANCH  28  29
ATOM     29  C   UNL     1      -3.513  -2.491   5.129  0.00  0.00    -0.017 C 
BRANCH  29  30
ATOM     30  C   UNL     1      -4.474  -3.670   4.962  0.00  0.00    -0.080 C 
BRANCH  30  32
ATOM     31  C   UNL     1      -4.697  -3.283   2.605  0.00  0.00    -0.097 C 
ATOM     32  N   UNL     1      -5.423  -3.377   3.879  0.00  0.00    +0.376 N 
ATOM     33  C   UNL     1      -6.419  -4.453   3.797  0.00  0.00    -0.097 C 
ATOM     34  H   UNL     1      -5.888  -2.502   4.066  0.00  0.00    -0.083 HD
ENDBRANCH  30  32
ENDBRANCH  29  30
ENDBRANCH  28  29
ENDBRANCH  27  28
ENDBRANCH  23  27
ENDBRANCH   1  24
TORSDOF 7
