REMARK  Name = ZINC40287812
REMARK  5 active torsions:
REMARK  status: ('A' for Active; 'I' for Inactive)
REMARK    1  A    between atoms: C_1  and  O_2
REMARK    2  A    between atoms: O_2  and  C_3
REMARK    3  A    between atoms: C_3  and  C_5
REMARK    4  A    between atoms: C_7  and  N_12
REMARK    5  A    between atoms: C_24  and  C_26
REMARK                            x       y       z     vdW  Elec       q    Type
REMARK                         _______ _______ _______ _____ _____    ______ ____
ROOT
ATOM      1  N   UNL     1       1.212  -4.955  -0.099  0.00  0.00    -0.269 N 
ATOM      2  C   UNL     1       1.095  -6.287   0.072  0.00  0.00    +0.307 C 
ATOM      3  O   UNL     1      -0.007  -6.794   0.155  0.00  0.00    -0.252 OA
ATOM      4  N   UNL     1       2.199  -7.056   0.150  0.00  0.00    -0.272 N 
ATOM      5  C   UNL     1       3.535  -6.448   0.237  0.00  0.00    +0.116 C 
ATOM      6  C   UNL     1       4.338  -6.821  -1.016  0.00  0.00    +0.074 C 
ATOM      7  C   UNL     1       4.152  -8.290  -1.292  0.00  0.00    +0.040 A 
ATOM      8  C   UNL     1       3.160  -9.051  -0.783  0.00  0.00    +0.062 A 
ATOM      9  N   UNL     1       3.310 -10.294  -1.247  0.00  0.00    -0.348 N 
ATOM     10  C   UNL     1       4.361 -10.337  -2.024  0.00  0.00    +0.171 A 
ATOM     11  N   UNL     1       4.914  -9.103  -2.076  0.00  0.00    -0.349 N 
ATOM     12  H   UNL     1       5.704  -8.846  -2.577  0.00  0.00    +0.166 HD
ATOM     13  C   UNL     1       2.096  -8.526   0.158  0.00  0.00    +0.156 C 
ATOM     14  H   UNL     1       2.079  -4.565  -0.294  0.00  0.00    +0.156 HD
ATOM     15  H   UNL     1       2.732 -11.045  -1.040  0.00  0.00    +0.167 HD
ENDROOT
BRANCH   1  18
ATOM     16  C   UNL     1      -0.898  -1.973   0.406  0.00  0.00    +0.079 A 
ATOM     17  C   UNL     1       0.231  -2.788   0.302  0.00  0.00    +0.039 A 
ATOM     18  C   UNL     1       0.083  -4.133   0.007  0.00  0.00    +0.036 A 
ATOM     19  C   UNL     1      -1.186  -4.669  -0.186  0.00  0.00    +0.025 A 
ATOM     20  C   UNL     1      -2.304  -3.863  -0.084  0.00  0.00    +0.022 A 
ATOM     21  C   UNL     1      -2.169  -2.521   0.216  0.00  0.00    +0.055 A 
ATOM     22 CL   UNL     1      -3.578  -1.516   0.351  0.00  0.00    -0.083 Cl
BRANCH  16  23
ATOM     23  C   UNL     1      -0.749  -0.538   0.720  0.00  0.00    +0.340 C 
ATOM     24  O   UNL     1      -1.733   0.168   0.815  0.00  0.00    -0.245 OA
BRANCH  23  26
ATOM     25  C   UNL     1       0.547   1.383   1.204  0.00  0.00    +0.280 C 
ATOM     26  O   UNL     1       0.478  -0.012   0.902  0.00  0.00    -0.464 OA
ENDBRANCH  23  26
ENDBRANCH  16  23
ENDBRANCH   1  18
BRANCH  13  27
ATOM     27  C   UNL     1       2.333  -9.050   1.551  0.00  0.00    -0.021 A 
ATOM     28  C   UNL     1       3.550  -8.835   2.171  0.00  0.00    +0.007 A 
ATOM     29  C   UNL     1       3.768  -9.316   3.449  0.00  0.00    +0.020 A 
ATOM     30  C   UNL     1       2.769 -10.011   4.106  0.00  0.00    +0.041 A 
ATOM     31  C   UNL     1       1.552 -10.225   3.485  0.00  0.00    +0.020 A 
ATOM     32  C   UNL     1       1.333  -9.740   2.209  0.00  0.00    +0.007 A 
ATOM     33 CL   UNL     1       3.042 -10.615   5.711  0.00  0.00    -0.084 Cl
ENDBRANCH  13  27
TORSDOF 4
