REMARK  Name = ZINC58167417
REMARK  6 active torsions:
REMARK  status: ('A' for Active; 'I' for Inactive)
REMARK    1  A    between atoms: C_1  and  C_2
REMARK    2  A    between atoms: C_7  and  C_11
REMARK    3  A    between atoms: C_11  and  N_12
REMARK    4  A    between atoms: N_15  and  C_16
REMARK    5  A    between atoms: C_16  and  C_17
REMARK    6  A    between atoms: C_17  and  C_23
REMARK                            x       y       z     vdW  Elec       q    Type
REMARK                         _______ _______ _______ _____ _____    ______ ____
ROOT
ATOM      1  N   UNL     1       1.685  -5.595   2.745  0.00  0.00    -0.294 N 
ATOM      2  C   UNL     1       1.865  -6.762   3.394  0.00  0.00    +0.300 C 
ATOM      3  O   UNL     1       0.905  -7.438   3.707  0.00  0.00    -0.253 OA
ATOM      4  N   UNL     1       3.111  -7.180   3.696  0.00  0.00    -0.299 N 
ATOM      5  H   UNL     1       2.452  -5.055   2.495  0.00  0.00    +0.151 HD
ATOM      6  H   UNL     1       3.877  -6.641   3.446  0.00  0.00    +0.150 HD
ENDROOT
BRANCH   1   7
ATOM      7  C   UNL     1       0.332  -5.140   2.417  0.00  0.00    +0.160 C 
BRANCH   7  14
ATOM      8  C   UNL     1       0.740   1.946   0.302  0.00  0.00    +0.044 C 
ATOM      9  C   UNL     1       0.650   0.443   0.254  0.00  0.00    -0.046 A 
ATOM     10  C   UNL     1       0.600  -0.222  -0.982  0.00  0.00    +0.021 A 
ATOM     11  C   UNL     1       0.519  -1.568  -1.029  0.00  0.00    +0.093 A 
ATOM     12  N   UNL     1       0.484  -2.303   0.121  0.00  0.00    -0.308 N 
ATOM     13  C   UNL     1       0.405  -3.648   0.358  0.00  0.00    +0.115 A 
ATOM     14  C   UNL     1       0.406  -3.818   1.698  0.00  0.00    +0.051 A 
ATOM     15  N   UNL     1       0.483  -2.618   2.280  0.00  0.00    -0.342 N 
ATOM     16  C   UNL     1       0.532  -1.683   1.343  0.00  0.00    +0.116 A 
ATOM     17  C   UNL     1       0.622  -0.278   1.408  0.00  0.00    +0.048 A 
ATOM     18  H   UNL     1       0.501  -2.458   3.236  0.00  0.00    +0.167 HD
ENDBRANCH   7  14
ENDBRANCH   1   7
BRANCH   4  19
ATOM     19  C   UNL     1       3.307  -8.449   4.401  0.00  0.00    +0.117 C 
BRANCH  19  20
ATOM     20  C   UNL     1       4.804  -8.747   4.508  0.00  0.00    +0.017 C 
ATOM     21  C   UNL     1       5.472  -7.699   5.404  0.00  0.00    +0.041 C 
ATOM     22  C   UNL     1       4.888  -7.799   6.816  0.00  0.00    +0.160 C 
ATOM     23  O   UNL     1       5.083  -9.123   7.318  0.00  0.00    -0.380 OA
ATOM     24  C   UNL     1       4.441 -10.140   6.547  0.00  0.00    +0.160 C 
ATOM     25  C   UNL     1       5.007 -10.134   5.125  0.00  0.00    +0.041 C 
BRANCH  20  26
ATOM     26  C   UNL     1       5.425  -8.709   3.136  0.00  0.00    -0.021 A 
ATOM     27  C   UNL     1       6.442  -7.814   2.862  0.00  0.00    +0.007 A 
ATOM     28  C   UNL     1       7.013  -7.778   1.604  0.00  0.00    +0.020 A 
ATOM     29  C   UNL     1       6.566  -8.639   0.617  0.00  0.00    +0.042 A 
ATOM     30  C   UNL     1       5.548  -9.535   0.890  0.00  0.00    +0.040 A 
ATOM     31  C   UNL     1       4.981  -9.573   2.152  0.00  0.00    +0.046 A 
ATOM     32 CL   UNL     1       3.708 -10.702   2.497  0.00  0.00    -0.083 Cl
ATOM     33 CL   UNL     1       7.282  -8.594  -0.964  0.00  0.00    -0.083 Cl
ENDBRANCH  20  26
ENDBRANCH  19  20
ENDBRANCH   4  19
TORSDOF 5
