REMARK  Name = ZINC12507909
REMARK  8 active torsions:
REMARK  status: ('A' for Active; 'I' for Inactive)
REMARK    1  A    between atoms: C_1  and  C_2
REMARK    2  A    between atoms: C_2  and  C_4
REMARK    3  A    between atoms: C_2  and  N_14
REMARK    4  A    between atoms: N_6  and  C_7
REMARK    5  A    between atoms: N_14  and  C_15
REMARK    6  A    between atoms: C_18  and  N_21
REMARK    7  A    between atoms: N_21  and  S_22
REMARK    8  A    between atoms: S_22  and  C_25
REMARK                            x       y       z     vdW  Elec       q    Type
REMARK                         _______ _______ _______ _____ _____    ______ ____
ROOT
ATOM      1  C   UNL     1       4.067  -1.931  -4.413  0.00  0.00    +0.028 A 
ATOM      2  C   UNL     1       3.398  -3.140  -4.548  0.00  0.00    +0.025 A 
ATOM      3  C   UNL     1       2.395  -3.478  -3.660  0.00  0.00    +0.026 A 
ATOM      4  C   UNL     1       2.056  -2.607  -2.633  0.00  0.00    +0.048 A 
ATOM      5  C   UNL     1       2.721  -1.396  -2.501  0.00  0.00    +0.026 A 
ATOM      6  C   UNL     1       3.727  -1.060  -3.385  0.00  0.00    +0.025 A 
ENDROOT
BRANCH   1   7
ATOM      7  N   UNL     1       5.083  -1.589  -5.313  0.00  0.00    -0.333 N 
ATOM      8  H   UNL     1       5.320  -2.196  -6.031  0.00  0.00    +0.147 HD
BRANCH   7  10
ATOM      9  C   UNL     1       4.995   0.790  -5.875  0.00  0.00    +0.038 C 
ATOM     10  C   UNL     1       5.788  -0.312  -5.171  0.00  0.00    +0.154 C 
BRANCH  10  11
ATOM     11  C   UNL     1       7.157  -0.423  -5.793  0.00  0.00    +0.237 C 
ATOM     12  O   UNL     1       7.508  -1.464  -6.305  0.00  0.00    -0.273 OA
ATOM     13  N   UNL     1       7.990   0.637  -5.781  0.00  0.00    -0.282 N 
ATOM     14  H   UNL     1       7.683   1.491  -5.439  0.00  0.00    +0.155 HD
BRANCH  13  15
ATOM     15  C   UNL     1       9.298   0.504  -6.262  0.00  0.00    +0.071 A 
ATOM     16  C   UNL     1       9.582  -0.377  -7.301  0.00  0.00    +0.028 A 
ATOM     17  C   UNL     1      10.891  -0.470  -7.746  0.00  0.00    +0.022 A 
ATOM     18  C   UNL     1      11.866   0.301  -7.142  0.00  0.00    +0.112 A 
ATOM     19  N   UNL     1      11.566   1.123  -6.155  0.00  0.00    -0.242 NA
ATOM     20  C   UNL     1      10.333   1.246  -5.705  0.00  0.00    +0.150 A 
ATOM     21 CL   UNL     1       9.999   2.345  -4.403  0.00  0.00    -0.060 Cl
ENDBRANCH  13  15
ENDBRANCH  10  11
ENDBRANCH   7  10
ENDBRANCH   1   7
BRANCH   4  22
ATOM     22  N   UNL     1       1.038  -2.949  -1.734  0.00  0.00    -0.216 N 
ATOM     23  H   UNL     1       0.173  -2.514  -1.792  0.00  0.00    +0.174 HD
BRANCH  22  24
ATOM     24  S   UNL     1       1.312  -4.095  -0.571  0.00  0.00    +0.072 S 
ATOM     25  O   UNL     1       1.839  -5.234  -1.238  0.00  0.00    -0.150 OA
ATOM     26  O   UNL     1       0.137  -4.155   0.225  0.00  0.00    -0.150 OA
BRANCH  24  27
ATOM     27  C   UNL     1       2.595  -3.484   0.471  0.00  0.00    +0.109 A 
ATOM     28  C   UNL     1       2.288  -2.639   1.521  0.00  0.00    +0.031 A 
ATOM     29  C   UNL     1       3.294  -2.159   2.339  0.00  0.00    +0.040 A 
ATOM     30  C   UNL     1       4.609  -2.525   2.106  0.00  0.00    +0.124 A 
ATOM     31  C   UNL     1       4.915  -3.372   1.054  0.00  0.00    +0.040 A 
ATOM     32  C   UNL     1       3.908  -3.851   0.238  0.00  0.00    +0.031 A 
ATOM     33  F   UNL     1       5.592  -2.056   2.905  0.00  0.00    -0.205 F 
ENDBRANCH  24  27
ENDBRANCH  22  24
ENDBRANCH   4  22
TORSDOF 7
