REMARK  Name = ZINC67153757
REMARK  7 active torsions:
REMARK  status: ('A' for Active; 'I' for Inactive)
REMARK    1  A    between atoms: C_1  and  C_2
REMARK    2  A    between atoms: C_2  and  C_4
REMARK    3  A    between atoms: C_2  and  N_18
REMARK    4  A    between atoms: C_4  and  C_5
REMARK    5  A    between atoms: N_11  and  C_14
REMARK    6  A    between atoms: C_14  and  C_15
REMARK    7  A    between atoms: C_19  and  C_21
REMARK                            x       y       z     vdW  Elec       q    Type
REMARK                         _______ _______ _______ _____ _____    ______ ____
ROOT
ATOM      1  C   UNL     1       0.103  -1.457   1.536  0.00  0.00    +0.217 C 
ATOM      2  O   UNL     1      -0.410  -2.075   0.628  0.00  0.00    -0.276 OA
ATOM      3  N   UNL     1       0.808  -2.110   2.482  0.00  0.00    -0.303 N 
ATOM      4  C   UNL     1       1.417  -1.332   3.580  0.00  0.00    +0.106 C 
ATOM      5  C   UNL     1       1.252  -2.056   4.929  0.00  0.00    +0.000 C 
ATOM      6  C   UNL     1      -0.125  -2.678   5.001  0.00  0.00    -0.077 C 
ATOM      7  N   UNL     1      -0.054  -4.062   4.539  0.00  0.00    +0.386 N 
ATOM      8  C   UNL     1      -0.216  -4.235   3.147  0.00  0.00    -0.059 C 
ATOM      9  C   UNL     1       0.937  -3.549   2.387  0.00  0.00    +0.089 C 
ATOM     10  H   UNL     1       0.843  -4.441   4.805  0.00  0.00    -0.081 HD
ENDROOT
BRANCH   1  11
ATOM     11  C   UNL     1      -0.048   0.041   1.609  0.00  0.00    +0.118 C 
BRANCH  11  13
ATOM     12  C   UNL     1      -1.145   2.028   0.565  0.00  0.00    +0.028 C 
ATOM     13  C   UNL     1      -0.886   0.526   0.425  0.00  0.00    +0.079 C 
BRANCH  13  14
ATOM     14  N   UNL     1      -0.164   0.270  -0.823  0.00  0.00    -0.312 N 
ATOM     15  C   UNL     1      -0.844   0.129  -1.978  0.00  0.00    +0.216 C 
ATOM     16  O   UNL     1      -2.054   0.216  -1.984  0.00  0.00    -0.276 OA
ATOM     17  H   UNL     1       0.803   0.200  -0.819  0.00  0.00    +0.149 HD
BRANCH  15  18
ATOM     18  C   UNL     1      -0.102  -0.135  -3.263  0.00  0.00    +0.075 C 
ATOM     19  C   UNL     1       0.864   1.019  -3.540  0.00  0.00    +0.013 C 
ATOM     20  C   UNL     1       1.618   0.750  -4.844  0.00  0.00    +0.001 C 
ATOM     21  C   UNL     1       0.619   0.633  -5.997  0.00  0.00    +0.000 C 
ATOM     22  C   UNL     1      -0.347  -0.520  -5.719  0.00  0.00    +0.001 C 
ATOM     23  C   UNL     1      -1.101  -0.252  -4.415  0.00  0.00    +0.013 C 
ENDBRANCH  15  18
ENDBRANCH  13  14
ENDBRANCH  11  13
ENDBRANCH   1  11
BRANCH   7  24
ATOM     24  C   UNL     1      -1.098  -4.834   5.227  0.00  0.00    +0.018 C 
BRANCH  24  25
ATOM     25  C   UNL     1      -0.780  -4.910   6.698  0.00  0.00    +0.194 C 
ATOM     26  O   UNL     1       0.269  -4.468   7.115  0.00  0.00    -0.278 OA
ATOM     27  N   UNL     1      -1.662  -5.470   7.550  0.00  0.00    -0.331 N 
ATOM     28  H   UNL     1      -2.501  -5.824   7.216  0.00  0.00    +0.145 HD
ATOM     29  H   UNL     1      -1.457  -5.519   8.497  0.00  0.00    +0.145 HD
ENDBRANCH  24  25
ENDBRANCH   7  24
TORSDOF 6
