REMARK  Name = ZINC63782409
REMARK  7 active torsions:
REMARK  status: ('A' for Active; 'I' for Inactive)
REMARK    1  A    between atoms: C_4  and  N_7
REMARK    2  A    between atoms: C_8  and  C_10
REMARK    3  A    between atoms: C_10  and  C_11
REMARK    4  A    between atoms: C_14  and  C_18
REMARK    5  A    between atoms: N_20  and  C_21
REMARK    6  A    between atoms: C_21  and  C_22
REMARK    7  A    between atoms: C_22  and  C_23
REMARK                            x       y       z     vdW  Elec       q    Type
REMARK                         _______ _______ _______ _____ _____    ______ ____
ROOT
ATOM      1  C   UNL     1       4.708  -4.227   0.249  0.00  0.00    +0.158 C 
ATOM      2  N   UNL     1       5.991  -4.965   0.396  0.00  0.00    -0.265 NA
ATOM      3  C   UNL     1       5.569  -6.219   1.074  0.00  0.00    +0.297 C 
ATOM      4  O   UNL     1       4.544  -5.811   1.998  0.00  0.00    -0.270 OA
ATOM      5  N   UNL     1       3.970  -4.553   1.491  0.00  0.00    -0.181 NA
ATOM      6  H   UNL     1       6.401  -5.161  -0.504  0.00  0.00    +0.126 HD
ATOM      7  H   UNL     1       4.062  -3.813   2.171  0.00  0.00    +0.156 HD
ENDROOT
BRANCH   3   8
ATOM      8  C   UNL     1       6.731  -6.832   1.812  0.00  0.00    +0.259 C 
ATOM      9  O   UNL     1       6.747  -6.832   3.025  0.00  0.00    -0.271 OA
ATOM     10  N   UNL     1       7.752  -7.382   1.125  0.00  0.00    -0.312 N 
ATOM     11  H   UNL     1       7.739  -7.382   0.155  0.00  0.00    +0.149 HD
BRANCH  10  12
ATOM     12  C   UNL     1       8.881  -7.979   1.842  0.00  0.00    +0.108 C 
BRANCH  12  13
ATOM     13  C   UNL     1       9.893  -8.526   0.835  0.00  0.00    +0.052 C 
BRANCH  13  14
ATOM     14  C   UNL     1      11.055  -9.140   1.573  0.00  0.00    -0.040 C 
ATOM     15  C   UNL     1      11.218 -10.445   1.891  0.00  0.00    +0.000 A 
ATOM     16  C   UNL     1      10.394 -11.636   1.656  0.00  0.00    +0.030 A 
ATOM     17  C   UNL     1      10.831 -12.836   2.105  0.00  0.00    +0.042 A 
ATOM     18  C   UNL     1      12.048 -12.968   2.789  0.00  0.00    +0.022 A 
ATOM     19  C   UNL     1      12.859 -11.919   3.043  0.00  0.00    +0.027 A 
ATOM     20  C   UNL     1      12.499 -10.611   2.615  0.00  0.00    +0.043 A 
ATOM     21  N   UNL     1      13.104  -9.455   2.740  0.00  0.00    -0.380 N 
ATOM     22  C   UNL     1      12.277  -8.424   2.102  0.00  0.00    +0.144 C 
ATOM     23 CL   UNL     1       9.859 -14.247   1.828  0.00  0.00    -0.084 Cl
ATOM     24  H   UNL     1      13.957  -9.306   3.176  0.00  0.00    +0.160 HD
ENDBRANCH  13  14
ENDBRANCH  12  13
ENDBRANCH  10  12
ENDBRANCH   3   8
BRANCH   1  25
ATOM     25  C   UNL     1       4.962  -2.721   0.153  0.00  0.00    +0.132 C 
BRANCH  25  27
ATOM     26  N   UNL     1       3.622  -0.651  -0.037  0.00  0.00    -0.285 N 
ATOM     27  C   UNL     1       3.645  -1.995   0.057  0.00  0.00    +0.220 C 
ATOM     28  O   UNL     1       2.606  -2.620   0.064  0.00  0.00    -0.275 OA
ATOM     29  H   UNL     1       4.452  -0.155  -0.111  0.00  0.00    +0.155 HD
BRANCH  26  33
ATOM     30  C   UNL     1      -0.018   1.377  -0.014  0.00  0.00    +0.000 A 
ATOM     31  C   UNL     1       1.092   1.944   0.587  0.00  0.00    +0.002 A 
ATOM     32  C   UNL     1       2.300   1.274   0.581  0.00  0.00    +0.023 A 
ATOM     33  C   UNL     1       2.399   0.030  -0.029  0.00  0.00    +0.033 A 
ATOM     34  C   UNL     1       1.283  -0.536  -0.631  0.00  0.00    +0.023 A 
ATOM     35  C   UNL     1       0.078   0.139  -0.622  0.00  0.00    +0.002 A 
ENDBRANCH  26  33
ENDBRANCH  25  27
ENDBRANCH   1  25
TORSDOF 7
