REMARK  Name = ZINC59170465
REMARK  12 active torsions:
REMARK  status: ('A' for Active; 'I' for Inactive)
REMARK    1  A    between atoms: C_1  and  C_2
REMARK    2  A    between atoms: C_2  and  N_3
REMARK    3  A    between atoms: N_3  and  C_4
REMARK    4  A    between atoms: N_3  and  C_6
REMARK    5  A    between atoms: C_4  and  C_5
REMARK    6  A    between atoms: C_11  and  C_28
REMARK    7  A    between atoms: N_13  and  N_14
REMARK    8  A    between atoms: N_14  and  S_15
REMARK    9  A    between atoms: S_15  and  C_18
REMARK   10  A    between atoms: C_21  and  C_24
REMARK   11  A    between atoms: N_30  and  C_31
REMARK   12  A    between atoms: C_36  and  C_37
REMARK                            x       y       z     vdW  Elec       q    Type
REMARK                         _______ _______ _______ _____ _____    ______ ____
ROOT
ATOM      1  C   UNL     1       1.319   0.456  -3.067  0.00  0.00    +0.033 A 
ATOM      2  C   UNL     1      -0.033   0.269  -2.783  0.00  0.00    +0.024 A 
ATOM      3  C   UNL     1      -0.909  -0.063  -3.777  0.00  0.00    +0.013 A 
ATOM      4  C   UNL     1      -0.448  -0.218  -5.090  0.00  0.00    +0.018 A 
ATOM      5  C   UNL     1      -1.372  -0.580  -6.168  0.00  0.00    +0.030 A 
ATOM      6  C   UNL     1      -0.827  -0.981  -7.367  0.00  0.00    +0.099 A 
ATOM      7  C   UNL     1       0.650  -1.012  -7.464  0.00  0.00    +0.225 A 
ATOM      8  N   UNL     1       1.253  -1.816  -8.294  0.00  0.00    -0.260 N 
ATOM      9  O   UNL     1       1.361  -0.172  -6.656  0.00  0.00    -0.437 OA
ATOM     10  C   UNL     1       0.917  -0.028  -5.381  0.00  0.00    +0.139 A 
ATOM     11  C   UNL     1       1.792   0.312  -4.367  0.00  0.00    +0.070 A 
ATOM     12  H   UNL     1       0.734  -2.422  -8.845  0.00  0.00    +0.189 HD
ENDROOT
BRANCH   6  13
ATOM     13  C   UNL     1      -1.678  -1.364  -8.504  0.00  0.00    +0.253 C 
ATOM     14  O   UNL     1      -1.170  -1.710  -9.554  0.00  0.00    -0.270 OA
ATOM     15  N   UNL     1      -3.020  -1.331  -8.383  0.00  0.00    -0.281 N 
ATOM     16  H   UNL     1      -3.425  -0.989  -7.570  0.00  0.00    +0.155 HD
BRANCH  15  17
ATOM     17  C   UNL     1      -3.827  -1.791  -9.428  0.00  0.00    +0.037 A 
ATOM     18  C   UNL     1      -3.301  -2.640 -10.393  0.00  0.00    +0.023 A 
ATOM     19  C   UNL     1      -4.101  -3.092 -11.423  0.00  0.00    +0.002 A 
ATOM     20  C   UNL     1      -5.426  -2.700 -11.495  0.00  0.00    +0.000 A 
ATOM     21  C   UNL     1      -5.953  -1.855 -10.536  0.00  0.00    +0.005 A 
ATOM     22  C   UNL     1      -5.159  -1.404  -9.499  0.00  0.00    -0.029 A 
ATOM     23  C   UNL     1      -5.736  -0.487  -8.451  0.00  0.00    +0.045 C 
ENDBRANCH  15  17
ENDBRANCH   6  13
BRANCH   8  24
ATOM     24  N   UNL     1       2.651  -1.804  -8.391  0.00  0.00    -0.157 N 
ATOM     25  H   UNL     1       3.175  -1.264  -7.779  0.00  0.00    +0.194 HD
BRANCH  24  26
ATOM     26  S   UNL     1       3.408  -2.712  -9.550  0.00  0.00    +0.085 S 
ATOM     27  O   UNL     1       4.780  -2.345  -9.521  0.00  0.00    -0.149 OA
ATOM     28  O   UNL     1       2.974  -4.052  -9.364  0.00  0.00    -0.149 OA
BRANCH  26  29
ATOM     29  C   UNL     1       2.780  -2.191 -11.112  0.00  0.00    +0.110 A 
ATOM     30  C   UNL     1       1.645  -2.784 -11.633  0.00  0.00    +0.029 A 
ATOM     31  C   UNL     1       1.153  -2.375 -12.858  0.00  0.00    +0.005 A 
ATOM     32  C   UNL     1       1.795  -1.374 -13.563  0.00  0.00    -0.050 A 
ATOM     33  C   UNL     1       2.930  -0.781 -13.041  0.00  0.00    +0.005 A 
ATOM     34  C   UNL     1       3.420  -1.187 -11.814  0.00  0.00    +0.029 A 
ATOM     35  C   UNL     1       1.259  -0.929 -14.899  0.00  0.00    +0.044 C 
ENDBRANCH  26  29
ENDBRANCH  24  26
ENDBRANCH   8  24
BRANCH   1  36
ATOM     36  N   UNL     1       2.200   0.793  -2.045  0.00  0.00    -0.330 N 
BRANCH  36  38
ATOM     37  C   UNL     1       1.285   2.397  -0.442  0.00  0.00    +0.024 C 
ATOM     38  C   UNL     1       1.707   0.945  -0.674  0.00  0.00    +0.102 C 
ENDBRANCH  36  38
BRANCH  36  39
ATOM     39  C   UNL     1       3.621   0.996  -2.339  0.00  0.00    +0.102 C 
ATOM     40  C   UNL     1       4.366  -0.333  -2.196  0.00  0.00    +0.024 C 
ENDBRANCH  36  39
ENDBRANCH   1  36
TORSDOF 8
