REMARK  Name = ZINC59170673
REMARK  5 active torsions:
REMARK  status: ('A' for Active; 'I' for Inactive)
REMARK    1  A    between atoms: C_6  and  N_7
REMARK    2  A    between atoms: C_8  and  C_10
REMARK    3  A    between atoms: N_20  and  C_21
REMARK    4  A    between atoms: C_24  and  S_27
REMARK    5  A    between atoms: S_27  and  N_30
REMARK                            x       y       z     vdW  Elec       q    Type
REMARK                         _______ _______ _______ _____ _____    ______ ____
ROOT
ATOM      1  C   UNL     1      -2.435  -2.788  -0.250  0.00  0.00    +0.098 A 
ATOM      2  C   UNL     1      -2.437  -4.177  -0.246  0.00  0.00    +0.030 A 
ATOM      3  C   UNL     1      -3.738  -4.848  -0.295  0.00  0.00    +0.020 A 
ATOM      4  C   UNL     1      -3.847  -6.218  -0.029  0.00  0.00    +0.031 A 
ATOM      5  C   UNL     1      -5.083  -6.824  -0.079  0.00  0.00    +0.042 A 
ATOM      6  C   UNL     1      -6.216  -6.085  -0.392  0.00  0.00    +0.023 A 
ATOM      7  C   UNL     1      -6.123  -4.734  -0.658  0.00  0.00    +0.048 A 
ATOM      8  C   UNL     1      -4.888  -4.103  -0.615  0.00  0.00    +0.138 A 
ATOM      9  O   UNL     1      -4.781  -2.778  -0.881  0.00  0.00    -0.439 OA
ATOM     10  C   UNL     1      -3.748  -2.114  -0.297  0.00  0.00    +0.212 A 
ATOM     11  N   UNL     1      -3.910  -0.909   0.205  0.00  0.00    -0.325 N 
ATOM     12 CL   UNL     1      -5.225  -8.523   0.250  0.00  0.00    -0.084 Cl
ATOM     13  H   UNL     1      -3.194  -0.494   0.710  0.00  0.00    +0.169 HD
ENDROOT
BRANCH  11  14
ATOM     14  C   UNL     1      -5.089  -0.243   0.016  0.00  0.00    +0.042 A 
ATOM     15  C   UNL     1      -5.691  -0.226  -1.244  0.00  0.00    +0.027 A 
ATOM     16  C   UNL     1      -6.880   0.448  -1.428  0.00  0.00    +0.030 A 
ATOM     17  C   UNL     1      -7.477   1.107  -0.367  0.00  0.00    +0.105 A 
ATOM     18  C   UNL     1      -6.885   1.096   0.884  0.00  0.00    +0.030 A 
ATOM     19  C   UNL     1      -5.699   0.421   1.084  0.00  0.00    +0.027 A 
BRANCH  17  20
ATOM     20  S   UNL     1      -8.996   1.966  -0.611  0.00  0.00    +0.056 S 
ATOM     21  O   UNL     1      -9.069   2.957   0.405  0.00  0.00    -0.153 OA
ATOM     22  O   UNL     1      -9.064   2.286  -1.994  0.00  0.00    -0.153 OA
BRANCH  20  23
ATOM     23  N   UNL     1     -10.219   0.891  -0.312  0.00  0.00    -0.204 NA
ATOM     24  H   UNL     1     -11.069   1.207   0.034  0.00  0.00    +0.144 HD
ATOM     25  H   UNL     1     -10.087  -0.055  -0.483  0.00  0.00    +0.144 HD
ENDBRANCH  20  23
ENDBRANCH  17  20
ENDBRANCH  11  14
BRANCH   1  27
ATOM     26  N   UNL     1      -1.202  -0.681  -0.344  0.00  0.00    -0.281 N 
ATOM     27  C   UNL     1      -1.179  -2.021  -0.201  0.00  0.00    +0.253 C 
ATOM     28  O   UNL     1      -0.121  -2.597  -0.033  0.00  0.00    -0.270 OA
ATOM     29  H   UNL     1      -2.049  -0.216  -0.425  0.00  0.00    +0.155 HD
BRANCH  26  35
ATOM     30  C   UNL     1       0.113   1.162  -1.184  0.00  0.00    +0.026 A 
ATOM     31  C   UNL     1       1.298   1.873  -1.213  0.00  0.00    +0.040 A 
ATOM     32  C   UNL     1       2.369   1.466  -0.436  0.00  0.00    +0.124 A 
ATOM     33  C   UNL     1       2.256   0.346   0.371  0.00  0.00    +0.040 A 
ATOM     34  C   UNL     1       1.074  -0.367   0.403  0.00  0.00    +0.026 A 
ATOM     35  C   UNL     1      -0.002   0.040  -0.375  0.00  0.00    +0.034 A 
ATOM     36  F   UNL     1       3.527   2.161  -0.466  0.00  0.00    -0.205 F 
ENDBRANCH  26  35
ENDBRANCH   1  27
TORSDOF 5
