REMARK  Name = ZINC40008534
REMARK  19 active torsions:
REMARK  status: ('A' for Active; 'I' for Inactive)
REMARK    1  A    between atoms: C_1  and  C_2
REMARK    2  A    between atoms: C_2  and  C_3
REMARK    3  A    between atoms: C_3  and  C_4
REMARK    4  A    between atoms: C_4  and  C_5
REMARK    5  A    between atoms: C_5  and  C_6
REMARK    6  A    between atoms: C_6  and  O_7
REMARK    7  A    between atoms: O_7  and  C_8
REMARK    8  A    between atoms: C_11  and  C_16
REMARK    9  A    between atoms: C_13  and  O_14
REMARK   10  A    between atoms: O_14  and  C_15
REMARK   11  A    between atoms: C_23  and  C_40
REMARK   12  A    between atoms: N_31  and  C_32
REMARK   13  A    between atoms: C_32  and  C_33
REMARK   14  A    between atoms: C_33  and  C_34
REMARK   15  A    between atoms: C_34  and  N_35
REMARK   16  A    between atoms: N_35  and  C_36
REMARK   17  A    between atoms: N_35  and  C_38
REMARK   18  A    between atoms: C_36  and  C_37
REMARK   19  A    between atoms: C_38  and  C_39
REMARK                            x       y       z     vdW  Elec       q    Type
REMARK                         _______ _______ _______ _____ _____    ______ ____
ROOT
ATOM      1  C   UNL     1      -4.976 -10.443  -0.092  0.00  0.00    +0.145 C 
ATOM      2  C   UNL     1      -4.652 -11.014  -1.433  0.00  0.00    +0.072 A 
ATOM      3  C   UNL     1      -5.346 -10.908  -2.721  0.00  0.00    +0.199 A 
ATOM      4  O   UNL     1      -6.272 -10.141  -2.919  0.00  0.00    -0.287 OA
ATOM      5  C   UNL     1      -4.812 -11.823  -3.761  0.00  0.00    +0.065 A 
ATOM      6  C   UNL     1      -5.485 -11.986  -4.972  0.00  0.00    +0.018 A 
ATOM      7  C   UNL     1      -4.983 -12.836  -5.918  0.00  0.00    -0.050 A 
ATOM      8  C   UNL     1      -3.809 -13.536  -5.675  0.00  0.00    +0.007 A 
ATOM      9  C   UNL     1      -3.131 -13.385  -4.487  0.00  0.00    +0.047 A 
ATOM     10  C   UNL     1      -3.621 -12.522  -3.507  0.00  0.00    +0.139 A 
ATOM     11  O   UNL     1      -2.933 -12.382  -2.350  0.00  0.00    -0.450 OA
ATOM     12  C   UNL     1      -3.501 -11.739  -1.311  0.00  0.00    +0.199 A 
ATOM     13  C   UNL     1      -3.055 -11.665   0.091  0.00  0.00    +0.283 C 
ATOM     14  O   UNL     1      -2.062 -12.207   0.535  0.00  0.00    -0.267 OA
ATOM     15  N   UNL     1      -3.912 -10.910   0.812  0.00  0.00    -0.284 N 
ATOM     16  C   UNL     1      -5.707 -13.015  -7.227  0.00  0.00    +0.044 C 
ENDROOT
BRANCH   1  20
ATOM     17  C   UNL     1      -4.983  -6.170  -0.272  0.00  0.00    +0.162 A 
ATOM     18  C   UNL     1      -3.784  -6.862  -0.226  0.00  0.00    +0.050 A 
ATOM     19  C   UNL     1      -3.784  -8.244  -0.168  0.00  0.00    +0.009 A 
ATOM     20  C   UNL     1      -4.980  -8.937  -0.155  0.00  0.00    -0.019 A 
ATOM     21  C   UNL     1      -6.181  -8.253  -0.201  0.00  0.00    +0.055 A 
ATOM     22  C   UNL     1      -6.187  -6.868  -0.254  0.00  0.00    +0.162 A 
BRANCH  22  23
ATOM     23  O   UNL     1      -7.367  -6.193  -0.293  0.00  0.00    -0.491 OA
ATOM     24  C   UNL     1      -8.562  -6.975  -0.271  0.00  0.00    +0.277 C 
ENDBRANCH  22  23
BRANCH  17  25
ATOM     25  O   UNL     1      -4.984  -4.811  -0.329  0.00  0.00    -0.488 OA
BRANCH  25  26
ATOM     26  C   UNL     1      -3.711  -4.162  -0.345  0.00  0.00    +0.229 C 
BRANCH  26  27
ATOM     27  C   UNL     1      -3.912  -2.647  -0.410  0.00  0.00    +0.041 C 
BRANCH  27  28
ATOM     28  C   UNL     1      -2.550  -1.951  -0.427  0.00  0.00    +0.003 C 
BRANCH  28  29
ATOM     29  C   UNL     1      -2.751  -0.436  -0.492  0.00  0.00    -0.000 C 
BRANCH  29  31
ATOM     30  C   UNL     1      -1.590   1.775  -0.575  0.00  0.00    +0.004 C 
ATOM     31  C   UNL     1      -1.388   0.259  -0.509  0.00  0.00    -0.003 C 
ENDBRANCH  29  31
ENDBRANCH  28  29
ENDBRANCH  27  28
ENDBRANCH  26  27
ENDBRANCH  25  26
ENDBRANCH  17  25
ENDBRANCH   1  20
BRANCH  15  32
ATOM     32  C   UNL     1      -3.801 -10.607   2.241  0.00  0.00    +0.107 C 
BRANCH  32  33
ATOM     33  C   UNL     1      -4.541 -11.676   3.048  0.00  0.00    +0.000 C 
BRANCH  33  34
ATOM     34  C   UNL     1      -4.426 -11.359   4.540  0.00  0.00    -0.077 C 
BRANCH  34  35
ATOM     35  N   UNL     1      -5.244 -12.309   5.307  0.00  0.00    +0.379 N 
ATOM     36  H   UNL     1      -6.189 -12.299   4.955  0.00  0.00    -0.082 HD
BRANCH  35  37
ATOM     37  C   UNL     1      -4.684 -13.660   5.168  0.00  0.00    -0.082 C 
ATOM     38  C   UNL     1      -5.603 -14.666   5.862  0.00  0.00    -0.017 C 
ENDBRANCH  35  37
BRANCH  35  39
ATOM     39  C   UNL     1      -5.244 -11.921   6.724  0.00  0.00    -0.082 C 
ATOM     40  C   UNL     1      -5.956 -10.577   6.885  0.00  0.00    -0.017 C 
ENDBRANCH  35  39
ENDBRANCH  34  35
ENDBRANCH  33  34
ENDBRANCH  32  33
ENDBRANCH  15  32
TORSDOF 14
