REMARK  Name = ZINC09510668
REMARK  12 active torsions:
REMARK  status: ('A' for Active; 'I' for Inactive)
REMARK    1  A    between atoms: C_4  and  C_7
REMARK    2  A    between atoms: C_7  and  C_8
REMARK    3  A    between atoms: C_8  and  C_10
REMARK    4  A    between atoms: C_8  and  N_25
REMARK    5  A    between atoms: C_10  and  O_12
REMARK    6  A    between atoms: O_12  and  C_13
REMARK    7  A    between atoms: C_13  and  C_14
REMARK    8  A    between atoms: N_16  and  C_17
REMARK    9  A    between atoms: C_18  and  C_22
REMARK   10  A    between atoms: C_26  and  O_28
REMARK   11  A    between atoms: O_28  and  C_29
REMARK   12  A    between atoms: C_29  and  C_30
REMARK                            x       y       z     vdW  Elec       q    Type
REMARK                         _______ _______ _______ _____ _____    ______ ____
ROOT
ATOM      1  C   UNL     1      -2.945   0.711   1.462  0.00  0.00    +0.189 C 
ENDROOT
BRANCH   1   2
ATOM      2  N   UNL     1      -1.968  -0.170   2.108  0.00  0.00    -0.268 N 
ATOM      3  C   UNL     1      -0.861   0.351   2.672  0.00  0.00    +0.401 C 
ATOM      4  O   UNL     1      -0.672   1.551   2.646  0.00  0.00    -0.226 OA
ATOM      5  H   UNL     1      -2.119  -1.128   2.129  0.00  0.00    +0.153 HD
BRANCH   3   6
ATOM      6  O   UNL     1       0.037  -0.459   3.266  0.00  0.00    -0.446 OA
BRANCH   6   7
ATOM      7  C   UNL     1       1.206   0.172   3.853  0.00  0.00    +0.269 C 
BRANCH   7   8
ATOM      8  C   UNL     1       2.090  -0.883   4.466  0.00  0.00    -0.010 A 
ATOM      9  C   UNL     1       1.916  -1.248   5.788  0.00  0.00    +0.007 A 
ATOM     10  C   UNL     1       2.724  -2.219   6.349  0.00  0.00    +0.000 A 
ATOM     11  C   UNL     1       3.713  -2.818   5.591  0.00  0.00    +0.000 A 
ATOM     12  C   UNL     1       3.891  -2.449   4.271  0.00  0.00    +0.000 A 
ATOM     13  C   UNL     1       3.079  -1.482   3.708  0.00  0.00    +0.007 A 
ENDBRANCH   7   8
ENDBRANCH   6   7
ENDBRANCH   3   6
ENDBRANCH   1   2
BRANCH   1  14
ATOM     14  C   UNL     1      -4.299   0.049   1.467  0.00  0.00    +0.329 C 
ATOM     15  O   UNL     1      -4.434  -1.047   1.959  0.00  0.00    -0.249 OA
BRANCH  14  16
ATOM     16  O   UNL     1      -5.354   0.675   0.925  0.00  0.00    -0.454 OA
BRANCH  16  17
ATOM     17  C   UNL     1      -6.627  -0.022   0.965  0.00  0.00    +0.328 C 
BRANCH  17  18
ATOM     18  C   UNL     1      -7.687   0.829   0.314  0.00  0.00    +0.255 C 
ATOM     19  O   UNL     1      -7.398   1.917  -0.139  0.00  0.00    -0.272 OA
ATOM     20  N   UNL     1      -8.956   0.382   0.235  0.00  0.00    -0.277 N 
ATOM     21  H   UNL     1      -9.187  -0.487   0.598  0.00  0.00    +0.155 HD
BRANCH  20  22
ATOM     22  C   UNL     1      -9.931   1.165  -0.363  0.00  0.00    +0.084 A 
ATOM     23  C   UNL     1     -11.279   0.878  -0.543  0.00  0.00    +0.065 A 
ATOM     24  C   UNL     1     -12.075   1.886  -1.202  0.00  0.00    +0.022 A 
ATOM     25  C   UNL     1     -11.445   3.008  -1.593  0.00  0.00    +0.048 A 
ATOM     26  S   UNL     1      -9.763   2.735  -1.075  0.00  0.00    -0.081 S 
BRANCH  23  27
ATOM     27  C   UNL     1     -11.865  -0.385  -0.082  0.00  0.00    +0.244 C 
ATOM     28  O   UNL     1     -11.166  -1.213   0.473  0.00  0.00    -0.270 OA
ATOM     29  N   UNL     1     -13.176  -0.629  -0.274  0.00  0.00    -0.325 N 
ATOM     30  H   UNL     1     -13.733   0.031  -0.716  0.00  0.00    +0.145 HD
ATOM     31  H   UNL     1     -13.563  -1.465   0.031  0.00  0.00    +0.145 HD
ENDBRANCH  23  27
ENDBRANCH  20  22
ENDBRANCH  17  18
ENDBRANCH  16  17
ENDBRANCH  14  16
ENDBRANCH   1  14
BRANCH   1  32
ATOM     32  C   UNL     1      -2.514   0.980   0.019  0.00  0.00    +0.069 C 
BRANCH  32  36
ATOM     33  C   UNL     1       1.156   3.165   0.008  0.00  0.00    +0.000 A 
ATOM     34  C   UNL     1       1.175   1.783   0.000  0.00  0.00    +0.000 A 
ATOM     35  C   UNL     1      -0.013   1.076   0.008  0.00  0.00    +0.004 A 
ATOM     36  C   UNL     1      -1.219   1.751   0.017  0.00  0.00    -0.045 A 
ATOM     37  C   UNL     1      -1.238   3.133   0.030  0.00  0.00    +0.004 A 
ATOM     38  C   UNL     1      -0.050   3.840   0.022  0.00  0.00    +0.000 A 
ENDBRANCH  32  36
ENDBRANCH   1  32
TORSDOF 12
