REMARK  Name = ZINC39940732
REMARK  8 active torsions:
REMARK  status: ('A' for Active; 'I' for Inactive)
REMARK    1  A    between atoms: C_1  and  C_2
REMARK    2  A    between atoms: C_2  and  C_28
REMARK    3  A    between atoms: N_5  and  C_9
REMARK    4  A    between atoms: C_9  and  C_10
REMARK    5  A    between atoms: C_10  and  C_12
REMARK    6  A    between atoms: C_20  and  C_22
REMARK    7  A    between atoms: C_31  and  O_34
REMARK    8  A    between atoms: O_34  and  C_35
REMARK                            x       y       z     vdW  Elec       q    Type
REMARK                         _______ _______ _______ _____ _____    ______ ____
ROOT
ATOM      1  C   UNL     1      -2.569  -1.986   1.805  0.00  0.00    +0.197 C 
ENDROOT
BRANCH   1   6
ATOM      2  C   UNL     1      -0.019   1.526   0.010  0.00  0.00    +0.047 C 
ATOM      3  C   UNL     1       0.002  -0.004   0.002  0.00  0.00    +0.135 C 
ATOM      4  C   UNL     1      -1.403  -0.557   0.139  0.00  0.00    +0.251 C 
ATOM      5  O   UNL     1      -2.332  -0.392  -0.621  0.00  0.00    -0.272 OA
ATOM      6  N   UNL     1      -1.403  -1.272   1.282  0.00  0.00    -0.216 N 
ATOM      7  C   UNL     1      -0.206  -1.247   1.879  0.00  0.00    +0.310 C 
ATOM      8  O   UNL     1       0.040  -1.819   2.924  0.00  0.00    -0.252 OA
ATOM      9  N   UNL     1       0.695  -0.520   1.195  0.00  0.00    -0.281 N 
ATOM     10  H   UNL     1       1.621  -0.365   1.440  0.00  0.00    +0.152 HD
BRANCH   3  11
ATOM     11  C   UNL     1       0.657  -0.517  -1.255  0.00  0.00    -0.015 A 
ATOM     12  C   UNL     1      -0.109  -0.772  -2.377  0.00  0.00    +0.010 A 
ATOM     13  C   UNL     1       0.489  -1.242  -3.530  0.00  0.00    +0.046 A 
ATOM     14  C   UNL     1       1.859  -1.459  -3.561  0.00  0.00    +0.120 A 
ATOM     15  C   UNL     1       2.625  -1.202  -2.433  0.00  0.00    +0.046 A 
ATOM     16  C   UNL     1       2.023  -0.727  -1.285  0.00  0.00    +0.010 A 
BRANCH  14  17
ATOM     17  O   UNL     1       2.450  -1.922  -4.694  0.00  0.00    -0.495 OA
ATOM     18  C   UNL     1       3.864  -2.122  -4.654  0.00  0.00    +0.277 C 
ENDBRANCH  14  17
ENDBRANCH   3  11
ENDBRANCH   1   6
BRANCH   1  19
ATOM     19  C   UNL     1      -2.585  -3.391   1.260  0.00  0.00    +0.180 C 
ATOM     20  O   UNL     1      -1.706  -3.760   0.507  0.00  0.00    -0.291 OA
BRANCH  19  21
ATOM     21  C   UNL     1      -3.620  -4.278   1.624  0.00  0.00    +0.032 C 
ATOM     22  C   UNL     1      -4.690  -4.017   2.460  0.00  0.00    +0.007 A 
ATOM     23  C   UNL     1      -5.089  -2.867   3.182  0.00  0.00    +0.010 A 
ATOM     24  C   UNL     1      -6.208  -2.893   3.939  0.00  0.00    +0.001 A 
ATOM     25  C   UNL     1      -7.018  -4.034   4.050  0.00  0.00    +0.002 A 
ATOM     26  C   UNL     1      -6.726  -5.183   3.402  0.00  0.00    +0.026 A 
ATOM     27  C   UNL     1      -5.524  -5.240   2.554  0.00  0.00    +0.044 A 
ATOM     28  N   UNL     1      -5.014  -6.197   1.832  0.00  0.00    -0.373 N 
ATOM     29  C   UNL     1      -3.795  -5.713   1.177  0.00  0.00    +0.144 C 
ATOM     30  H   UNL     1      -5.385  -7.088   1.739  0.00  0.00    +0.161 HD
BRANCH  29  31
ATOM     31  C   UNL     1      -3.948  -5.775  -0.321  0.00  0.00    -0.021 A 
ATOM     32  C   UNL     1      -5.167  -5.484  -0.904  0.00  0.00    +0.006 A 
ATOM     33  C   UNL     1      -5.308  -5.540  -2.278  0.00  0.00    +0.000 A 
ATOM     34  C   UNL     1      -4.229  -5.887  -3.069  0.00  0.00    +0.000 A 
ATOM     35  C   UNL     1      -3.009  -6.177  -2.487  0.00  0.00    +0.000 A 
ATOM     36  C   UNL     1      -2.867  -6.116  -1.113  0.00  0.00    +0.006 A 
ENDBRANCH  29  31
ENDBRANCH  19  21
ENDBRANCH   1  19
TORSDOF 6
