REMARK  Name = ZINC39836333
REMARK  9 active torsions:
REMARK  status: ('A' for Active; 'I' for Inactive)
REMARK    1  A    between atoms: C_1  and  C_2
REMARK    2  A    between atoms: C_4  and  C_35
REMARK    3  A    between atoms: C_6  and  O_8
REMARK    4  A    between atoms: O_8  and  C_9
REMARK    5  A    between atoms: C_9  and  C_10
REMARK    6  A    between atoms: N_12  and  C_13
REMARK    7  A    between atoms: C_14  and  C_24
REMARK    8  A    between atoms: C_19  and  C_23
REMARK    9  A    between atoms: N_26  and  C_27
REMARK                            x       y       z     vdW  Elec       q    Type
REMARK                         _______ _______ _______ _____ _____    ______ ____
ROOT
ATOM      1  C   UNL     1       0.080  -3.277   7.094  0.00  0.00    +0.084 A 
ATOM      2  C   UNL     1       0.076  -2.939   8.438  0.00  0.00    +0.069 A 
ATOM      3  C   UNL     1       0.097  -4.029   9.397  0.00  0.00    -0.023 A 
ATOM      4  C   UNL     1       0.118  -5.258   8.837  0.00  0.00    -0.004 A 
ATOM      5  S   UNL     1       0.102  -4.956   7.094  0.00  0.00    -0.077 S 
ATOM      6  C   UNL     1       0.145  -6.573   9.553  0.00  0.00    +0.046 C 
ATOM      7  C   UNL     1       0.524  -6.316  11.019  0.00  0.00    -0.009 C 
ATOM      8  C   UNL     1      -0.332  -5.167  11.559  0.00  0.00    +0.008 C 
ATOM      9  C   UNL     1       0.095  -3.849  10.908  0.00  0.00    +0.037 C 
ATOM     10  C   UNL     1       0.269  -7.579  11.843  0.00  0.00    +0.008 C 
ENDROOT
BRANCH   1  13
ATOM     11  C   UNL     1       0.064  -2.932   4.751  0.00  0.00    +0.255 C 
ATOM     12  O   UNL     1       0.080  -4.133   4.584  0.00  0.00    -0.272 OA
ATOM     13  N   UNL     1       0.063  -2.425   6.000  0.00  0.00    -0.277 N 
ATOM     14  H   UNL     1       0.051  -1.464   6.134  0.00  0.00    +0.155 HD
BRANCH  11  15
ATOM     15  C   UNL     1       0.046  -2.005   3.563  0.00  0.00    +0.324 C 
BRANCH  15  16
ATOM     16  O   UNL     1       0.051  -2.775   2.359  0.00  0.00    -0.483 OA
BRANCH  16  22
ATOM     17  C   UNL     1      -0.018   1.503   0.010  0.00  0.00    +0.044 C 
ATOM     18  C   UNL     1       0.002  -0.004   0.002  0.00  0.00    -0.047 A 
ATOM     19  C   UNL     1       0.006  -0.688  -1.200  0.00  0.00    +0.007 A 
ATOM     20  C   UNL     1       0.025  -2.071  -1.210  0.00  0.00    -0.047 A 
ATOM     21  C   UNL     1       0.040  -2.772  -0.020  0.00  0.00    +0.049 A 
ATOM     22  C   UNL     1       0.036  -2.088   1.187  0.00  0.00    +0.122 A 
ATOM     23  C   UNL     1       0.023  -0.701   1.195  0.00  0.00    +0.049 A 
ATOM     24  C   UNL     1       0.029  -2.813  -2.522  0.00  0.00    +0.044 C 
ENDBRANCH  16  22
ENDBRANCH  15  16
ENDBRANCH  11  15
ENDBRANCH   1  13
BRANCH   2  25
ATOM     25  C   UNL     1       0.052  -1.539   8.873  0.00  0.00    +0.247 C 
ATOM     26  O   UNL     1      -1.012  -0.976   9.056  0.00  0.00    -0.270 OA
ATOM     27  N   UNL     1       1.208  -0.875   9.071  0.00  0.00    -0.307 N 
ATOM     28  H   UNL     1       2.056  -1.323   8.925  0.00  0.00    +0.149 HD
BRANCH  27  29
ATOM     29  C   UNL     1       1.185   0.524   9.506  0.00  0.00    +0.096 C 
ATOM     30  C   UNL     1       1.073   0.580  11.038  0.00  0.00    +0.046 C 
ATOM     31  C   UNL     1       1.364   2.039  11.492  0.00  0.00    +0.168 C 
ATOM     32  S   UNL     1       2.766   2.466  10.375  0.00  0.00    -0.029 S 
ATOM     33  O   UNL     1       3.989   2.167  11.034  0.00  0.00    -0.174 OA
ATOM     34  O   UNL     1       2.556   3.768   9.847  0.00  0.00    -0.174 OA
ATOM     35  C   UNL     1       2.485   1.227   9.046  0.00  0.00    +0.188 C 
ENDBRANCH  27  29
ENDBRANCH   2  25
TORSDOF 6
