REMARK  Name = ZINC13514541
REMARK  11 active torsions:
REMARK  status: ('A' for Active; 'I' for Inactive)
REMARK    1  A    between atoms: C_1  and  C_2
REMARK    2  A    between atoms: C_2  and  O_3
REMARK    3  A    between atoms: O_3  and  C_4
REMARK    4  A    between atoms: C_7  and  C_10
REMARK    5  A    between atoms: C_11  and  C_21
REMARK    6  A    between atoms: N_23  and  N_24
REMARK    7  A    between atoms: C_25  and  C_26
REMARK    8  A    between atoms: C_25  and  C_27
REMARK    9  A    between atoms: C_30  and  O_33
REMARK   10  A    between atoms: O_33  and  C_34
REMARK   11  A    between atoms: C_34  and  C_35
REMARK                            x       y       z     vdW  Elec       q    Type
REMARK                         _______ _______ _______ _____ _____    ______ ____
ROOT
ATOM      1  C   UNL     1      -6.073   1.874   0.047  0.00  0.00    +0.109 A 
ATOM      2  C   UNL     1      -4.795   1.325   0.032  0.00  0.00    +0.177 A 
ATOM      3  N   UNL     1      -4.916  -0.013   0.026  0.00  0.00    -0.124 NA
ATOM      4  N   UNL     1      -6.159  -0.344   0.030  0.00  0.00    -0.058 NA
ATOM      5  N   UNL     1      -6.941   0.819   0.041  0.00  0.00    -0.187 N 
ATOM      6  C   UNL     1      -8.338   0.886   0.049  0.00  0.00    +0.241 A 
ATOM      7  C   UNL     1      -9.252  -0.260   0.048  0.00  0.00    +0.206 A 
ATOM      8  N   UNL     1     -10.476   0.191   0.057  0.00  0.00    -0.032 NA
ATOM      9  O   UNL     1     -10.416   1.607   0.064  0.00  0.00    -0.239 OA
ATOM     10  N   UNL     1      -9.049   1.978   0.064  0.00  0.00    -0.027 NA
ATOM     11  N   UNL     1      -8.878  -1.599   0.038  0.00  0.00    -0.337 N 
ATOM     12  H   UNL     1      -7.939  -1.841   0.032  0.00  0.00    +0.144 HD
ATOM     13  H   UNL     1      -9.557  -2.292   0.039  0.00  0.00    +0.144 HD
ENDROOT
BRANCH   1  17
ATOM     14  C   UNL     1      -7.074   6.001   0.092  0.00  0.00    +0.121 A 
ATOM     15  C   UNL     1      -6.077   5.521   0.932  0.00  0.00    +0.046 A 
ATOM     16  C   UNL     1      -5.749   4.183   0.921  0.00  0.00    +0.013 A 
ATOM     17  C   UNL     1      -6.421   3.308   0.063  0.00  0.00    +0.003 A 
ATOM     18  C   UNL     1      -7.420   3.796  -0.784  0.00  0.00    +0.013 A 
ATOM     19  C   UNL     1      -7.745   5.135  -0.763  0.00  0.00    +0.046 A 
BRANCH  14  20
ATOM     20  O   UNL     1      -7.394   7.321   0.106  0.00  0.00    -0.492 OA
BRANCH  20  22
ATOM     21  C   UNL     1      -8.647   9.254  -0.626  0.00  0.00    +0.048 C 
ATOM     22  C   UNL     1      -8.428   7.748  -0.783  0.00  0.00    +0.225 C 
ENDBRANCH  20  22
ENDBRANCH  14  20
ENDBRANCH   1  17
BRANCH   2  23
ATOM     23  C   UNL     1      -3.531   2.078   0.030  0.00  0.00    +0.286 C 
ATOM     24  O   UNL     1      -3.548   3.294   0.037  0.00  0.00    -0.267 OA
ATOM     25  N   UNL     1      -2.355   1.419   0.021  0.00  0.00    -0.201 N 
ATOM     26  H   UNL     1      -2.342   0.450   0.016  0.00  0.00    +0.178 HD
BRANCH  25  27
ATOM     27  N   UNL     1      -1.151   2.136   0.019  0.00  0.00    -0.184 NA
ATOM     28  C   UNL     1      -0.018   1.503   0.010  0.00  0.00    +0.063 C 
ATOM     29  C   UNL     1       0.002  -0.004   0.002  0.00  0.00    +0.068 C 
BRANCH  28  30
ATOM     30  C   UNL     1       1.248   2.257   0.002  0.00  0.00    -0.002 A 
ATOM     31  C   UNL     1       2.469   1.577  -0.007  0.00  0.00    +0.013 A 
ATOM     32  C   UNL     1       3.650   2.287  -0.020  0.00  0.00    +0.046 A 
ATOM     33  C   UNL     1       3.629   3.675  -0.012  0.00  0.00    +0.121 A 
ATOM     34  C   UNL     1       2.418   4.356   0.003  0.00  0.00    +0.046 A 
ATOM     35  C   UNL     1       1.232   3.655   0.010  0.00  0.00    +0.013 A 
BRANCH  33  36
ATOM     36  O   UNL     1       4.796   4.370  -0.019  0.00  0.00    -0.483 OA
BRANCH  36  37
ATOM     37  C   UNL     1       6.005   3.609  -0.034  0.00  0.00    +0.324 C 
BRANCH  37  38
ATOM     38  C   UNL     1       7.188   4.543  -0.040  0.00  0.00    +0.248 C 
ATOM     39  O   UNL     1       7.012   5.743  -0.032  0.00  0.00    -0.272 OA
ATOM     40  N   UNL     1       8.440   4.045  -0.054  0.00  0.00    -0.327 N 
ATOM     41  H   UNL     1       8.580   3.085  -0.060  0.00  0.00    +0.145 HD
ATOM     42  H   UNL     1       9.201   4.646  -0.058  0.00  0.00    +0.145 HD
ENDBRANCH  37  38
ENDBRANCH  36  37
ENDBRANCH  33  36
ENDBRANCH  28  30
ENDBRANCH  25  27
ENDBRANCH   2  23
TORSDOF 9
