REMARK  Name = ZINC23448305
REMARK  19 active torsions:
REMARK  status: ('A' for Active; 'I' for Inactive)
REMARK    1  A    between atoms: C_1  and  C_2
REMARK    2  A    between atoms: C_2  and  N_3
REMARK    3  A    between atoms: N_3  and  C_4
REMARK    4  A    between atoms: N_3  and  C_6
REMARK    5  A    between atoms: C_4  and  C_5
REMARK    6  A    between atoms: C_6  and  C_7
REMARK    7  A    between atoms: C_7  and  C_8
REMARK    8  A    between atoms: C_8  and  C_9
REMARK    9  A    between atoms: C_9  and  C_11
REMARK   10  A    between atoms: C_9  and  N_12
REMARK   11  A    between atoms: C_13  and  C_15
REMARK   12  A    between atoms: C_18  and  N_21
REMARK   13  A    between atoms: C_22  and  C_31
REMARK   14  A    between atoms: C_24  and  C_26
REMARK   15  A    between atoms: C_26  and  O_28
REMARK   16  A    between atoms: O_28  and  C_29
REMARK   17  A    between atoms: C_29  and  C_30
REMARK   18  A    between atoms: C_34  and  O_37
REMARK   19  A    between atoms: O_37  and  C_38
REMARK                            x       y       z     vdW  Elec       q    Type
REMARK                         _______ _______ _______ _____ _____    ______ ____
ROOT
ATOM      1  C   UNL     1      -1.728   7.632  -0.359  0.00  0.00    +0.037 A 
ATOM      2  C   UNL     1      -0.736   7.371   0.589  0.00  0.00    +0.015 A 
ATOM      3  C   UNL     1      -0.241   6.094   0.731  0.00  0.00    +0.028 A 
ATOM      4  C   UNL     1      -0.727   5.064  -0.068  0.00  0.00    +0.066 A 
ATOM      5  C   UNL     1      -1.712   5.322  -1.016  0.00  0.00    +0.028 A 
ATOM      6  C   UNL     1      -2.215   6.596  -1.160  0.00  0.00    +0.015 A 
ENDROOT
BRANCH   4   7
ATOM      7  N   UNL     1      -0.222   3.770   0.079  0.00  0.00    -0.231 N 
ATOM      8  C   UNL     1      -0.011   3.141   1.274  0.00  0.00    +0.075 A 
ATOM      9  C   UNL     1       0.489   1.902   0.985  0.00  0.00    +0.065 A 
ATOM     10  C   UNL     1       0.549   1.840  -0.425  0.00  0.00    +0.170 A 
ATOM     11  N   UNL     1       0.107   2.993  -0.890  0.00  0.00    -0.159 NA
BRANCH   8  12
ATOM     12  C   UNL     1      -0.272   3.694   2.621  0.00  0.00    +0.001 A 
ATOM     13  C   UNL     1      -1.243   4.681   2.796  0.00  0.00    +0.013 A 
ATOM     14  C   UNL     1      -1.486   5.191   4.053  0.00  0.00    +0.046 A 
ATOM     15  C   UNL     1      -0.759   4.732   5.143  0.00  0.00    +0.120 A 
ATOM     16  C   UNL     1       0.212   3.755   4.972  0.00  0.00    +0.046 A 
ATOM     17  C   UNL     1       0.457   3.236   3.719  0.00  0.00    +0.013 A 
BRANCH  15  18
ATOM     18  O   UNL     1      -0.998   5.241   6.380  0.00  0.00    -0.495 OA
ATOM     19  C   UNL     1      -2.011   6.244   6.484  0.00  0.00    +0.277 C 
ENDBRANCH  15  18
ENDBRANCH   8  12
BRANCH  10  20
ATOM     20  C   UNL     1       1.020   0.696  -1.231  0.00  0.00    +0.360 C 
ATOM     21  O   UNL     1       1.404  -0.316  -0.681  0.00  0.00    -0.243 OA
BRANCH  20  22
ATOM     22  O   UNL     1       1.022   0.775  -2.576  0.00  0.00    -0.460 OA
BRANCH  22  23
ATOM     23  C   UNL     1       1.498  -0.388  -3.304  0.00  0.00    +0.229 C 
ATOM     24  C   UNL     1       1.428  -0.113  -4.807  0.00  0.00    +0.048 C 
ENDBRANCH  22  23
ENDBRANCH  20  22
ENDBRANCH  10  20
ENDBRANCH   4   7
BRANCH   1  26
ATOM     25  N   UNL     1      -3.219   9.251  -1.430  0.00  0.00    -0.309 N 
ATOM     26  C   UNL     1      -2.262   9.001  -0.515  0.00  0.00    +0.244 C 
ATOM     27  O   UNL     1      -1.837   9.901   0.183  0.00  0.00    -0.270 OA
ATOM     28  H   UNL     1      -3.603   8.436  -2.061  0.00  0.00    +0.149 HD
BRANCH  25  29
ATOM     29  C   UNL     1      -3.748  10.608  -1.584  0.00  0.00    +0.070 C 
ATOM     30  C   UNL     1      -2.844  11.404  -2.527  0.00  0.00    +0.028 C 
BRANCH  29  31
ATOM     31  C   UNL     1      -5.161  10.541  -2.167  0.00  0.00    +0.020 C 
BRANCH  31  32
ATOM     32  C   UNL     1      -6.094   9.854  -1.167  0.00  0.00    -0.017 C 
BRANCH  32  33
ATOM     33  C   UNL     1      -7.506   9.788  -1.750  0.00  0.00    -0.079 C 
BRANCH  33  34
ATOM     34  N   UNL     1      -8.402   9.128  -0.791  0.00  0.00    +0.379 N 
ATOM     35  H   UNL     1      -7.941   8.173  -0.500  0.00  0.00    -0.082 HD
BRANCH  34  37
ATOM     36  C   UNL     1      -9.254  11.258   0.067  0.00  0.00    -0.017 C 
ATOM     37  C   UNL     1      -8.563   9.940   0.423  0.00  0.00    -0.082 C 
ENDBRANCH  34  37
BRANCH  34  38
ATOM     38  C   UNL     1      -9.704   8.833  -1.403  0.00  0.00    -0.082 C 
ATOM     39  C   UNL     1     -10.555   8.021  -0.424  0.00  0.00    -0.017 C 
ENDBRANCH  34  38
ENDBRANCH  33  34
ENDBRANCH  32  33
ENDBRANCH  31  32
ENDBRANCH  29  31
ENDBRANCH  25  29
ENDBRANCH   1  26
TORSDOF 14
