REMARK  Name = ZINC04236553
REMARK  13 active torsions:
REMARK  status: ('A' for Active; 'I' for Inactive)
REMARK    1  A    between atoms: C_1  and  C_2
REMARK    2  A    between atoms: C_2  and  N_3
REMARK    3  A    between atoms: C_4  and  O_6
REMARK    4  A    between atoms: O_6  and  C_7
REMARK    5  A    between atoms: C_11  and  C_37
REMARK    6  A    between atoms: C_14  and  C_15
REMARK    7  A    between atoms: C_14  and  C_16
REMARK    8  A    between atoms: C_16  and  O_17
REMARK    9  A    between atoms: C_20  and  O_36
REMARK   10  A    between atoms: C_22  and  C_24
REMARK   11  A    between atoms: C_24  and  C_25
REMARK   12  A    between atoms: N_27  and  C_28
REMARK   13  A    between atoms: C_28  and  C_29
REMARK                            x       y       z     vdW  Elec       q    Type
REMARK                         _______ _______ _______ _____ _____    ______ ____
ROOT
ATOM      1  C   UNL     1       1.260   2.682   2.586  0.00  0.00    +0.186 C 
ATOM      2  C   UNL     1       0.896   1.217   2.333  0.00  0.00    +0.046 C 
ATOM      3  C   UNL     1      -0.617   1.095   2.140  0.00  0.00    +0.011 C 
ATOM      4  C   UNL     1      -1.049   1.942   0.942  0.00  0.00    -0.023 C 
ATOM      5  C   UNL     1      -0.685   3.407   1.196  0.00  0.00    +0.007 C 
ATOM      6  C   UNL     1       0.828   3.530   1.388  0.00  0.00    +0.031 C 
ATOM      7  C   UNL     1       1.193   4.994   1.641  0.00  0.00    +0.017 C 
ATOM      8  C   UNL     1      -1.117   4.255  -0.003  0.00  0.00    +0.007 C 
ATOM      9  C   UNL     1      -2.630   4.132  -0.195  0.00  0.00    +0.032 C 
ATOM     10  C   UNL     1      -2.994   2.667  -0.449  0.00  0.00    +0.119 C 
ATOM     11  C   UNL     1      -2.562   1.820   0.750  0.00  0.00    +0.032 C 
ATOM     12  C   UNL     1      -0.333   1.449  -0.317  0.00  0.00    +0.012 C 
ENDROOT
BRANCH  10  13
ATOM     13  O   UNL     1      -2.325   2.207  -1.624  0.00  0.00    -0.391 OA
ATOM     14  H   UNL     1      -2.552   2.700  -2.425  0.00  0.00    +0.210 HD
ENDBRANCH  10  13
BRANCH   1  15
ATOM     15  O   UNL     1       2.696   2.798   2.769  0.00  0.00    -0.446 OA
BRANCH  15  17
ATOM     16  N   UNL     1       4.487   2.775   4.264  0.00  0.00    -0.281 N 
ATOM     17  C   UNL     1       3.164   2.677   4.026  0.00  0.00    +0.401 C 
ATOM     18  O   UNL     1       2.394   2.479   4.944  0.00  0.00    -0.226 OA
ATOM     19  H   UNL     1       5.102   2.933   3.531  0.00  0.00    +0.152 HD
BRANCH  16  21
ATOM     20  C   UNL     1       6.519   2.794   5.626  0.00  0.00    +0.024 C 
ATOM     21  C   UNL     1       4.996   2.643   5.632  0.00  0.00    +0.104 C 
ENDBRANCH  16  21
ENDBRANCH  15  17
ENDBRANCH   1  15
BRANCH   6  22
ATOM     22  C   UNL     1       1.544   3.036   0.129  0.00  0.00    +0.166 C 
BRANCH  22  23
ATOM     23  O   UNL     1       2.939   3.330   0.229  0.00  0.00    -0.394 OA
ATOM     24  H   UNL     1       3.457   3.045  -0.537  0.00  0.00    +0.209 HD
ENDBRANCH  22  23
ENDBRANCH   6  22
BRANCH  11  25
ATOM     25  C   UNL     1      -2.927   0.355   0.496  0.00  0.00    +0.102 C 
BRANCH  25  26
ATOM     26  C   UNL     1      -4.426   0.215   0.428  0.00  0.00    +0.214 C 
ATOM     27  O   UNL     1      -5.133   1.191   0.569  0.00  0.00    -0.276 OA
ATOM     28  N   UNL     1      -4.981  -0.994   0.212  0.00  0.00    -0.311 N 
ATOM     29  H   UNL     1      -4.415  -1.774   0.099  0.00  0.00    +0.149 HD
BRANCH  28  30
ATOM     30  C   UNL     1      -6.438  -1.129   0.146  0.00  0.00    +0.139 C 
BRANCH  30  31
ATOM     31  C   UNL     1      -6.797  -2.572  -0.103  0.00  0.00    -0.030 A 
ATOM     32  C   UNL     1      -6.932  -3.035  -1.399  0.00  0.00    +0.008 A 
ATOM     33  C   UNL     1      -7.257  -4.359  -1.629  0.00  0.00    +0.038 A 
ATOM     34  C   UNL     1      -7.457  -5.218  -0.561  0.00  0.00    +0.123 A 
ATOM     35  C   UNL     1      -7.326  -4.751   0.735  0.00  0.00    +0.038 A 
ATOM     36  C   UNL     1      -6.997  -3.428   0.963  0.00  0.00    +0.008 A 
ATOM     37  F   UNL     1      -7.779  -6.511  -0.785  0.00  0.00    -0.205 F 
ENDBRANCH  30  31
ENDBRANCH  28  30
ENDBRANCH  25  26
ENDBRANCH  11  25
TORSDOF 10
