REMARK  Name = ZINC20705980
REMARK  6 active torsions:
REMARK  status: ('A' for Active; 'I' for Inactive)
REMARK    1  A    between atoms: C_4  and  C_7
REMARK    2  A    between atoms: C_7  and  N_8
REMARK    3  A    between atoms: N_8  and  S_9
REMARK    4  A    between atoms: S_9  and  C_12
REMARK    5  A    between atoms: C_25  and  C_28
REMARK    6  A    between atoms: C_30  and  N_35
REMARK                            x       y       z     vdW  Elec       q    Type
REMARK                         _______ _______ _______ _____ _____    ______ ____
ROOT
ATOM      1  C   UNL     1      -1.237   8.350  -2.047  0.00  0.00    +0.106 A 
ATOM      2  C   UNL     1      -1.419   8.592  -0.697  0.00  0.00    +0.030 A 
ATOM      3  C   UNL     1      -1.786   7.564   0.148  0.00  0.00    +0.025 A 
ATOM      4  C   UNL     1      -1.972   6.280  -0.349  0.00  0.00    +0.031 A 
ATOM      5  C   UNL     1      -1.772   6.040  -1.713  0.00  0.00    -0.018 A 
ATOM      6  C   UNL     1      -1.414   7.074  -2.550  0.00  0.00    +0.034 A 
ATOM      7  C   UNL     1      -1.952   4.654  -2.195  0.00  0.00    +0.049 C 
ATOM      8  C   UNL     1      -2.333   4.351  -3.599  0.00  0.00    -0.023 C 
ATOM      9  C   UNL     1      -3.047   3.232  -3.613  0.00  0.00    -0.030 C 
ATOM     10  C   UNL     1      -3.230   2.711  -2.186  0.00  0.00    +0.033 C 
ATOM     11  C   UNL     1      -3.098   4.001  -1.366  0.00  0.00    +0.029 C 
ATOM     12  C   UNL     1      -2.553   3.871   0.045  0.00  0.00    +0.106 C 
ATOM     13  N   UNL     1      -2.357   5.256   0.526  0.00  0.00    -0.336 N 
ATOM     14  H   UNL     1      -2.513   5.498   1.587  0.00  0.00    +0.147 HD
ENDROOT
BRANCH  12  15
ATOM     15  C   UNL     1      -1.238   3.135   0.029  0.00  0.00    -0.007 A 
ATOM     16  C   UNL     1      -0.050   3.841   0.022  0.00  0.00    +0.039 A 
ATOM     17  C   UNL     1       1.156   3.166   0.007  0.00  0.00    +0.127 A 
ATOM     18  C   UNL     1       1.175   1.783   0.000  0.00  0.00    +0.034 A 
ATOM     19  C   UNL     1      -0.013   1.076   0.008  0.00  0.00    +0.022 A 
ATOM     20  C   UNL     1      -1.220   1.752   0.017  0.00  0.00    +0.046 A 
ATOM     21 CL   UNL     1      -2.712   0.864   0.019  0.00  0.00    -0.083 Cl
BRANCH  17  22
ATOM     22  N   UNL     1       2.428   3.923  -0.001  0.00  0.00    +0.056 N 
ATOM     23  O   UNL     1       3.490   3.328  -0.014  0.00  0.00    -0.126 OA
ATOM     24  O   UNL     1       2.412   5.140   0.005  0.00  0.00    -0.126 OA
ENDBRANCH  17  22
ENDBRANCH  12  15
BRANCH   1  25
ATOM     25  S   UNL     1      -0.778   9.666  -3.124  0.00  0.00    +0.059 S 
ATOM     26  O   UNL     1      -0.143  10.649  -2.317  0.00  0.00    -0.153 OA
ATOM     27  O   UNL     1      -0.138   9.070  -4.244  0.00  0.00    -0.153 OA
BRANCH  25  28
ATOM     28  N   UNL     1      -2.178  10.349  -3.687  0.00  0.00    -0.186 NA
ATOM     29  H   UNL     1      -2.498  10.146  -4.720  0.00  0.00    +0.148 HD
BRANCH  28  30
ATOM     30  C   UNL     1      -3.086  11.028  -2.759  0.00  0.00    +0.141 C 
BRANCH  30  34
ATOM     31  C   UNL     1      -5.871  13.395  -4.970  0.00  0.00    +0.000 A 
ATOM     32  C   UNL     1      -6.171  12.081  -4.665  0.00  0.00    +0.000 A 
ATOM     33  C   UNL     1      -5.270  11.315  -3.949  0.00  0.00    +0.005 A 
ATOM     34  C   UNL     1      -4.069  11.863  -3.539  0.00  0.00    -0.032 A 
ATOM     35  C   UNL     1      -3.772  13.179  -3.840  0.00  0.00    +0.005 A 
ATOM     36  C   UNL     1      -4.671  13.944  -4.559  0.00  0.00    +0.000 A 
ENDBRANCH  30  34
ENDBRANCH  28  30
ENDBRANCH  25  28
ENDBRANCH   1  25
TORSDOF 6
