REMARK  Name = ZINC20028763
REMARK  15 active torsions:
REMARK  status: ('A' for Active; 'I' for Inactive)
REMARK    1  A    between atoms: C_1  and  C_2
REMARK    2  A    between atoms: C_5  and  N_9
REMARK    3  A    between atoms: C_6  and  C_8
REMARK    4  A    between atoms: C_10  and  C_12
REMARK    5  A    between atoms: C_12  and  S_13
REMARK    6  A    between atoms: S_13  and  C_14
REMARK    7  A    between atoms: C_15  and  C_36
REMARK    8  A    between atoms: C_16  and  C_29
REMARK    9  A    between atoms: C_18  and  C_22
REMARK   10  A    between atoms: C_19  and  C_21
REMARK   11  A    between atoms: C_22  and  O_24
REMARK   12  A    between atoms: O_24  and  C_25
REMARK   13  A    between atoms: C_25  and  C_26
REMARK   14  A    between atoms: C_26  and  O_27
REMARK   15  A    between atoms: O_27  and  C_28
REMARK                            x       y       z     vdW  Elec       q    Type
REMARK                         _______ _______ _______ _____ _____    ______ ____
ROOT
ATOM      1  C   UNL     1      -3.787   0.696   1.332  0.00  0.00    +0.080 C 
ATOM      2  C   UNL     1      -2.755  -0.167   1.130  0.00  0.00    +0.069 C 
ATOM      3  C   UNL     1      -2.179  -0.385  -0.240  0.00  0.00    +0.102 C 
ATOM      4  C   UNL     1      -3.109   0.131  -1.300  0.00  0.00    +0.066 C 
ATOM      5  C   UNL     1      -4.115   0.973  -1.008  0.00  0.00    +0.016 C 
ATOM      6  N   UNL     1      -4.336   1.389   0.276  0.00  0.00    -0.312 N 
ATOM      7  C   UNL     1      -5.013   1.467  -2.112  0.00  0.00    +0.061 C 
ATOM      8  H   UNL     1      -4.953   2.280   0.464  0.00  0.00    +0.152 HD
ENDROOT
BRANCH   3   9
ATOM      9  C   UNL     1      -0.860   0.338  -0.344  0.00  0.00    -0.016 A 
ATOM     10  C   UNL     1      -0.812   1.712  -0.197  0.00  0.00    +0.006 A 
ATOM     11  C   UNL     1       0.397   2.375  -0.292  0.00  0.00    +0.000 A 
ATOM     12  C   UNL     1       1.559   1.665  -0.535  0.00  0.00    +0.001 A 
ATOM     13  C   UNL     1       1.511   0.292  -0.682  0.00  0.00    +0.020 A 
ATOM     14  C   UNL     1       0.301  -0.373  -0.586  0.00  0.00    +0.045 A 
ATOM     15 CL   UNL     1       0.241  -2.098  -0.770  0.00  0.00    -0.083 Cl
ENDBRANCH   3   9
BRANCH   4  16
ATOM     16  C   UNL     1      -2.923  -0.280  -2.639  0.00  0.00    +0.338 C 
ATOM     17  O   UNL     1      -3.725   0.047  -3.493  0.00  0.00    -0.245 OA
BRANCH  16  18
ATOM     18  O   UNL     1      -1.855  -1.035  -2.970  0.00  0.00    -0.459 OA
BRANCH  18  19
ATOM     19  C   UNL     1      -1.729  -1.415  -4.343  0.00  0.00    +0.260 C 
BRANCH  19  20
ATOM     20  C   UNL     1      -0.467  -2.261  -4.524  0.00  0.00    +0.200 C 
BRANCH  20  21
ATOM     21  O   UNL     1      -0.608  -3.487  -3.804  0.00  0.00    -0.380 OA
ATOM     22  C   UNL     1       0.521  -4.356  -3.908  0.00  0.00    +0.194 C 
ENDBRANCH  20  21
ENDBRANCH  19  20
ENDBRANCH  18  19
ENDBRANCH  16  18
ENDBRANCH   4  16
BRANCH   2  23
ATOM     23  C   UNL     1      -2.209  -0.881   2.244  0.00  0.00    +0.098 C 
ATOM     24  N   UNL     1      -1.775  -1.448   3.128  0.00  0.00    -0.191 NA
ENDBRANCH   2  23
BRANCH   1  25
ATOM     25  S   UNL     1      -4.427   0.929   2.957  0.00  0.00    -0.100 S 
BRANCH  25  26
ATOM     26  C   UNL     1      -5.729   2.139   2.612  0.00  0.00    +0.171 C 
BRANCH  26  28
ATOM     27  N   UNL     1      -7.446   3.387   3.881  0.00  0.00    -0.285 N 
ATOM     28  C   UNL     1      -6.434   2.498   3.895  0.00  0.00    +0.227 C 
ATOM     29  O   UNL     1      -6.090   1.986   4.939  0.00  0.00    -0.275 OA
ATOM     30  H   UNL     1      -7.805   3.797   2.925  0.00  0.00    +0.155 HD
BRANCH  27  35
ATOM     31  C   UNL     1      -9.857   5.017   8.751  0.00  0.00    +0.044 C 
ATOM     32  C   UNL     1      -9.216   4.584   7.457  0.00  0.00    -0.050 A 
ATOM     33  C   UNL     1      -8.757   3.287   7.315  0.00  0.00    +0.005 A 
ATOM     34  C   UNL     1      -8.170   2.887   6.130  0.00  0.00    +0.024 A 
ATOM     35  C   UNL     1      -8.041   3.789   5.082  0.00  0.00    +0.036 A 
ATOM     36  C   UNL     1      -8.497   5.092   5.231  0.00  0.00    -0.029 A 
ATOM     37  C   UNL     1      -9.089   5.484   6.416  0.00  0.00    +0.008 A 
ATOM     38  C   UNL     1      -8.353   6.075   4.098  0.00  0.00    +0.045 C 
ENDBRANCH  27  35
ENDBRANCH  26  28
ENDBRANCH  25  26
ENDBRANCH   1  25
TORSDOF 11
