REMARK  Name = ZINC36600908
REMARK  18 active torsions:
REMARK  status: ('A' for Active; 'I' for Inactive)
REMARK    1  A    between atoms: C_1  and  C_2
REMARK    2  A    between atoms: C_7  and  C_8
REMARK    3  A    between atoms: C_8  and  C_10
REMARK    4  A    between atoms: C_8  and  N_21
REMARK    5  A    between atoms: N_12  and  C_13
REMARK    6  A    between atoms: C_13  and  C_14
REMARK    7  A    between atoms: C_13  and  C_15
REMARK    8  A    between atoms: C_13  and  C_16
REMARK    9  A    between atoms: C_16  and  C_17
REMARK   10  A    between atoms: C_17  and  C_18
REMARK   11  A    between atoms: C_17  and  C_19
REMARK   12  A    between atoms: C_17  and  C_20
REMARK   13  A    between atoms: N_21  and  C_22
REMARK   14  A    between atoms: C_22  and  C_23
REMARK   15  A    between atoms: C_26  and  C_28
REMARK   16  A    between atoms: C_29  and  C_31
REMARK   17  A    between atoms: C_31  and  N_32
REMARK   18  A    between atoms: C_33  and  C_35
REMARK                            x       y       z     vdW  Elec       q    Type
REMARK                         _______ _______ _______ _____ _____    ______ ____
ROOT
ATOM      1  N   UNL     1      -0.244  -0.365   3.601  0.00  0.00    -0.277 N 
ATOM      2  C   UNL     1      -0.153  -1.624   3.130  0.00  0.00    +0.234 C 
ATOM      3  O   UNL     1      -0.683  -1.918   2.079  0.00  0.00    -0.274 OA
ENDROOT
BRANCH   1   4
ATOM      4  C   UNL     1      -0.983   0.649   2.844  0.00  0.00    +0.193 C 
BRANCH   4  11
ATOM      5  C   UNL     1       1.469   2.146   2.537  0.00  0.00    +0.044 C 
ATOM      6  C   UNL     1       0.810   1.524   1.333  0.00  0.00    -0.045 A 
ATOM      7  C   UNL     1       1.381   1.665   0.082  0.00  0.00    +0.004 A 
ATOM      8  C   UNL     1       0.777   1.095  -1.022  0.00  0.00    +0.000 A 
ATOM      9  C   UNL     1      -0.400   0.384  -0.876  0.00  0.00    +0.000 A 
ATOM     10  C   UNL     1      -0.971   0.242   0.375  0.00  0.00    +0.006 A 
ATOM     11  C   UNL     1      -0.363   0.808   1.480  0.00  0.00    -0.015 A 
ENDBRANCH   4  11
BRANCH   4  12
ATOM     12  C   UNL     1      -2.420   0.218   2.696  0.00  0.00    +0.239 C 
ATOM     13  O   UNL     1      -2.792  -0.829   3.183  0.00  0.00    -0.273 OA
ATOM     14  N   UNL     1      -3.291   0.995   2.023  0.00  0.00    -0.308 N 
ATOM     15  H   UNL     1      -2.978   1.796   1.572  0.00  0.00    +0.149 HD
BRANCH  14  16
ATOM     16  C   UNL     1      -4.709   0.632   1.972  0.00  0.00    +0.030 C 
ATOM     17  C   UNL     1      -4.873  -0.670   1.184  0.00  0.00    +0.031 C 
ATOM     18  C   UNL     1      -5.237   0.437   3.394  0.00  0.00    +0.031 C 
BRANCH  16  19
ATOM     19  C   UNL     1      -5.497   1.748   1.283  0.00  0.00    +0.031 C 
BRANCH  19  20
ATOM     20  C   UNL     1      -4.821   3.093   1.557  0.00  0.00    -0.036 C 
ATOM     21  C   UNL     1      -3.649   3.281   0.592  0.00  0.00    +0.010 C 
ATOM     22  C   UNL     1      -5.833   4.222   1.355  0.00  0.00    +0.010 C 
ATOM     23  C   UNL     1      -4.306   3.121   2.997  0.00  0.00    +0.010 C 
ENDBRANCH  19  20
ENDBRANCH  16  19
ENDBRANCH  14  16
ENDBRANCH   4  12
ENDBRANCH   1   4
BRANCH   1  24
ATOM     24  C   UNL     1       0.396  -0.010   4.870  0.00  0.00    +0.183 C 
BRANCH  24  25
ATOM     25  C   UNL     1      -0.595  -0.171   5.994  0.00  0.00    +0.122 A 
ATOM     26  C   UNL     1      -0.793  -1.289   6.715  0.00  0.00    +0.046 A 
ATOM     27  C   UNL     1      -1.806  -0.996   7.656  0.00  0.00    +0.045 A 
ATOM     28  C   UNL     1      -2.168   0.283   7.454  0.00  0.00    +0.102 A 
ATOM     29  O   UNL     1      -1.427   0.780   6.450  0.00  0.00    -0.463 OA
ATOM     30  C   UNL     1      -3.221   1.034   8.227  0.00  0.00    +0.086 C 
ENDBRANCH  24  25
ENDBRANCH   1  24
BRANCH   2  31
ATOM     31  C   UNL     1       0.607  -2.667   3.908  0.00  0.00    +0.200 C 
BRANCH  31  32
ATOM     32  N   UNL     1       0.559  -3.943   3.190  0.00  0.00    -0.303 N 
ATOM     33  C   UNL     1       1.174  -5.028   3.702  0.00  0.00    +0.244 C 
ATOM     34  O   UNL     1       1.770  -4.947   4.758  0.00  0.00    -0.270 OA
ATOM     35  H   UNL     1       0.084  -4.008   2.347  0.00  0.00    +0.150 HD
BRANCH  33  36
ATOM     36  C   UNL     1       1.126  -6.316   2.977  0.00  0.00    +0.037 A 
ATOM     37  C   UNL     1       0.448  -6.411   1.761  0.00  0.00    +0.013 A 
ATOM     38  C   UNL     1       0.407  -7.615   1.090  0.00  0.00    +0.001 A 
ATOM     39  C   UNL     1       1.035  -8.728   1.621  0.00  0.00    +0.000 A 
ATOM     40  C   UNL     1       1.708  -8.641   2.826  0.00  0.00    +0.001 A 
ATOM     41  C   UNL     1       1.762  -7.441   3.504  0.00  0.00    +0.013 A 
ENDBRANCH  33  36
ENDBRANCH  31  32
ENDBRANCH   2  31
TORSDOF 11
