REMARK  Name = ZINC40826897
REMARK  10 active torsions:
REMARK  status: ('A' for Active; 'I' for Inactive)
REMARK    1  A    between atoms: C_1  and  C_2
REMARK    2  A    between atoms: C_5  and  N_9
REMARK    3  A    between atoms: C_7  and  C_8
REMARK    4  A    between atoms: C_10  and  C_12
REMARK    5  A    between atoms: C_13  and  C_37
REMARK    6  A    between atoms: N_21  and  N_22
REMARK    7  A    between atoms: C_23  and  C_25
REMARK    8  A    between atoms: C_25  and  C_26
REMARK    9  A    between atoms: C_31  and  C_36
REMARK   10  A    between atoms: C_33  and  C_35
REMARK                            x       y       z     vdW  Elec       q    Type
REMARK                         _______ _______ _______ _____ _____    ______ ____
ROOT
ATOM      1  C   UNL     1      -0.132  -6.302  -1.187  0.00  0.00    +0.193 A 
ATOM      2  C   UNL     1      -0.230  -7.096  -2.296  0.00  0.00    +0.009 A 
ATOM      3  C   UNL     1      -0.291  -8.414  -1.829  0.00  0.00    +0.042 A 
ATOM      4  C   UNL     1      -0.229  -8.369  -0.456  0.00  0.00    +0.115 A 
ATOM      5  O   UNL     1      -0.127  -7.094  -0.091  0.00  0.00    -0.454 OA
ATOM      6  C   UNL     1      -0.274  -9.604   0.408  0.00  0.00    +0.075 C 
ATOM      7  C   UNL     1      -0.894 -10.758  -0.386  0.00  0.00    +0.014 C 
ATOM      8  C   UNL     1      -0.172 -10.943  -1.724  0.00  0.00    +0.058 C 
ATOM      9  C   UNL     1      -0.399  -9.694  -2.564  0.00  0.00    +0.070 C 
ATOM     10  N   UNL     1      -0.668  -9.748  -3.832  0.00  0.00    -0.184 NA
ATOM     11  C   UNL     1      -0.265  -6.642  -3.733  0.00  0.00    +0.048 C 
ENDROOT
BRANCH   1  13
ATOM     12  N   UNL     1       0.058  -4.169  -0.021  0.00  0.00    -0.279 N 
ATOM     13  C   UNL     1      -0.041  -4.838  -1.187  0.00  0.00    +0.284 C 
ATOM     14  O   UNL     1      -0.054  -4.227  -2.239  0.00  0.00    -0.266 OA
ATOM     15  H   UNL     1       0.146  -4.657   0.812  0.00  0.00    +0.155 HD
BRANCH  12  20
ATOM     16  C   UNL     1      -0.039   1.502   0.012  0.00  0.00    +0.044 C 
ATOM     17  C   UNL     1      -0.014  -0.004   0.003  0.00  0.00    -0.047 A 
ATOM     18  C   UNL     1       0.748  -0.687   0.934  0.00  0.00    +0.005 A 
ATOM     19  C   UNL     1       0.774  -2.067   0.929  0.00  0.00    +0.023 A 
ATOM     20  C   UNL     1       0.034  -2.771  -0.013  0.00  0.00    +0.034 A 
ATOM     21  C   UNL     1      -0.730  -2.083  -0.946  0.00  0.00    +0.027 A 
ATOM     22  C   UNL     1      -0.756  -0.702  -0.932  0.00  0.00    -0.046 A 
ATOM     23  C   UNL     1      -1.590   0.046  -1.940  0.00  0.00    +0.044 C 
ENDBRANCH  12  20
ENDBRANCH   1  13
BRANCH  10  24
ATOM     24  N   UNL     1      -0.759 -10.988  -4.477  0.00  0.00    -0.206 N 
ATOM     25  C   UNL     1      -1.038 -11.044  -5.795  0.00  0.00    +0.237 C 
ATOM     26  O   UNL     1      -1.211 -10.020  -6.422  0.00  0.00    -0.274 OA
ATOM     27  H   UNL     1      -0.620 -11.807  -3.976  0.00  0.00    +0.177 HD
BRANCH  25  28
ATOM     28  C   UNL     1      -1.135 -12.378  -6.489  0.00  0.00    +0.136 C 
BRANCH  28  29
ATOM     29  C   UNL     1      -1.455 -12.164  -7.946  0.00  0.00    +0.007 A 
ATOM     30  C   UNL     1      -2.668 -12.177  -8.514  0.00  0.00    +0.200 A 
ATOM     31  O   UNL     1      -2.564 -11.948  -9.834  0.00  0.00    -0.463 OA
ATOM     32  C   UNL     1      -1.276 -11.775 -10.192  0.00  0.00    +0.136 A 
ATOM     33  C   UNL     1      -0.500 -11.895  -9.027  0.00  0.00    +0.027 A 
ATOM     34  C   UNL     1       0.886 -11.756  -9.091  0.00  0.00    -0.039 A 
ATOM     35  C   UNL     1       1.488 -11.497 -10.303  0.00  0.00    +0.007 A 
ATOM     36  C   UNL     1       0.722 -11.376 -11.453  0.00  0.00    -0.047 A 
ATOM     37  C   UNL     1      -0.648 -11.519 -11.404  0.00  0.00    +0.050 A 
ATOM     38  C   UNL     1       1.396 -11.092 -12.771  0.00  0.00    +0.044 C 
ATOM     39  C   UNL     1       1.719 -11.887  -7.843  0.00  0.00    +0.044 C 
ENDBRANCH  28  29
ENDBRANCH  25  28
ENDBRANCH  10  24
TORSDOF 5
