REMARK  Name = ZINC21123415
REMARK  10 active torsions:
REMARK  status: ('A' for Active; 'I' for Inactive)
REMARK    1  A    between atoms: C_1  and  C_2
REMARK    2  A    between atoms: C_7  and  C_8
REMARK    3  A    between atoms: C_11  and  S_14
REMARK    4  A    between atoms: N_12  and  C_13
REMARK    5  A    between atoms: S_14  and  C_15
REMARK    6  A    between atoms: C_15  and  C_17
REMARK    7  A    between atoms: C_15  and  C_18
REMARK    8  A    between atoms: N_20  and  C_21
REMARK    9  A    between atoms: C_24  and  S_27
REMARK   10  A    between atoms: S_27  and  N_30
REMARK                            x       y       z     vdW  Elec       q    Type
REMARK                         _______ _______ _______ _____ _____    ______ ____
ROOT
ATOM      1  C   UNL     1       1.088  -6.966  -0.041  0.00  0.00    +0.137 C 
ATOM      2  C   UNL     1       1.998  -6.845   1.184  0.00  0.00    +0.029 C 
ENDROOT
BRANCH   1   3
ATOM      3  C   UNL     1       0.514  -8.358  -0.105  0.00  0.00    +0.230 C 
ATOM      4  O   UNL     1      -0.614  -8.568   0.287  0.00  0.00    -0.274 OA
ATOM      5  N   UNL     1       1.255  -9.370  -0.598  0.00  0.00    -0.285 N 
ATOM      6  H   UNL     1       2.307  -9.200  -0.870  0.00  0.00    +0.155 HD
BRANCH   5   7
ATOM      7  C   UNL     1       0.686 -10.638  -0.764  0.00  0.00    +0.034 A 
ATOM      8  C   UNL     1       1.456 -11.777  -0.566  0.00  0.00    +0.025 A 
ATOM      9  C   UNL     1       0.889 -13.027  -0.724  0.00  0.00    +0.030 A 
ATOM     10  C   UNL     1      -0.439 -13.144  -1.091  0.00  0.00    +0.105 A 
ATOM     11  C   UNL     1      -1.206 -12.011  -1.294  0.00  0.00    +0.030 A 
ATOM     12  C   UNL     1      -0.647 -10.759  -1.131  0.00  0.00    +0.025 A 
BRANCH  10  13
ATOM     13  S   UNL     1      -1.156 -14.740  -1.299  0.00  0.00    +0.056 S 
ATOM     14  O   UNL     1      -0.378 -15.639  -0.520  0.00  0.00    -0.153 OA
ATOM     15  O   UNL     1      -2.556 -14.584  -1.112  0.00  0.00    -0.153 OA
BRANCH  13  16
ATOM     16  N   UNL     1      -0.935 -15.173  -2.883  0.00  0.00    -0.204 NA
ATOM     17  H   UNL     1      -1.371 -16.169  -3.055  0.00  0.00    +0.144 HD
ATOM     18  H   UNL     1       0.141 -15.200  -3.109  0.00  0.00    +0.144 HD
ENDBRANCH  13  16
ENDBRANCH  10  13
ENDBRANCH   5   7
ENDBRANCH   1   3
BRANCH   1  19
ATOM     19  S   UNL     1      -0.259  -5.764   0.088  0.00  0.00    -0.074 S 
BRANCH  19  23
ATOM     20  C   UNL     1       1.234  -2.157  -0.068  0.00  0.00    +0.165 A 
ATOM     21  N   UNL     1       2.301  -2.915  -0.170  0.00  0.00    -0.128 NA
ATOM     22  N   UNL     1       1.963  -4.154  -0.134  0.00  0.00    -0.122 NA
ATOM     23  C   UNL     1       0.660  -4.263  -0.006  0.00  0.00    +0.192 A 
ATOM     24  N   UNL     1       0.151  -2.997   0.046  0.00  0.00    -0.305 N 
ATOM     25  C   UNL     1      -1.256  -2.614   0.191  0.00  0.00    +0.153 C 
BRANCH  20  32
ATOM     26  C   UNL     1       3.012  -0.688   1.680  0.00  0.00    +0.044 C 
ATOM     27  C   UNL     1       2.057   0.041   0.770  0.00  0.00    -0.040 A 
ATOM     28  C   UNL     1       2.023   1.420   0.764  0.00  0.00    +0.004 A 
ATOM     29  C   UNL     1       1.146   2.090  -0.070  0.00  0.00    +0.000 A 
ATOM     30  C   UNL     1       0.297   1.383  -0.904  0.00  0.00    +0.001 A 
ATOM     31  C   UNL     1       0.321   0.004  -0.908  0.00  0.00    +0.012 A 
ATOM     32  C   UNL     1       1.203  -0.679  -0.068  0.00  0.00    +0.022 A 
ENDBRANCH  20  32
ENDBRANCH  19  23
ENDBRANCH   1  19
TORSDOF 7
