REMARK  Name = ZINC59170612
REMARK  6 active torsions:
REMARK  status: ('A' for Active; 'I' for Inactive)
REMARK    1  A    between atoms: C_1  and  C_2
REMARK    2  A    between atoms: C_9  and  C_23
REMARK    3  A    between atoms: N_11  and  C_12
REMARK    4  A    between atoms: C_15  and  S_18
REMARK    5  A    between atoms: S_18  and  N_21
REMARK    6  A    between atoms: N_25  and  C_26
REMARK                            x       y       z     vdW  Elec       q    Type
REMARK                         _______ _______ _______ _____ _____    ______ ____
ROOT
ATOM      1  C   UNL     1      -1.283   1.239   0.061  0.00  0.00    +0.044 C 
ATOM      2  C   UNL     1      -0.803  -0.188   0.002  0.00  0.00    -0.050 A 
ATOM      3  C   UNL     1      -0.084  -0.627  -1.101  0.00  0.00    +0.007 A 
ATOM      4  C   UNL     1       0.363  -1.931  -1.177  0.00  0.00    +0.047 A 
ATOM      5  C   UNL     1       0.094  -2.813  -0.141  0.00  0.00    +0.137 A 
ATOM      6  C   UNL     1      -0.632  -2.366   0.979  0.00  0.00    +0.018 A 
ATOM      7  C   UNL     1      -1.074  -1.038   1.037  0.00  0.00    +0.015 A 
ATOM      8  C   UNL     1      -0.907  -3.296   2.076  0.00  0.00    +0.030 A 
ATOM      9  C   UNL     1      -0.209  -4.497   2.084  0.00  0.00    +0.098 A 
ATOM     10  C   UNL     1       0.748  -4.726   0.983  0.00  0.00    +0.212 A 
ATOM     11  N   UNL     1       1.788  -5.515   1.142  0.00  0.00    -0.325 N 
ATOM     12  O   UNL     1       0.520  -4.098  -0.199  0.00  0.00    -0.439 OA
ATOM     13  H   UNL     1       1.993  -5.877   2.018  0.00  0.00    +0.169 HD
ENDROOT
BRANCH  11  14
ATOM     14  C   UNL     1       2.581  -5.825   0.072  0.00  0.00    +0.042 A 
ATOM     15  C   UNL     1       2.004  -6.179  -1.150  0.00  0.00    +0.027 A 
ATOM     16  C   UNL     1       2.810  -6.491  -2.225  0.00  0.00    +0.030 A 
ATOM     17  C   UNL     1       4.187  -6.454  -2.095  0.00  0.00    +0.105 A 
ATOM     18  C   UNL     1       4.766  -6.105  -0.888  0.00  0.00    +0.030 A 
ATOM     19  C   UNL     1       3.972  -5.785   0.194  0.00  0.00    +0.027 A 
BRANCH  17  20
ATOM     20  S   UNL     1       5.208  -6.854  -3.474  0.00  0.00    +0.056 S 
ATOM     21  O   UNL     1       6.458  -7.275  -2.945  0.00  0.00    -0.153 OA
ATOM     22  O   UNL     1       4.429  -7.676  -4.332  0.00  0.00    -0.153 OA
BRANCH  20  23
ATOM     23  N   UNL     1       5.493  -5.446  -4.298  0.00  0.00    -0.204 NA
ATOM     24  H   UNL     1       5.111  -4.613  -3.980  0.00  0.00    +0.144 HD
ATOM     25  H   UNL     1       6.041  -5.454  -5.098  0.00  0.00    +0.144 HD
ENDBRANCH  20  23
ENDBRANCH  17  20
ENDBRANCH  11  14
BRANCH   9  26
ATOM     26  C   UNL     1      -0.413  -5.498   3.144  0.00  0.00    +0.253 C 
ATOM     27  O   UNL     1      -1.113  -5.233   4.104  0.00  0.00    -0.270 OA
ATOM     28  N   UNL     1       0.174  -6.707   3.052  0.00  0.00    -0.280 N 
ATOM     29  H   UNL     1       0.775  -6.899   2.316  0.00  0.00    +0.155 HD
BRANCH  28  30
ATOM     30  C   UNL     1      -0.083  -7.686   4.019  0.00  0.00    +0.052 A 
ATOM     31  C   UNL     1      -0.417  -7.312   5.315  0.00  0.00    +0.026 A 
ATOM     32  C   UNL     1      -0.670  -8.280   6.267  0.00  0.00    +0.022 A 
ATOM     33  C   UNL     1      -0.592  -9.620   5.932  0.00  0.00    +0.042 A 
ATOM     34  C   UNL     1      -0.259  -9.996   4.643  0.00  0.00    +0.041 A 
ATOM     35  C   UNL     1      -0.010  -9.032   3.684  0.00  0.00    +0.064 A 
ATOM     36 CL   UNL     1       0.401  -9.503   2.064  0.00  0.00    -0.082 Cl
ATOM     37 CL   UNL     1      -0.911 -10.833   7.133  0.00  0.00    -0.083 Cl
ENDBRANCH  28  30
ENDBRANCH   9  26
TORSDOF 5
