REMARK  Name = ZINC34847413
REMARK  9 active torsions:
REMARK  status: ('A' for Active; 'I' for Inactive)
REMARK    1  A    between atoms: C_1  and  C_2
REMARK    2  A    between atoms: C_2  and  C_4
REMARK    3  A    between atoms: C_2  and  N_10
REMARK    4  A    between atoms: C_11  and  C_36
REMARK    5  A    between atoms: C_19  and  C_25
REMARK    6  A    between atoms: N_27  and  C_28
REMARK    7  A    between atoms: C_31  and  O_34
REMARK    8  A    between atoms: O_34  and  C_35
REMARK    9  A    between atoms: N_38  and  C_39
REMARK                            x       y       z     vdW  Elec       q    Type
REMARK                         _______ _______ _______ _____ _____    ______ ____
ROOT
ATOM      1  N   UNL     1       0.988  -0.463   0.872  0.00  0.00    -0.280 N 
ATOM      2  C   UNL     1       2.310  -1.133   0.663  0.00  0.00    +0.199 C 
ATOM      3  C   UNL     1       2.458  -1.925   1.925  0.00  0.00    +0.127 C 
ATOM      4  C   UNL     1       1.514  -3.112   1.991  0.00  0.00    +0.009 C 
ATOM      5  C   UNL     1       1.768  -3.709   3.146  0.00  0.00    +0.004 C 
ATOM      6  C   UNL     1       2.837  -2.838   3.817  0.00  0.00    +0.155 C 
ATOM      7  O   UNL     1       3.598  -2.348   2.636  0.00  0.00    -0.358 OA
ATOM      8  C   UNL     1       2.006  -1.568   4.251  0.00  0.00    +0.123 C 
ATOM      9  C   UNL     1       1.941  -0.813   2.924  0.00  0.00    +0.128 C 
ATOM     10  C   UNL     1       0.728  -0.364   2.217  0.00  0.00    +0.224 C 
ATOM     11  O   UNL     1      -0.304   0.017   2.727  0.00  0.00    -0.275 OA
ENDROOT
BRANCH   8  12
ATOM     12  C   UNL     1       0.635  -1.960   4.740  0.00  0.00    +0.224 C 
ATOM     13  O   UNL     1      -0.352  -1.556   4.163  0.00  0.00    -0.275 OA
ATOM     14  N   UNL     1       0.507  -2.758   5.818  0.00  0.00    -0.285 N 
ATOM     15  H   UNL     1       1.295  -3.143   6.233  0.00  0.00    +0.155 HD
BRANCH  14  16
ATOM     16  C   UNL     1      -0.764  -3.032   6.340  0.00  0.00    +0.034 A 
ATOM     17  C   UNL     1      -0.989  -4.211   7.038  0.00  0.00    +0.027 A 
ATOM     18  C   UNL     1      -2.242  -4.480   7.553  0.00  0.00    +0.047 A 
ATOM     19  C   UNL     1      -3.276  -3.573   7.372  0.00  0.00    +0.120 A 
ATOM     20  C   UNL     1      -3.052  -2.395   6.674  0.00  0.00    +0.047 A 
ATOM     21  C   UNL     1      -1.798  -2.122   6.164  0.00  0.00    +0.027 A 
BRANCH  19  22
ATOM     22  O   UNL     1      -4.509  -3.838   7.878  0.00  0.00    -0.495 OA
ATOM     23  C   UNL     1      -5.527  -2.861   7.654  0.00  0.00    +0.277 C 
ENDBRANCH  19  22
ENDBRANCH  14  16
ENDBRANCH   8  12
BRANCH   2  24
ATOM     24  C   UNL     1       2.270  -2.040  -0.541  0.00  0.00    +0.237 C 
ATOM     25  O   UNL     1       1.204  -2.408  -0.988  0.00  0.00    -0.274 OA
ATOM     26  N   UNL     1       3.418  -2.442  -1.120  0.00  0.00    -0.311 N 
ATOM     27  H   UNL     1       4.271  -2.148  -0.762  0.00  0.00    +0.149 HD
BRANCH  26  28
ATOM     28  C   UNL     1       3.380  -3.323  -2.290  0.00  0.00    +0.073 C 
ATOM     29  C   UNL     1       3.274  -4.778  -1.829  0.00  0.00    +0.022 C 
ATOM     30  C   UNL     1       3.234  -5.698  -3.050  0.00  0.00    +0.002 C 
ATOM     31  C   UNL     1       4.512  -5.514  -3.870  0.00  0.00    +0.000 C 
ATOM     32  C   UNL     1       4.618  -4.059  -4.331  0.00  0.00    +0.002 C 
ATOM     33  C   UNL     1       4.658  -3.139  -3.110  0.00  0.00    +0.022 C 
ENDBRANCH  26  28
ENDBRANCH   2  24
BRANCH   1  35
ATOM     34  C   UNL     1      -0.424   1.407   0.170  0.00  0.00    +0.033 C 
ATOM     35  C   UNL     1       0.108   0.020  -0.196  0.00  0.00    +0.104 C 
BRANCH  35  36
ATOM     36  C   UNL     1      -1.047  -0.933  -0.364  0.00  0.00    -0.027 A 
ATOM     37  C   UNL     1      -1.723  -1.403   0.747  0.00  0.00    +0.005 A 
ATOM     38  C   UNL     1      -2.783  -2.277   0.593  0.00  0.00    +0.000 A 
ATOM     39  C   UNL     1      -3.167  -2.681  -0.672  0.00  0.00    +0.000 A 
ATOM     40  C   UNL     1      -2.492  -2.210  -1.783  0.00  0.00    +0.000 A 
ATOM     41  C   UNL     1      -1.435  -1.333  -1.629  0.00  0.00    +0.005 A 
ENDBRANCH  35  36
ENDBRANCH   1  35
TORSDOF 7
