REMARK  Name = ZINC55552013
REMARK  8 active torsions:
REMARK  status: ('A' for Active; 'I' for Inactive)
REMARK    1  A    between atoms: C_1  and  C_2
REMARK    2  A    between atoms: C_2  and  C_3
REMARK    3  A    between atoms: C_2  and  O_4
REMARK    4  A    between atoms: O_4  and  C_5
REMARK    5  A    between atoms: C_5  and  C_6
REMARK    6  A    between atoms: C_14  and  C_15
REMARK    7  A    between atoms: N_17  and  C_18
REMARK    8  A    between atoms: C_21  and  N_24
REMARK                            x       y       z     vdW  Elec       q    Type
REMARK                         _______ _______ _______ _____ _____    ______ ____
ROOT
ATOM      1  C   UNL     1      -3.716  -1.081  -2.683  0.00  0.00    +0.284 C 
ATOM      2  O   UNL     1      -2.627  -0.612  -2.957  0.00  0.00    -0.266 OA
ATOM      3  N   UNL     1      -4.765  -0.873  -3.503  0.00  0.00    -0.279 N 
ATOM      4  H   UNL     1      -5.616  -1.301  -3.321  0.00  0.00    +0.155 HD
ENDROOT
BRANCH   1  13
ATOM      5  C   UNL     1      -2.905  -2.148  -0.561  0.00  0.00    +0.036 A 
ATOM      6  C   UNL     1      -3.529  -2.953   0.489  0.00  0.00    +0.026 A 
ATOM      7  C   UNL     1      -3.068  -3.537   1.672  0.00  0.00    +0.012 A 
ATOM      8  C   UNL     1      -3.931  -4.248   2.457  0.00  0.00    +0.001 A 
ATOM      9  C   UNL     1      -5.261  -4.395   2.086  0.00  0.00    +0.004 A 
ATOM     10  C   UNL     1      -5.735  -3.827   0.923  0.00  0.00    +0.047 A 
ATOM     11  C   UNL     1      -4.876  -3.098   0.109  0.00  0.00    +0.136 A 
ATOM     12  O   UNL     1      -5.043  -2.443  -1.056  0.00  0.00    -0.450 OA
ATOM     13  C   UNL     1      -3.887  -1.874  -1.458  0.00  0.00    +0.196 A 
BRANCH   5  14
ATOM     14  C   UNL     1      -1.466  -1.707  -0.629  0.00  0.00    +0.200 C 
BRANCH  14  15
ATOM     15  O   UNL     1      -1.321  -0.447   0.030  0.00  0.00    -0.372 OA
BRANCH  15  17
ATOM     16  C   UNL     1      -0.026   1.593   0.033  0.00  0.00    +0.037 C 
ATOM     17  C   UNL     1       0.013   0.064   0.022  0.00  0.00    +0.113 C 
ATOM     18  C   UNL     1       0.758  -0.436   1.262  0.00  0.00    +0.037 C 
ENDBRANCH  15  17
ENDBRANCH  14  15
ENDBRANCH   5  14
ENDBRANCH   1  13
BRANCH   3  19
ATOM     19  C   UNL     1      -4.626  -0.038  -4.619  0.00  0.00    +0.034 A 
ATOM     20  C   UNL     1      -5.688   0.761  -5.024  0.00  0.00    +0.025 A 
ATOM     21  C   UNL     1      -5.551   1.584  -6.125  0.00  0.00    +0.025 A 
ATOM     22  C   UNL     1      -4.353   1.613  -6.825  0.00  0.00    +0.035 A 
ATOM     23  C   UNL     1      -3.291   0.814  -6.420  0.00  0.00    +0.025 A 
ATOM     24  C   UNL     1      -3.426  -0.004  -5.316  0.00  0.00    +0.025 A 
BRANCH  22  25
ATOM     25  N   UNL     1      -4.214   2.447  -7.942  0.00  0.00    -0.270 N 
ATOM     26  C   UNL     1      -3.471   2.049  -8.993  0.00  0.00    +0.301 C 
ATOM     27  O   UNL     1      -2.852   1.004  -8.939  0.00  0.00    -0.253 OA
ATOM     28  N   UNL     1      -3.413   2.809 -10.104  0.00  0.00    -0.313 N 
ATOM     29  H   UNL     1      -4.653   3.312  -7.959  0.00  0.00    +0.156 HD
ATOM     30  H   UNL     1      -3.906   3.644 -10.148  0.00  0.00    +0.146 HD
ATOM     31  H   UNL     1      -2.877   2.523 -10.861  0.00  0.00    +0.146 HD
ENDBRANCH  22  25
ENDBRANCH   3  19
TORSDOF 6
