REMARK  Name = ZINC02949845
REMARK  2 active torsions:
REMARK  status: ('A' for Active; 'I' for Inactive)
REMARK    1  A    between atoms: C_1  and  C_2
REMARK    2  A    between atoms: C_3  and  N_9
REMARK                            x       y       z     vdW  Elec       q    Type
REMARK                         _______ _______ _______ _____ _____    ______ ____
ROOT
ATOM      1  N   UNL     1      -1.237   2.069   0.019  0.00  0.00    -0.243 N 
ATOM      2  C   UNL     1      -1.826   2.389   1.171  0.00  0.00    +0.231 C 
ATOM      3  O   UNL     1      -1.319   2.108   2.236  0.00  0.00    -0.274 OA
ATOM      4  C   UNL     1      -3.156   3.126   1.098  0.00  0.00    +0.168 C 
ATOM      5  S   UNL     1      -3.159   3.642  -0.675  0.00  0.00    -0.111 S 
ATOM      6  C   UNL     1      -1.891   2.439  -1.232  0.00  0.00    +0.192 C 
ATOM      7  C   UNL     1      -0.964   3.061  -2.229  0.00  0.00    +0.017 A 
ATOM      8  C   UNL     1      -0.105   4.137  -2.195  0.00  0.00    +0.009 A 
ATOM      9  C   UNL     1       0.636   4.469  -3.314  0.00  0.00    +0.000 A 
ATOM     10  C   UNL     1       0.514   3.717  -4.469  0.00  0.00    +0.002 A 
ATOM     11  C   UNL     1      -0.343   2.638  -4.509  0.00  0.00    +0.024 A 
ATOM     12  C   UNL     1      -1.093   2.296  -3.387  0.00  0.00    +0.040 A 
ATOM     13  N   UNL     1      -2.014   1.264  -3.184  0.00  0.00    -0.282 N 
ATOM     14  C   UNL     1      -2.527   1.280  -1.936  0.00  0.00    +0.256 C 
ATOM     15  O   UNL     1      -3.344   0.509  -1.477  0.00  0.00    -0.272 OA
ATOM     16  H   UNL     1      -2.255   0.612  -3.861  0.00  0.00    +0.155 HD
ENDROOT
BRANCH   1  19
ATOM     17  C   UNL     1      -1.292  -0.776   0.010  0.00  0.00    +0.047 C 
ATOM     18  C   UNL     1       0.002  -0.004   0.002  0.00  0.00    -0.011 A 
ATOM     19  C   UNL     1      -0.017   1.385   0.010  0.00  0.00    +0.043 A 
ATOM     20  C   UNL     1       1.178   2.092   0.002  0.00  0.00    +0.024 A 
ATOM     21  C   UNL     1       2.381   1.414  -0.013  0.00  0.00    +0.003 A 
ATOM     22  C   UNL     1       2.398   0.032  -0.021  0.00  0.00    +0.020 A 
ATOM     23  C   UNL     1       1.209  -0.677  -0.013  0.00  0.00    +0.046 A 
ATOM     24 CL   UNL     1       1.235  -2.413  -0.023  0.00  0.00    -0.083 Cl
ENDBRANCH   1  19
TORSDOF 1
