REMARK  Name = ZINC49027923
REMARK  4 active torsions:
REMARK  status: ('A' for Active; 'I' for Inactive)
REMARK    1  A    between atoms: C_3  and  C_16
REMARK    2  A    between atoms: N_10  and  C_11
REMARK    3  A    between atoms: C_11  and  C_12
REMARK    4  A    between atoms: C_16  and  N_17
REMARK                            x       y       z     vdW  Elec       q    Type
REMARK                         _______ _______ _______ _____ _____    ______ ____
ROOT
ATOM      1  C   UNL     1      -0.020   1.530   0.013  0.00  0.00    +0.019 C 
ATOM      2  C   UNL     1       1.417   2.056   0.003  0.00  0.00    +0.008 C 
ATOM      3  C   UNL     1       2.147   1.575   1.259  0.00  0.00    +0.024 C 
ATOM      4  C   UNL     1       2.193   0.044   1.263  0.00  0.00    +0.114 C 
ATOM      5  N   UNL     1       0.824  -0.471   1.127  0.00  0.00    -0.285 N 
ATOM      6  C   UNL     1       0.002  -0.002   0.003  0.00  0.00    +0.109 C 
ATOM      7  C   UNL     1       0.332  -1.357   2.016  0.00  0.00    +0.302 C 
ATOM      8  O   UNL     1       1.050  -1.807   2.887  0.00  0.00    -0.253 OA
ATOM      9  N   UNL     1      -0.957  -1.743   1.939  0.00  0.00    -0.291 N 
ATOM     10  H   UNL     1      -1.511  -1.442   1.201  0.00  0.00    +0.151 HD
ENDROOT
BRANCH   9  11
ATOM     11  C   UNL     1      -1.522  -2.618   2.969  0.00  0.00    +0.218 C 
BRANCH  11  12
ATOM     12  C   UNL     1      -2.990  -2.903   2.646  0.00  0.00    +0.405 C 
ATOM     13  F   UNL     1      -3.081  -3.531   1.400  0.00  0.00    -0.169 F 
ATOM     14  F   UNL     1      -3.530  -3.739   3.630  0.00  0.00    -0.169 F 
ATOM     15  F   UNL     1      -3.703  -1.700   2.615  0.00  0.00    -0.169 F 
ENDBRANCH  11  12
ENDBRANCH   9  11
BRANCH   3  16
ATOM     16  C   UNL     1       3.573   2.130   1.264  0.00  0.00    +0.110 C 
BRANCH  16  17
ATOM     17  N   UNL     1       4.233   1.769   2.522  0.00  0.00    -0.299 N 
ATOM     18  C   UNL     1       5.504   2.153   2.750  0.00  0.00    +0.297 C 
ATOM     19  O   UNL     1       6.104   2.799   1.913  0.00  0.00    -0.253 OA
ATOM     20  N   UNL     1       6.111   1.821   3.907  0.00  0.00    -0.313 N 
ATOM     21  H   UNL     1       3.754   1.253   3.190  0.00  0.00    +0.150 HD
ATOM     22  H   UNL     1       5.633   1.305   4.575  0.00  0.00    +0.146 HD
ATOM     23  H   UNL     1       7.026   2.098   4.072  0.00  0.00    +0.146 HD
ENDBRANCH  16  17
ENDBRANCH   3  16
TORSDOF 4
