REMARK  Name = ZINC39467121
REMARK  4 active torsions:
REMARK  status: ('A' for Active; 'I' for Inactive)
REMARK    1  A    between atoms: C_4  and  O_33
REMARK    2  A    between atoms: C_5  and  C_7
REMARK    3  A    between atoms: P_16  and  C_26
REMARK    4  A    between atoms: C_31  and  O_32
REMARK                            x       y       z     vdW  Elec       q    Type
REMARK                         _______ _______ _______ _____ _____    ______ ____
ROOT
ATOM      1  C   UNL     1       1.245  -2.165  -0.023  0.00  0.00    -0.000 C 
ATOM      2  C   UNL     1       0.950  -2.844  -1.145  0.00  0.00    -0.013 C 
ATOM      3  C   UNL     1       0.973  -4.348  -1.124  0.00  0.00    +0.016 C 
ATOM      4  C   UNL     1       0.102  -4.912  -2.239  0.00  0.00    -0.003 C 
ATOM      5  C   UNL     1      -1.372  -4.552  -2.013  0.00  0.00    -0.020 C 
ATOM      6  C   UNL     1      -2.171  -5.184  -3.161  0.00  0.00    +0.157 C 
ATOM      7  O   UNL     1      -3.561  -4.837  -3.028  0.00  0.00    -0.316 OA
ATOM      8  P   UNL     1      -4.265  -5.085  -1.582  0.00  0.00    +0.291 P 
ATOM      9  O   UNL     1      -4.639  -6.508  -1.430  0.00  0.00    -0.269 OA
ATOM     10  N   UNL     1      -3.121  -4.671  -0.467  0.00  0.00    -0.288 NA
ATOM     11  N   UNL     1      -1.819  -5.055  -0.712  0.00  0.00    +0.398 N 
ATOM     12  C   UNL     1      -1.014  -4.465   0.369  0.00  0.00    -0.046 C 
ATOM     13  C   UNL     1       0.441  -4.849   0.222  0.00  0.00    +0.006 C 
ATOM     14  C   UNL     1       1.216  -4.182   1.332  0.00  0.00    -0.004 C 
ATOM     15  C   UNL     1       1.601  -2.915   1.202  0.00  0.00    +0.045 C 
ATOM     16 CL   UNL     1       2.509  -2.143   2.464  0.00  0.00    -0.083 Cl
ATOM     17  H   UNL     1      -3.357  -4.176   0.333  0.00  0.00    +0.111 HD
ATOM     18  H   UNL     1      -1.750  -6.061  -0.694  0.00  0.00    -0.055 HD
ENDROOT
BRANCH   1  23
ATOM     19  C   UNL     1      -0.017   1.376   0.010  0.00  0.00    +0.001 A 
ATOM     20  C   UNL     1       1.169   2.089   0.002  0.00  0.00    +0.004 A 
ATOM     21  C   UNL     1       2.382   1.426  -0.013  0.00  0.00    +0.046 A 
ATOM     22  C   UNL     1       2.415   0.041  -0.022  0.00  0.00    +0.125 A 
ATOM     23  C   UNL     1       1.219  -0.683  -0.014  0.00  0.00    +0.025 A 
ATOM     24  C   UNL     1       0.002  -0.004   0.002  0.00  0.00    +0.012 A 
BRANCH  22  25
ATOM     25  O   UNL     1       3.607  -0.612  -0.038  0.00  0.00    -0.506 OA
ATOM     26  H   UNL     1       3.961  -0.806   0.841  0.00  0.00    +0.292 HD
ENDBRANCH  22  25
ENDBRANCH   1  23
BRANCH   8  27
ATOM     27  C   UNL     1      -5.730  -4.029  -1.407  0.00  0.00    +0.091 A 
ATOM     28  C   UNL     1      -5.609  -2.763  -0.868  0.00  0.00    +0.018 A 
ATOM     29  C   UNL     1      -6.725  -1.958  -0.734  0.00  0.00    +0.001 A 
ATOM     30  C   UNL     1      -7.965  -2.417  -1.140  0.00  0.00    +0.004 A 
ATOM     31  C   UNL     1      -8.091  -3.682  -1.680  0.00  0.00    +0.046 A 
ATOM     32  C   UNL     1      -6.971  -4.490  -1.820  0.00  0.00    +0.131 A 
BRANCH  32  33
ATOM     33  O   UNL     1      -7.092  -5.733  -2.356  0.00  0.00    -0.506 OA
ATOM     34  H   UNL     1      -7.271  -6.426  -1.706  0.00  0.00    +0.292 HD
ENDBRANCH  32  33
ENDBRANCH   8  27
TORSDOF 4
