REMARK  Name = ZINC58960318
REMARK  9 active torsions:
REMARK  status: ('A' for Active; 'I' for Inactive)
REMARK    1  A    between atoms: C_1  and  C_2
REMARK    2  A    between atoms: C_2  and  C_3
REMARK    3  A    between atoms: C_6  and  C_9
REMARK    4  A    between atoms: C_11  and  C_32
REMARK    5  A    between atoms: C_13  and  S_15
REMARK    6  A    between atoms: S_15  and  C_16
REMARK    7  A    between atoms: C_16  and  C_17
REMARK    8  A    between atoms: N_19  and  C_20
REMARK    9  A    between atoms: C_21  and  C_29
REMARK                            x       y       z     vdW  Elec       q    Type
REMARK                         _______ _______ _______ _____ _____    ______ ____
ROOT
ATOM      1  S   UNL     1       1.697  -2.784  -8.415  0.00  0.00    -0.077 S 
ENDROOT
BRANCH   1   6
ATOM      2  C   UNL     1       2.697  -1.861  -4.736  0.00  0.00    +0.076 A 
ATOM      3  C   UNL     1       4.076  -2.090  -4.724  0.00  0.00    +0.060 A 
ATOM      4  C   UNL     1       4.681  -2.536  -5.886  0.00  0.00    +0.148 A 
ATOM      5  N   UNL     1       3.941  -2.732  -6.966  0.00  0.00    -0.218 NA
ATOM      6  C   UNL     1       2.635  -2.507  -6.949  0.00  0.00    +0.190 A 
ATOM      7  N   UNL     1       2.016  -2.085  -5.857  0.00  0.00    -0.222 NA
BRANCH   2  11
ATOM      8  C   UNL     1       0.707  -0.490  -1.238  0.00  0.00    -0.048 A 
ATOM      9  C   UNL     1      -0.013  -0.718  -2.396  0.00  0.00    +0.004 A 
ATOM     10  C   UNL     1       0.627  -1.163  -3.535  0.00  0.00    +0.010 A 
ATOM     11  C   UNL     1       2.003  -1.383  -3.516  0.00  0.00    +0.001 A 
ATOM     12  C   UNL     1       2.725  -1.151  -2.346  0.00  0.00    +0.010 A 
ATOM     13  C   UNL     1       2.074  -0.701  -1.215  0.00  0.00    +0.004 A 
BRANCH   8  15
ATOM     14  C   UNL     1      -0.019   1.526   0.010  0.00  0.00    +0.009 C 
ATOM     15  C   UNL     1       0.002  -0.004   0.002  0.00  0.00    +0.032 C 
ENDBRANCH   8  15
ENDBRANCH   2  11
BRANCH   4  16
ATOM     16  C   UNL     1       6.165  -2.795  -5.922  0.00  0.00    +0.434 C 
ATOM     17  F   UNL     1       6.414  -4.124  -5.562  0.00  0.00    -0.164 F 
ATOM     18  F   UNL     1       6.648  -2.563  -7.214  0.00  0.00    -0.164 F 
ATOM     19  F   UNL     1       6.809  -1.940  -5.022  0.00  0.00    -0.164 F 
ENDBRANCH   4  16
ENDBRANCH   1   6
BRANCH   1  20
ATOM     20  C   UNL     1       2.926  -3.349  -9.623  0.00  0.00    +0.173 C 
BRANCH  20  21
ATOM     21  C   UNL     1       2.247  -3.624 -10.940  0.00  0.00    +0.228 C 
ATOM     22  O   UNL     1       1.051  -3.457 -11.052  0.00  0.00    -0.275 OA
ATOM     23  N   UNL     1       2.968  -4.058 -11.992  0.00  0.00    -0.279 N 
ATOM     24  H   UNL     1       3.925  -4.192 -11.902  0.00  0.00    +0.155 HD
BRANCH  23  25
ATOM     25  C   UNL     1       2.343  -4.311 -13.204  0.00  0.00    +0.084 A 
ATOM     26  C   UNL     1       2.918  -4.763 -14.381  0.00  0.00    +0.068 A 
ATOM     27  C   UNL     1       2.038  -4.951 -15.521  0.00  0.00    -0.023 A 
ATOM     28  C   UNL     1       0.744  -4.653 -15.274  0.00  0.00    -0.004 A 
ATOM     29  S   UNL     1       0.715  -4.149 -13.579  0.00  0.00    -0.077 S 
ATOM     30  C   UNL     1      -0.399  -4.741 -16.238  0.00  0.00    +0.043 C 
ATOM     31  C   UNL     1       0.176  -4.860 -17.658  0.00  0.00    +0.005 C 
ATOM     32  C   UNL     1       1.266  -5.936 -17.662  0.00  0.00    +0.005 C 
ATOM     33  C   UNL     1       2.490  -5.440 -16.889  0.00  0.00    +0.037 C 
BRANCH  26  34
ATOM     34  C   UNL     1       4.356  -5.039 -14.473  0.00  0.00    +0.244 C 
ATOM     35  O   UNL     1       4.780  -6.150 -14.213  0.00  0.00    -0.270 OA
ATOM     36  N   UNL     1       5.207  -4.062 -14.844  0.00  0.00    -0.325 N 
ATOM     37  H   UNL     1       4.869  -3.177 -15.051  0.00  0.00    +0.145 HD
ATOM     38  H   UNL     1       6.158  -4.245 -14.904  0.00  0.00    +0.145 HD
ENDBRANCH  26  34
ENDBRANCH  23  25
ENDBRANCH  20  21
ENDBRANCH   1  20
TORSDOF 8
