REMARK  Name = ZINC15956670
REMARK  7 active torsions:
REMARK  status: ('A' for Active; 'I' for Inactive)
REMARK    1  A    between atoms: C_1  and  C_2
REMARK    2  A    between atoms: C_7  and  C_8
REMARK    3  A    between atoms: C_17  and  C_20
REMARK    4  A    between atoms: C_20  and  C_21
REMARK    5  A    between atoms: C_21  and  C_22
REMARK    6  A    between atoms: N_27  and  C_30
REMARK    7  A    between atoms: C_30  and  C_31
REMARK                            x       y       z     vdW  Elec       q    Type
REMARK                         _______ _______ _______ _____ _____    ______ ____
ROOT
ATOM      1  C   UNL     1       0.119   1.471   0.199  0.00  0.00    +0.044 C 
ATOM      2  C   UNL     1       0.110  -0.035   0.145  0.00  0.00    -0.046 A 
ATOM      3  C   UNL     1       0.081  -0.679  -1.079  0.00  0.00    +0.004 A 
ATOM      4  C   UNL     1       0.072  -2.062  -1.128  0.00  0.00    +0.008 A 
ATOM      5  C   UNL     1       0.091  -2.794   0.038  0.00  0.00    +0.004 A 
ATOM      6  C   UNL     1       0.121  -2.155   1.275  0.00  0.00    +0.042 A 
ATOM      7  C   UNL     1       0.136  -0.763   1.315  0.00  0.00    -0.026 A 
ATOM      8  C   UNL     1       0.174  -0.051   2.643  0.00  0.00    +0.046 C 
ATOM      9  N   UNL     1       0.139  -3.099   2.305  0.00  0.00    -0.283 N 
ATOM     10  C   UNL     1       0.120  -4.362   1.837  0.00  0.00    +0.243 C 
ATOM     11  O   UNL     1       0.128  -5.379   2.498  0.00  0.00    -0.273 OA
ATOM     12  C   UNL     1       0.086  -4.266   0.336  0.00  0.00    +0.136 C 
ATOM     13  C   UNL     1       1.289  -4.973  -0.298  0.00  0.00    +0.122 C 
ATOM     14  C   UNL     1       0.731  -5.603  -1.604  0.00  0.00    +0.107 C 
ATOM     15  C   UNL     1      -0.761  -5.204  -1.629  0.00  0.00    +0.068 C 
ATOM     16  N   UNL     1      -1.111  -4.926  -0.218  0.00  0.00    -0.295 NA
ATOM     17  C   UNL     1       1.474  -4.863  -2.693  0.00  0.00    +0.227 C 
ATOM     18  O   UNL     1       1.341  -5.050  -3.884  0.00  0.00    -0.275 OA
ATOM     19  N   UNL     1       2.303  -3.971  -2.139  0.00  0.00    -0.237 N 
ATOM     20  C   UNL     1       2.287  -3.947  -0.786  0.00  0.00    +0.229 C 
ATOM     21  O   UNL     1       2.954  -3.226  -0.077  0.00  0.00    -0.275 OA
ATOM     22  H   UNL     1       0.163  -2.871   3.247  0.00  0.00    +0.155 HD
ATOM     23  H   UNL     1      -1.309  -5.786   0.272  0.00  0.00    +0.123 HD
ENDROOT
BRANCH  15  24
ATOM     24  C   UNL     1      -1.608  -6.347  -2.192  0.00  0.00    +0.028 C 
BRANCH  24  25
ATOM     25  C   UNL     1      -3.061  -5.887  -2.324  0.00  0.00    +0.097 C 
BRANCH  25  26
ATOM     26  C   UNL     1      -3.896  -7.013  -2.878  0.00  0.00    +0.211 C 
ATOM     27  O   UNL     1      -3.380  -8.078  -3.141  0.00  0.00    -0.276 OA
ATOM     28  N   UNL     1      -5.217  -6.836  -3.081  0.00  0.00    -0.329 N 
ATOM     29  H   UNL     1      -5.630  -5.984  -2.870  0.00  0.00    +0.145 HD
ATOM     30  H   UNL     1      -5.754  -7.561  -3.437  0.00  0.00    +0.145 HD
ENDBRANCH  25  26
ENDBRANCH  24  25
ENDBRANCH  15  24
BRANCH  19  31
ATOM     31  C   UNL     1       3.165  -3.091  -2.931  0.00  0.00    +0.153 C 
BRANCH  31  32
ATOM     32  C   UNL     1       4.545  -3.689  -3.023  0.00  0.00    -0.011 A 
ATOM     33  C   UNL     1       5.529  -3.296  -2.136  0.00  0.00    +0.006 A 
ATOM     34  C   UNL     1       6.795  -3.845  -2.220  0.00  0.00    +0.000 A 
ATOM     35  C   UNL     1       7.077  -4.788  -3.192  0.00  0.00    +0.001 A 
ATOM     36  C   UNL     1       6.093  -5.182  -4.079  0.00  0.00    +0.020 A 
ATOM     37  C   UNL     1       4.825  -4.637  -3.992  0.00  0.00    +0.046 A 
ATOM     38 CL   UNL     1       3.587  -5.136  -5.102  0.00  0.00    -0.083 Cl
ENDBRANCH  31  32
ENDBRANCH  19  31
TORSDOF 5
