REMARK  Name = ZINC12542754
REMARK  8 active torsions:
REMARK  status: ('A' for Active; 'I' for Inactive)
REMARK    1  A    between atoms: C_4  and  C_7
REMARK    2  A    between atoms: N_9  and  N_10
REMARK    3  A    between atoms: C_11  and  C_13
REMARK    4  A    between atoms: C_13  and  O_14
REMARK    5  A    between atoms: O_14  and  C_15
REMARK    6  A    between atoms: C_15  and  C_17
REMARK    7  A    between atoms: N_20  and  S_23
REMARK    8  A    between atoms: S_23  and  C_26
REMARK                            x       y       z     vdW  Elec       q    Type
REMARK                         _______ _______ _______ _____ _____    ______ ____
ROOT
ATOM      1  C   UNL     1      -3.794  -6.127   0.005  0.00  0.00    +0.311 C 
ATOM      2  O   UNL     1      -2.826  -6.850  -0.008  0.00  0.00    -0.251 OA
ENDROOT
BRANCH   1   3
ATOM      3  C   UNL     1      -5.179  -6.722   0.015  0.00  0.00    +0.100 C 
ATOM      4  C   UNL     1      -5.921  -6.265   1.274  0.00  0.00    +0.032 C 
ATOM      5  C   UNL     1      -7.339  -6.844   1.263  0.00  0.00    +0.110 C 
ATOM      6  N   UNL     1      -7.254  -8.302   1.109  0.00  0.00    -0.176 NA
ATOM      7  C   UNL     1      -6.487  -8.850  -0.018  0.00  0.00    +0.110 C 
ATOM      8  C   UNL     1      -5.078  -8.249   0.006  0.00  0.00    +0.032 C 
BRANCH   6   9
ATOM      9  S   UNL     1      -8.009  -9.310   2.184  0.00  0.00    +0.064 S 
ATOM     10  O   UNL     1      -9.068  -8.563   2.767  0.00  0.00    -0.153 OA
ATOM     11  O   UNL     1      -8.228 -10.539   1.504  0.00  0.00    -0.153 OA
BRANCH   9  12
ATOM     12  C   UNL     1      -6.860  -9.648   3.476  0.00  0.00    +0.142 A 
ATOM     13  C   UNL     1      -6.009 -10.735   3.379  0.00  0.00    +0.069 A 
ATOM     14  C   UNL     1      -5.104 -10.997   4.392  0.00  0.00    +0.022 A 
ATOM     15  C   UNL     1      -5.056 -10.180   5.506  0.00  0.00    +0.003 A 
ATOM     16  C   UNL     1      -5.910  -9.097   5.606  0.00  0.00    +0.022 A 
ATOM     17  C   UNL     1      -6.812  -8.831   4.591  0.00  0.00    +0.069 A 
ATOM     18 CL   UNL     1      -7.885  -7.472   4.717  0.00  0.00    -0.081 Cl
ATOM     19 CL   UNL     1      -6.073 -11.765   1.983  0.00  0.00    -0.081 Cl
ENDBRANCH   9  12
ENDBRANCH   6   9
ENDBRANCH   1   3
BRANCH   1  20
ATOM     20  O   UNL     1      -3.636  -4.794   0.011  0.00  0.00    -0.455 OA
BRANCH  20  21
ATOM     21  C   UNL     1      -2.274  -4.291   0.001  0.00  0.00    +0.329 C 
BRANCH  21  23
ATOM     22  N   UNL     1      -1.137  -2.095   0.002  0.00  0.00    -0.231 N 
ATOM     23  C   UNL     1      -2.295  -2.784   0.009  0.00  0.00    +0.267 C 
ATOM     24  O   UNL     1      -3.353  -2.192   0.022  0.00  0.00    -0.271 OA
ATOM     25  H   UNL     1      -0.290  -2.568  -0.009  0.00  0.00    +0.173 HD
BRANCH  22  28
ATOM     26  C   UNL     1       0.002  -0.004   0.002  0.00  0.00    +0.260 C 
ATOM     27  O   UNL     1       1.063  -0.597  -0.011  0.00  0.00    -0.269 OA
ATOM     28  N   UNL     1      -1.156  -0.694   0.009  0.00  0.00    -0.230 N 
ATOM     29  H   UNL     1      -2.002  -0.220   0.020  0.00  0.00    +0.173 HD
BRANCH  26  33
ATOM     30  C   UNL     1      -0.056   4.243   0.025  0.00  0.00    +0.000 A 
ATOM     31  C   UNL     1       1.154   3.571   0.010  0.00  0.00    +0.001 A 
ATOM     32  C   UNL     1       1.179   2.192   0.003  0.00  0.00    +0.013 A 
ATOM     33  C   UNL     1      -0.018   1.474   0.010  0.00  0.00    +0.038 A 
ATOM     34  C   UNL     1      -1.234   2.159   0.020  0.00  0.00    +0.013 A 
ATOM     35  C   UNL     1      -1.246   3.538   0.033  0.00  0.00    +0.001 A 
ENDBRANCH  26  33
ENDBRANCH  22  28
ENDBRANCH  21  23
ENDBRANCH  20  21
ENDBRANCH   1  20
TORSDOF 8
