REMARK  Name = ZINC39655671
REMARK  11 active torsions:
REMARK  status: ('A' for Active; 'I' for Inactive)
REMARK    1  A    between atoms: C_1  and  C_2
REMARK    2  A    between atoms: C_2  and  C_3
REMARK    3  A    between atoms: C_2  and  C_4
REMARK    4  A    between atoms: C_4  and  C_6
REMARK    5  A    between atoms: C_4  and  O_31
REMARK    6  A    between atoms: C_10  and  C_19
REMARK    7  A    between atoms: N_21  and  C_22
REMARK    8  A    between atoms: C_22  and  C_23
REMARK    9  A    between atoms: C_23  and  N_24
REMARK   10  A    between atoms: N_24  and  C_25
REMARK   11  A    between atoms: O_31  and  C_32
REMARK                            x       y       z     vdW  Elec       q    Type
REMARK                         _______ _______ _______ _____ _____    ______ ____
ROOT
ATOM      1  C   UNL     1       2.011  -2.174   0.776  0.00  0.00    +0.257 C 
ATOM      2  O   UNL     1       1.472  -3.056   1.410  0.00  0.00    -0.272 OA
ATOM      3  N   UNL     1       2.743  -2.478  -0.314  0.00  0.00    -0.297 N 
ATOM      4  C   UNL     1       3.567  -1.563  -1.139  0.00  0.00    +0.121 C 
ATOM      5  C   UNL     1       4.829  -2.383  -1.489  0.00  0.00    +0.100 C 
ATOM      6  C   UNL     1       4.388  -3.852  -1.370  0.00  0.00    -0.004 C 
ATOM      7  C   UNL     1       2.911  -3.804  -0.955  0.00  0.00    +0.115 C 
ATOM      8  C   UNL     1       5.209  -4.565  -0.300  0.00  0.00    -0.010 C 
ATOM      9  C   UNL     1       4.792  -6.037  -0.240  0.00  0.00    -0.082 C 
ATOM     10  N   UNL     1       5.010  -6.663  -1.550  0.00  0.00    +0.379 N 
ATOM     11  C   UNL     1       4.148  -6.031  -2.557  0.00  0.00    -0.082 C 
ATOM     12  C   UNL     1       4.538  -4.559  -2.714  0.00  0.00    -0.010 C 
ATOM     13  H   UNL     1       5.976  -6.550  -1.818  0.00  0.00    -0.086 HD
ATOM     14  H   UNL     1       4.793  -7.646  -1.492  0.00  0.00    -0.086 HD
ENDROOT
BRANCH   5  15
ATOM     15  C   UNL     1       5.936  -2.085  -0.511  0.00  0.00    +0.218 C 
ATOM     16  O   UNL     1       5.672  -1.821   0.643  0.00  0.00    -0.275 OA
ATOM     17  N   UNL     1       7.221  -2.111  -0.919  0.00  0.00    -0.314 N 
ATOM     18  H   UNL     1       7.432  -2.321  -1.842  0.00  0.00    +0.149 HD
BRANCH  17  19
ATOM     19  C   UNL     1       8.297  -1.820   0.031  0.00  0.00    +0.123 C 
BRANCH  19  20
ATOM     20  C   UNL     1       9.647  -1.917  -0.682  0.00  0.00    +0.120 C 
BRANCH  20  21
ATOM     21  N   UNL     1      10.724  -1.626   0.268  0.00  0.00    -0.342 N 
ATOM     22  H   UNL     1      10.512  -1.415   1.191  0.00  0.00    +0.146 HD
BRANCH  21  23
ATOM     23  C   UNL     1      12.055  -1.653  -0.154  0.00  0.00    +0.027 A 
ATOM     24  C   UNL     1      12.359  -1.949  -1.477  0.00  0.00    +0.023 A 
ATOM     25  C   UNL     1      13.676  -1.975  -1.891  0.00  0.00    +0.002 A 
ATOM     26  C   UNL     1      14.691  -1.706  -0.992  0.00  0.00    +0.000 A 
ATOM     27  C   UNL     1      14.392  -1.411   0.326  0.00  0.00    +0.002 A 
ATOM     28  C   UNL     1      13.076  -1.378   0.746  0.00  0.00    +0.023 A 
ENDBRANCH  21  23
ENDBRANCH  20  21
ENDBRANCH  19  20
ENDBRANCH  17  19
ENDBRANCH   5  15
BRANCH   1  29
ATOM     29  C   UNL     1       1.863  -0.737   1.207  0.00  0.00    +0.261 C 
BRANCH  29  31
ATOM     30  C   UNL     1       0.630   1.397   0.798  0.00  0.00    +0.011 C 
ATOM     31  C   UNL     1       0.743  -0.076   0.402  0.00  0.00    +0.033 C 
ATOM     32  C   UNL     1       1.059  -0.180  -1.092  0.00  0.00    +0.011 C 
ENDBRANCH  29  31
BRANCH  29  33
ATOM     33  O   UNL     1       1.542  -0.688   2.599  0.00  0.00    -0.479 OA
BRANCH  33  34
ATOM     34  C   UNL     1       2.163   0.264   3.342  0.00  0.00    +0.122 A 
ATOM     35  C   UNL     1       1.997   0.289   4.719  0.00  0.00    +0.045 A 
ATOM     36  C   UNL     1       2.630   1.258   5.473  0.00  0.00    +0.004 A 
ATOM     37  C   UNL     1       3.429   2.203   4.856  0.00  0.00    +0.000 A 
ATOM     38  C   UNL     1       3.597   2.181   3.483  0.00  0.00    +0.004 A 
ATOM     39  C   UNL     1       2.970   1.210   2.726  0.00  0.00    +0.045 A 
ENDBRANCH  33  34
ENDBRANCH  29  33
ENDBRANCH   1  29
TORSDOF 9
