REMARK  Name = ZINC11077244
REMARK  12 active torsions:
REMARK  status: ('A' for Active; 'I' for Inactive)
REMARK    1  A    between atoms: C_1  and  C_2
REMARK    2  A    between atoms: C_2  and  O_3
REMARK    3  A    between atoms: O_3  and  C_4
REMARK    4  A    between atoms: C_9  and  N_10
REMARK    5  A    between atoms: C_11  and  C_13
REMARK    6  A    between atoms: C_13  and  N_14
REMARK    7  A    between atoms: C_17  and  C_21
REMARK    8  A    between atoms: C_17  and  C_22
REMARK    9  A    between atoms: C_25  and  C_28
REMARK   10  A    between atoms: C_28  and  C_29
REMARK   11  A    between atoms: C_28  and  C_30
REMARK   12  A    between atoms: C_32  and  C_35
REMARK                            x       y       z     vdW  Elec       q    Type
REMARK                         _______ _______ _______ _____ _____    ______ ____
ROOT
ATOM      1  C   UNL     1       4.903   4.181  -0.238  0.00  0.00    +0.214 C 
ENDROOT
BRANCH   1   2
ATOM      2  N   UNL     1       4.634   5.618  -0.333  0.00  0.00    -0.215 N 
ATOM      3  C   UNL     1       4.550   6.445   0.728  0.00  0.00    +0.251 C 
ATOM      4  O   UNL     1       4.678   6.151   1.897  0.00  0.00    -0.272 OA
ATOM      5  C   UNL     1       4.263   7.819   0.155  0.00  0.00    +0.135 C 
ATOM      6  N   UNL     1       4.214   7.584  -1.299  0.00  0.00    -0.281 N 
ATOM      7  C   UNL     1       4.446   6.273  -1.485  0.00  0.00    +0.310 C 
ATOM      8  O   UNL     1       4.479   5.741  -2.578  0.00  0.00    -0.252 OA
ATOM      9  C   UNL     1       5.389   8.794   0.505  0.00  0.00    +0.047 C 
ATOM     10  H   UNL     1       4.049   8.248  -1.987  0.00  0.00    +0.152 HD
BRANCH   5  11
ATOM     11  C   UNL     1       2.938   8.335   0.654  0.00  0.00    -0.015 A 
ATOM     12  C   UNL     1       2.470   7.949   1.896  0.00  0.00    +0.006 A 
ATOM     13  C   UNL     1       1.257   8.426   2.356  0.00  0.00    +0.004 A 
ATOM     14  C   UNL     1       0.507   9.281   1.570  0.00  0.00    -0.045 A 
ATOM     15  C   UNL     1       0.973   9.663   0.326  0.00  0.00    +0.004 A 
ATOM     16  C   UNL     1       2.188   9.189  -0.132  0.00  0.00    +0.006 A 
BRANCH  14  17
ATOM     17  C   UNL     1      -0.818   9.797   2.069  0.00  0.00    +0.013 C 
ATOM     18  C   UNL     1      -1.757   8.619   2.333  0.00  0.00    +0.012 C 
ATOM     19  C   UNL     1      -0.604  10.580   3.366  0.00  0.00    +0.012 C 
ENDBRANCH  14  17
ENDBRANCH   5  11
ENDBRANCH   1   2
BRANCH   1  21
ATOM     20  N   UNL     1       3.603   2.089  -0.014  0.00  0.00    -0.281 N 
ATOM     21  C   UNL     1       3.601   3.433  -0.116  0.00  0.00    +0.235 C 
ATOM     22  O   UNL     1       2.551   4.040  -0.109  0.00  0.00    -0.274 OA
ATOM     23  H   UNL     1       4.442   1.610   0.062  0.00  0.00    +0.155 HD
BRANCH  20  29
ATOM     24  C   UNL     1       2.316   0.131   0.584  0.00  0.00    +0.142 A 
ATOM     25  C   UNL     1       1.115  -0.562   0.574  0.00  0.00    +0.055 A 
ATOM     26  C   UNL     1       0.005  -0.009  -0.029  0.00  0.00    +0.001 A 
ATOM     27  C   UNL     1       0.066   1.244  -0.625  0.00  0.00    +0.126 A 
ATOM     28  C   UNL     1       1.272   1.937  -0.618  0.00  0.00    +0.073 A 
ATOM     29  C   UNL     1       2.391   1.385  -0.017  0.00  0.00    +0.079 A 
ATOM     30  O   UNL     1      -1.144   1.604  -1.138  0.00  0.00    -0.488 OA
ATOM     31  C   UNL     1      -1.955   0.429  -1.305  0.00  0.00    +0.175 C 
ATOM     32  C   UNL     1      -1.411  -0.521  -0.213  0.00  0.00    +0.083 C 
ATOM     33  C   UNL     1      -3.432   0.747  -1.061  0.00  0.00    +0.052 C 
BRANCH  24  34
ATOM     34  O   UNL     1       3.413  -0.411   1.178  0.00  0.00    -0.490 OA
BRANCH  34  36
ATOM     35  C   UNL     1       4.588  -2.142   2.388  0.00  0.00    +0.048 C 
ATOM     36  C   UNL     1       3.258  -1.700   1.775  0.00  0.00    +0.226 C 
ENDBRANCH  34  36
ENDBRANCH  24  34
ENDBRANCH  20  29
ENDBRANCH   1  21
TORSDOF 7
