REMARK  Name = ZINC08186920
REMARK  9 active torsions:
REMARK  status: ('A' for Active; 'I' for Inactive)
REMARK    1  A    between atoms: C_1  and  C_2
REMARK    2  A    between atoms: C_8  and  N_10
REMARK    3  A    between atoms: C_14  and  C_16
REMARK    4  A    between atoms: C_16  and  O_17
REMARK    5  A    between atoms: O_17  and  C_18
REMARK    6  A    between atoms: C_18  and  C_20
REMARK    7  A    between atoms: C_24  and  S_26
REMARK    8  A    between atoms: S_26  and  N_29
REMARK    9  A    between atoms: N_29  and  C_30
REMARK                            x       y       z     vdW  Elec       q    Type
REMARK                         _______ _______ _______ _____ _____    ______ ____
ROOT
ATOM      1  C   UNL     1       0.573   5.450  -5.734  0.00  0.00    +0.328 C 
ENDROOT
BRANCH   1   6
ATOM      2  N   UNL     1       1.424   2.047  -2.446  0.00  0.00    -0.296 N 
ATOM      3  C   UNL     1       1.689   3.276  -2.933  0.00  0.00    +0.306 C 
ATOM      4  O   UNL     1       2.515   3.981  -2.389  0.00  0.00    -0.252 OA
ATOM      5  N   UNL     1       1.037   3.722  -4.025  0.00  0.00    -0.237 N 
ATOM      6  C   UNL     1       1.302   4.950  -4.513  0.00  0.00    +0.258 C 
ATOM      7  O   UNL     1       2.126   5.654  -3.969  0.00  0.00    -0.272 OA
ATOM      8  H   UNL     1       0.765   1.484  -2.881  0.00  0.00    +0.151 HD
ATOM      9  H   UNL     1       0.377   3.159  -4.460  0.00  0.00    +0.159 HD
BRANCH   2  16
ATOM     10  C   UNL     1       2.870  -0.461  -2.526  0.00  0.00    +0.009 C 
ATOM     11  C   UNL     1       2.154   0.032  -1.268  0.00  0.00    +0.006 C 
ATOM     12  C   UNL     1       0.718  -0.497  -1.257  0.00  0.00    +0.005 C 
ATOM     13  C   UNL     1       0.002  -0.004   0.002  0.00  0.00    +0.000 C 
ATOM     14  C   UNL     1      -0.019   1.526   0.010  0.00  0.00    +0.002 C 
ATOM     15  C   UNL     1       1.417   2.055  -0.000  0.00  0.00    +0.022 C 
ATOM     16  C   UNL     1       2.133   1.562  -1.259  0.00  0.00    +0.077 C 
ENDBRANCH   2  16
ENDBRANCH   1   6
BRANCH   1  17
ATOM     17  O   UNL     1       1.031   6.789  -6.057  0.00  0.00    -0.452 OA
BRANCH  17  18
ATOM     18  C   UNL     1       0.474   7.383  -7.130  0.00  0.00    +0.340 C 
ATOM     19  O   UNL     1      -0.371   6.799  -7.778  0.00  0.00    -0.245 OA
BRANCH  18  20
ATOM     20  C   UNL     1       0.892   8.746  -7.519  0.00  0.00    +0.061 A 
ATOM     21  C   UNL     1       1.863   9.421  -6.777  0.00  0.00    +0.015 A 
ATOM     22  C   UNL     1       2.249  10.692  -7.146  0.00  0.00    +0.003 A 
ATOM     23  C   UNL     1       1.675  11.300  -8.249  0.00  0.00    +0.028 A 
ATOM     24  C   UNL     1       0.713  10.637  -8.989  0.00  0.00    +0.106 A 
ATOM     25  C   UNL     1       0.321   9.363  -8.634  0.00  0.00    +0.043 A 
BRANCH  24  26
ATOM     26  S   UNL     1      -0.011  11.420 -10.393  0.00  0.00    +0.058 S 
ATOM     27  O   UNL     1      -1.276  10.806 -10.593  0.00  0.00    -0.153 OA
ATOM     28  O   UNL     1       0.135  12.820 -10.197  0.00  0.00    -0.153 OA
BRANCH  26  29
ATOM     29  N   UNL     1       0.919  11.027 -11.706  0.00  0.00    -0.193 NA
ATOM     30  C   UNL     1       1.002   9.634 -12.154  0.00  0.00    +0.127 C 
ATOM     31  H   UNL     1       1.408  11.718 -12.178  0.00  0.00    +0.148 HD
ENDBRANCH  26  29
ENDBRANCH  24  26
ENDBRANCH  18  20
ENDBRANCH  17  18
ENDBRANCH   1  17
TORSDOF 7
