REMARK  Name = ZINC05945388
REMARK  14 active torsions:
REMARK  status: ('A' for Active; 'I' for Inactive)
REMARK    1  A    between atoms: C_1  and  C_2
REMARK    2  A    between atoms: C_2  and  C_30
REMARK    3  A    between atoms: C_4  and  N_10
REMARK    4  A    between atoms: C_6  and  C_8
REMARK    5  A    between atoms: C_6  and  C_9
REMARK    6  A    between atoms: N_10  and  C_11
REMARK    7  A    between atoms: N_10  and  C_17
REMARK    8  A    between atoms: C_11  and  C_12
REMARK    9  A    between atoms: C_17  and  N_19
REMARK   10  A    between atoms: N_19  and  C_20
REMARK   11  A    between atoms: C_22  and  O_28
REMARK   12  A    between atoms: C_24  and  O_26
REMARK   13  A    between atoms: O_26  and  C_27
REMARK   14  A    between atoms: O_28  and  C_29
REMARK                            x       y       z     vdW  Elec       q    Type
REMARK                         _______ _______ _______ _____ _____    ______ ____
ROOT
ATOM      1  N   UNL     1      -3.536  -0.822   0.601  0.00  0.00    -0.305 N 
ENDROOT
BRANCH   1   5
ATOM      2  C   UNL     1       0.759   0.012   1.104  0.00  0.00    -0.010 C 
ATOM      3  C   UNL     1      -0.333   1.036   1.429  0.00  0.00    -0.072 C 
ATOM      4  C   UNL     1      -1.658   0.320   1.669  0.00  0.00    +0.009 C 
ATOM      5  C   UNL     1      -2.249  -0.164   0.345  0.00  0.00    +0.073 C 
ATOM      6  C   UNL     1      -2.475   1.055  -0.550  0.00  0.00    +0.009 C 
ATOM      7  C   UNL     1      -1.157   1.778  -0.806  0.00  0.00    -0.072 C 
ATOM      8  N   UNL     1      -0.413   2.065   0.407  0.00  0.00    +0.386 N 
ATOM      9  C   UNL     1      -1.494   3.128  -1.482  0.00  0.00    -0.010 C 
ATOM     10  C   UNL     1      -0.311   0.977  -1.801  0.00  0.00    -0.010 C 
ATOM     11  C   UNL     1       0.068   1.721   2.756  0.00  0.00    -0.010 C 
ATOM     12  H   UNL     1      -0.809   2.909   0.834  0.00  0.00    -0.084 HD
ATOM     13  H   UNL     1       0.541   2.330   0.144  0.00  0.00    -0.084 HD
ENDBRANCH   1   5
BRANCH   1  14
ATOM     14  C   UNL     1      -3.732  -2.095   0.205  0.00  0.00    +0.138 C 
ATOM     15  S   UNL     1      -2.441  -2.988  -0.478  0.00  0.00    -0.018 S 
BRANCH  14  16
ATOM     16  N   UNL     1      -4.945  -2.666   0.349  0.00  0.00    -0.297 N 
ATOM     17  H   UNL     1      -5.691  -2.143   0.680  0.00  0.00    +0.154 HD
BRANCH  16  18
ATOM     18  C   UNL     1      -5.127  -4.013   0.019  0.00  0.00    +0.040 A 
ATOM     19  C   UNL     1      -5.838  -4.847   0.872  0.00  0.00    +0.069 A 
ATOM     20  C   UNL     1      -6.018  -6.182   0.545  0.00  0.00    +0.125 A 
ATOM     21  C   UNL     1      -5.488  -6.686  -0.633  0.00  0.00    +0.091 A 
ATOM     22  C   UNL     1      -4.777  -5.854  -1.486  0.00  0.00    +0.125 A 
ATOM     23  C   UNL     1      -4.602  -4.517  -1.163  0.00  0.00    +0.069 A 
BRANCH  22  24
ATOM     24  O   UNL     1      -4.258  -6.348  -2.640  0.00  0.00    -0.495 OA
ATOM     25  C   UNL     1      -4.481  -7.733  -2.912  0.00  0.00    +0.277 C 
ENDBRANCH  22  24
BRANCH  20  26
ATOM     26  O   UNL     1      -6.714  -6.998   1.380  0.00  0.00    -0.495 OA
ATOM     27  C   UNL     1      -6.860  -8.362   0.981  0.00  0.00    +0.277 C 
ENDBRANCH  20  26
ENDBRANCH  16  18
ENDBRANCH  14  16
ENDBRANCH   1  14
BRANCH   1  28
ATOM     28  C   UNL     1      -4.608  -0.094   1.285  0.00  0.00    +0.149 C 
BRANCH  28  29
ATOM     29  C   UNL     1      -5.461   0.619   0.268  0.00  0.00    +0.007 A 
ATOM     30  C   UNL     1      -6.569   0.177  -0.376  0.00  0.00    +0.013 A 
ATOM     31  C   UNL     1      -7.197   1.015  -1.279  0.00  0.00    +0.008 A 
ATOM     32  C   UNL     1      -6.687   2.252  -1.493  0.00  0.00    +0.045 A 
ATOM     33  S   UNL     1      -5.279   2.266  -0.395  0.00  0.00    -0.100 S 
ENDBRANCH  28  29
ENDBRANCH   1  28
TORSDOF 8
