REMARK  Name = ZINC18938959
REMARK  13 active torsions:
REMARK  status: ('A' for Active; 'I' for Inactive)
REMARK    1  A    between atoms: C_1  and  C_2
REMARK    2  A    between atoms: C_2  and  C_3
REMARK    3  A    between atoms: C_2  and  C_4
REMARK    4  A    between atoms: C_4  and  N_5
REMARK    5  A    between atoms: N_5  and  C_6
REMARK    6  A    between atoms: C_7  and  N_22
REMARK    7  A    between atoms: N_8  and  C_15
REMARK    8  A    between atoms: C_15  and  C_16
REMARK    9  A    between atoms: C_23  and  C_25
REMARK   10  A    between atoms: C_25  and  N_61
REMARK   11  A    between atoms: C_26  and  N_61
REMARK   12  A    between atoms: C_27  and  C_28
REMARK   13  A    between atoms: C_27  and  N_61
REMARK                            x       y       z     vdW  Elec       q    Type
REMARK                         _______ _______ _______ _____ _____    ______ ____
ROOT
ATOM      1  C   UNL     1       2.783   2.143  -0.298  0.00  0.00    +0.140 A 
ATOM      2  C   UNL     1       3.439   1.211   0.479  0.00  0.00    +0.128 A 
ATOM      3  N   UNL     1       4.795   1.039   0.320  0.00  0.00    -0.276 N 
ATOM      4  C   UNL     1       5.474   1.780  -0.575  0.00  0.00    +0.331 A 
ATOM      5  O   UNL     1       6.673   1.617  -0.697  0.00  0.00    -0.246 OA
ATOM      6  N   UNL     1       4.852   2.696  -1.337  0.00  0.00    -0.273 N 
ATOM      7  H   UNL     1       5.380   3.233  -1.995  0.00  0.00    +0.173 HD
ATOM      8  C   UNL     1       3.525   2.899  -1.225  0.00  0.00    +0.277 A 
ATOM      9  O   UNL     1       2.970   3.733  -1.921  0.00  0.00    -0.266 OA
ENDROOT
BRANCH   1  10
ATOM     10  N   UNL     1       1.392   2.338  -0.163  0.00  0.00    -0.266 N 
ATOM     11  C   UNL     1       0.540   1.321  -0.407  0.00  0.00    +0.203 C 
ATOM     12  O   UNL     1       0.963   0.263  -0.827  0.00  0.00    -0.277 OA
BRANCH  10  13
ATOM     13  C   UNL     1       0.872   3.646   0.244  0.00  0.00    +0.117 C 
BRANCH  13  15
ATOM     14  C   UNL     1       2.025   3.558   2.459  0.00  0.00    +0.009 C 
ATOM     15  C   UNL     1       0.668   3.665   1.760  0.00  0.00    +0.001 C 
ATOM     16  C   UNL     1      -0.014   4.973   2.167  0.00  0.00    +0.009 C 
ENDBRANCH  13  15
ENDBRANCH  10  13
BRANCH  11  17
ATOM     17  C   UNL     1      -0.936   1.499  -0.165  0.00  0.00    +0.019 C 
BRANCH  17  19
ATOM     18  C   UNL     1      -1.268  -0.832   0.400  0.00  0.00    -0.095 C 
ATOM     19  N   UNL     1      -1.635   0.250  -0.538  0.00  0.00    +0.387 N 
ATOM     20  H   UNL     1      -1.351  -0.020  -1.487  0.00  0.00    -0.081 HD
BRANCH  19  21
ATOM     21  C   UNL     1      -3.097   0.464  -0.516  0.00  0.00    -0.035 C 
BRANCH  21  22
ATOM     22  C   UNL     1      -3.774  -0.746  -1.108  0.00  0.00    -0.025 A 
ATOM     23  C   UNL     1      -4.221  -1.863  -0.485  0.00  0.00    +0.011 A 
ATOM     24  C   UNL     1      -4.818  -2.857  -1.238  0.00  0.00    +0.028 A 
ATOM     25  C   UNL     1      -4.938  -2.684  -2.578  0.00  0.00    +0.078 A 
ATOM     26  S   UNL     1      -4.200  -1.075  -2.810  0.00  0.00    -0.084 S 
ATOM     27 CL   UNL     1      -5.635  -3.748  -3.760  0.00  0.00    -0.076 Cl
ENDBRANCH  21  22
ENDBRANCH  19  21
ENDBRANCH  17  19
ENDBRANCH  11  17
ENDBRANCH   1  10
BRANCH   2  28
ATOM     28  N   UNL     1       2.747   0.459   1.397  0.00  0.00    -0.343 N 
ATOM     29  H   UNL     1       1.807   0.636   1.559  0.00  0.00    +0.144 HD
ATOM     30  H   UNL     1       3.198  -0.249   1.883  0.00  0.00    +0.144 HD
ENDBRANCH   2  28
BRANCH   3  31
ATOM     31  C   UNL     1       5.504   0.049   1.133  0.00  0.00    +0.163 C 
BRANCH  31  32
ATOM     32  C   UNL     1       5.983   0.696   2.408  0.00  0.00    -0.028 A 
ATOM     33  C   UNL     1       7.233   1.284   2.457  0.00  0.00    +0.005 A 
ATOM     34  C   UNL     1       7.670   1.881   3.624  0.00  0.00    +0.000 A 
ATOM     35  C   UNL     1       6.861   1.882   4.745  0.00  0.00    +0.000 A 
ATOM     36  C   UNL     1       5.613   1.290   4.697  0.00  0.00    +0.000 A 
ATOM     37  C   UNL     1       5.174   0.697   3.529  0.00  0.00    +0.005 A 
ENDBRANCH  31  32
ENDBRANCH   3  31
TORSDOF 10
