REMARK  Name = ZINC10040543
REMARK  11 active torsions:
REMARK  status: ('A' for Active; 'I' for Inactive)
REMARK    1  A    between atoms: C_1  and  C_2
REMARK    2  A    between atoms: C_2  and  C_3
REMARK    3  A    between atoms: C_2  and  C_4
REMARK    4  A    between atoms: C_4  and  C_6
REMARK    5  A    between atoms: C_4  and  N_21
REMARK    6  A    between atoms: N_8  and  N_9
REMARK    7  A    between atoms: C_10  and  C_11
REMARK    8  A    between atoms: C_13  and  O_19
REMARK    9  A    between atoms: C_14  and  O_18
REMARK   10  A    between atoms: O_19  and  C_20
REMARK   11  A    between atoms: C_22  and  C_24
REMARK                            x       y       z     vdW  Elec       q    Type
REMARK                         _______ _______ _______ _____ _____    ______ ____
ROOT
ATOM      1  C   UNL     1       4.669   5.626  -0.610  0.00  0.00    +0.253 C 
ATOM      2  O   UNL     1       3.561   5.944  -0.988  0.00  0.00    -0.272 OA
ATOM      3  N   UNL     1       5.693   6.495  -0.718  0.00  0.00    -0.205 N 
ATOM      4  H   UNL     1       6.579   6.240  -0.416  0.00  0.00    +0.177 HD
ENDROOT
BRANCH   3   5
ATOM      5  N   UNL     1       5.479   7.765  -1.267  0.00  0.00    -0.188 NA
ATOM      6  C   UNL     1       6.466   8.602  -1.372  0.00  0.00    +0.138 C 
BRANCH   6   7
ATOM      7  C   UNL     1       6.240   9.940  -1.949  0.00  0.00    -0.001 A 
ATOM      8  C   UNL     1       7.300  10.844  -2.057  0.00  0.00    +0.059 A 
ATOM      9  C   UNL     1       7.084  12.095  -2.605  0.00  0.00    +0.163 A 
ATOM     10  C   UNL     1       5.810  12.456  -3.037  0.00  0.00    +0.173 A 
ATOM     11  C   UNL     1       4.756  11.561  -2.925  0.00  0.00    +0.063 A 
ATOM     12  C   UNL     1       4.965  10.308  -2.385  0.00  0.00    +0.028 A 
ATOM     13 BR   UNL     1       3.029  12.058  -3.514  0.00  0.00    -0.046 Br
BRANCH  10  14
ATOM     14  O   UNL     1       5.599  13.689  -3.570  0.00  0.00    -0.503 OA
ATOM     15  H   UNL     1       5.355  14.362  -2.920  0.00  0.00    +0.292 HD
ENDBRANCH  10  14
BRANCH   9  16
ATOM     16  O   UNL     1       8.115  12.975  -2.717  0.00  0.00    -0.491 OA
ATOM     17  C   UNL     1       9.395  12.537  -2.253  0.00  0.00    +0.277 C 
ENDBRANCH   9  16
ENDBRANCH   6   7
ENDBRANCH   3   5
BRANCH   1  18
ATOM     18  C   UNL     1       4.899   4.258  -0.019  0.00  0.00    +0.163 C 
BRANCH  18  19
ATOM     19  N   UNL     1       3.640   3.511  -0.012  0.00  0.00    -0.300 N 
ATOM     20  C   UNL     1       3.656   2.163  -0.020  0.00  0.00    +0.245 C 
ATOM     21  O   UNL     1       4.716   1.568  -0.033  0.00  0.00    -0.270 OA
ATOM     22  H   UNL     1       2.794   3.986  -0.002  0.00  0.00    +0.150 HD
BRANCH  20  23
ATOM     23  C   UNL     1       2.385   1.409  -0.013  0.00  0.00    +0.038 A 
ATOM     24  C   UNL     1       1.166   2.090   0.002  0.00  0.00    +0.014 A 
ATOM     25  C   UNL     1      -0.017   1.381   0.010  0.00  0.00    +0.022 A 
ATOM     26  C   UNL     1       0.002  -0.004   0.002  0.00  0.00    +0.059 A 
ATOM     27  C   UNL     1       1.209  -0.686  -0.014  0.00  0.00    +0.060 A 
ATOM     28  C   UNL     1       2.399   0.013  -0.021  0.00  0.00    +0.034 A 
ATOM     29 CL   UNL     1       1.223  -2.422  -0.024  0.00  0.00    -0.082 Cl
ATOM     30 CL   UNL     1      -1.491  -0.889   0.012  0.00  0.00    -0.082 Cl
ENDBRANCH  20  23
ENDBRANCH  18  19
BRANCH  18  32
ATOM     31  C   UNL     1       4.331   5.042   2.284  0.00  0.00    +0.009 C 
ATOM     32  C   UNL     1       5.415   4.402   1.414  0.00  0.00    +0.012 C 
ATOM     33  C   UNL     1       5.767   3.021   1.970  0.00  0.00    +0.009 C 
ENDBRANCH  18  32
ENDBRANCH   1  18
TORSDOF 8
