REMARK  Name = ZINC36309255
REMARK  18 active torsions:
REMARK  status: ('A' for Active; 'I' for Inactive)
REMARK    1  A    between atoms: C_1  and  C_2
REMARK    2  A    between atoms: C_2  and  C_3
REMARK    3  A    between atoms: C_2  and  C_4
REMARK    4  A    between atoms: C_7  and  O_10
REMARK    5  A    between atoms: O_10  and  C_11
REMARK    6  A    between atoms: C_11  and  C_12
REMARK    7  A    between atoms: C_22  and  C_24
REMARK    8  A    between atoms: C_24  and  N_25
REMARK    9  A    between atoms: N_25  and  C_26
REMARK   10  A    between atoms: N_25  and  C_29
REMARK   11  A    between atoms: C_26  and  C_27
REMARK   12  A    between atoms: C_29  and  C_30
REMARK   13  A    between atoms: C_30  and  C_32
REMARK   14  A    between atoms: C_30  and  O_37
REMARK   15  A    between atoms: C_32  and  O_33
REMARK   16  A    between atoms: O_33  and  C_34
REMARK   17  A    between atoms: C_34  and  C_35
REMARK   18  A    between atoms: C_34  and  C_36
REMARK                            x       y       z     vdW  Elec       q    Type
REMARK                         _______ _______ _______ _____ _____    ______ ____
ROOT
ATOM      1  C   UNL     1      -4.830  -4.242  -1.319  0.00  0.00    +0.144 C 
ATOM      2  C   UNL     1      -5.248  -2.805  -1.626  0.00  0.00    -0.014 A 
ATOM      3  C   UNL     1      -4.995  -2.180  -2.845  0.00  0.00    +0.013 A 
ATOM      4  C   UNL     1      -5.391  -0.902  -3.046  0.00  0.00    +0.046 A 
ATOM      5  S   UNL     1      -6.163  -0.507  -1.484  0.00  0.00    -0.101 S 
ATOM      6  C   UNL     1      -5.902  -2.070  -0.686  0.00  0.00    -0.004 A 
ATOM      7  C   UNL     1      -6.307  -2.488   0.690  0.00  0.00    +0.061 C 
ATOM      8  C   UNL     1      -5.527  -3.757   1.068  0.00  0.00    +0.113 C 
ATOM      9  N   UNL     1      -5.522  -4.661  -0.093  0.00  0.00    -0.292 N 
ATOM     10  C   UNL     1      -6.146  -5.854  -0.034  0.00  0.00    +0.200 C 
ATOM     11  O   UNL     1      -6.137  -6.591  -0.997  0.00  0.00    -0.278 OA
ENDROOT
BRANCH   1  12
ATOM     12  C   UNL     1      -3.316  -4.307  -1.107  0.00  0.00    +0.256 C 
BRANCH  12  13
ATOM     13  O   UNL     1      -2.935  -3.365  -0.102  0.00  0.00    -0.490 OA
BRANCH  13  17
ATOM     14  C   UNL     1       1.075  -3.152   0.842  0.00  0.00    -0.045 A 
ATOM     15  C   UNL     1       0.169  -2.332   1.489  0.00  0.00    +0.007 A 
ATOM     16  C   UNL     1      -1.174  -2.401   1.175  0.00  0.00    +0.046 A 
ATOM     17  C   UNL     1      -1.614  -3.294   0.208  0.00  0.00    +0.121 A 
ATOM     18  C   UNL     1      -0.703  -4.115  -0.440  0.00  0.00    +0.046 A 
ATOM     19  C   UNL     1       0.640  -4.039  -0.125  0.00  0.00    +0.007 A 
BRANCH  14  21
ATOM     20  C   UNL     1       3.054  -1.659   0.916  0.00  0.00    +0.012 C 
ATOM     21  C   UNL     1       2.540  -3.075   1.188  0.00  0.00    +0.013 C 
ATOM     22  C   UNL     1       2.734  -3.413   2.667  0.00  0.00    +0.012 C 
ENDBRANCH  14  21
ENDBRANCH  13  17
ENDBRANCH  12  13
ENDBRANCH   1  12
BRANCH  10  23
ATOM     23  C   UNL     1      -6.853  -6.273   1.230  0.00  0.00    +0.019 C 
BRANCH  23  24
ATOM     24  N   UNL     1      -7.568  -7.535   0.995  0.00  0.00    +0.389 N 
ATOM     25  H   UNL     1      -6.930  -8.218   0.616  0.00  0.00    -0.081 HD
BRANCH  24  26
ATOM     26  C   UNL     1      -8.664  -7.306   0.043  0.00  0.00    -0.051 C 
BRANCH  26  27
ATOM     27  C   UNL     1      -9.671  -6.365   0.652  0.00  0.00    -0.053 C 
ATOM     28  C   UNL     1     -10.002  -5.264   0.024  0.00  0.00    +0.002 C 
ENDBRANCH  26  27
ENDBRANCH  24  26
BRANCH  24  29
ATOM     29  C   UNL     1      -8.118  -8.029   2.264  0.00  0.00    -0.044 C 
BRANCH  29  30
ATOM     30  C   UNL     1      -8.711  -9.424   2.054  0.00  0.00    +0.124 C 
BRANCH  30  31
ATOM     31  O   UNL     1      -9.861  -9.329   1.211  0.00  0.00    -0.391 OA
ATOM     32  H   UNL     1     -10.565  -8.770   1.567  0.00  0.00    +0.210 HD
ENDBRANCH  30  31
BRANCH  30  33
ATOM     33  C   UNL     1      -9.117 -10.014   3.406  0.00  0.00    +0.189 C 
BRANCH  33  34
ATOM     34  O   UNL     1      -9.563 -11.359   3.223  0.00  0.00    -0.375 OA
BRANCH  34  35
ATOM     35  C   UNL     1      -9.968 -12.007   4.431  0.00  0.00    +0.112 C 
ATOM     36  C   UNL     1     -11.461 -11.764   4.665  0.00  0.00    +0.037 C 
ATOM     37  C   UNL     1      -9.708 -13.510   4.317  0.00  0.00    +0.037 C 
ENDBRANCH  34  35
ENDBRANCH  33  34
ENDBRANCH  30  33
ENDBRANCH  29  30
ENDBRANCH  24  29
ENDBRANCH  23  24
ENDBRANCH  10  23
TORSDOF 14
