REMARK  Name = ZINC09993407
REMARK  16 active torsions:
REMARK  status: ('A' for Active; 'I' for Inactive)
REMARK    1  A    between atoms: C_1  and  C_2
REMARK    2  A    between atoms: C_2  and  O_3
REMARK    3  A    between atoms: O_3  and  C_4
REMARK    4  A    between atoms: C_4  and  C_6
REMARK    5  A    between atoms: C_8  and  C_35
REMARK    6  A    between atoms: C_15  and  C_26
REMARK    7  A    between atoms: C_17  and  C_21
REMARK    8  A    between atoms: C_18  and  C_20
REMARK    9  A    between atoms: C_21  and  O_23
REMARK   10  A    between atoms: O_23  and  C_24
REMARK   11  A    between atoms: C_24  and  C_25
REMARK   12  A    between atoms: C_29  and  N_32
REMARK   13  A    between atoms: N_32  and  C_33
REMARK   14  A    between atoms: N_32  and  C_34
REMARK   15  A    between atoms: C_39  and  O_41
REMARK   16  A    between atoms: O_41  and  C_42
REMARK                            x       y       z     vdW  Elec       q    Type
REMARK                         _______ _______ _______ _____ _____    ______ ____
ROOT
ATOM      1  C   UNL     1      -1.986  -2.713  -0.712  0.00  0.00    +0.176 C 
ATOM      2  C   UNL     1      -2.757  -3.901  -0.127  0.00  0.00    +0.046 C 
ATOM      3  C   UNL     1      -2.971  -4.934  -1.235  0.00  0.00    +0.060 C 
ATOM      4  C   UNL     1      -3.723  -4.301  -2.379  0.00  0.00    +0.016 C 
ATOM      5  C   UNL     1      -3.591  -2.986  -2.655  0.00  0.00    +0.025 C 
ATOM      6  C   UNL     1      -2.749  -2.161  -1.885  0.00  0.00    +0.176 C 
ATOM      7  O   UNL     1      -2.637  -0.986  -2.170  0.00  0.00    -0.291 OA
ATOM      8  C   UNL     1      -4.348  -2.359  -3.799  0.00  0.00    +0.092 C 
ATOM      9  C   UNL     1      -4.848  -3.405  -4.752  0.00  0.00    +0.065 C 
ATOM     10  C   UNL     1      -4.927  -4.697  -4.390  0.00  0.00    +0.016 C 
ATOM     11  N   UNL     1      -4.544  -5.091  -3.139  0.00  0.00    -0.321 N 
ATOM     12  C   UNL     1      -5.441  -5.719  -5.372  0.00  0.00    +0.061 C 
ATOM     13  H   UNL     1      -4.857  -5.938  -2.785  0.00  0.00    +0.152 HD
ENDROOT
BRANCH   8  14
ATOM     14  C   UNL     1      -5.522  -1.589  -3.252  0.00  0.00    -0.035 A 
ATOM     15  C   UNL     1      -6.492  -2.242  -2.514  0.00  0.00    +0.006 A 
ATOM     16  C   UNL     1      -7.570  -1.539  -2.011  0.00  0.00    +0.023 A 
ATOM     17  C   UNL     1      -7.678  -0.175  -2.248  0.00  0.00    +0.029 A 
ATOM     18  C   UNL     1      -6.702   0.478  -2.989  0.00  0.00    +0.023 A 
ATOM     19  C   UNL     1      -5.625  -0.230  -3.485  0.00  0.00    +0.006 A 
BRANCH  17  20
ATOM     20  N   UNL     1      -8.767   0.539  -1.741  0.00  0.00    -0.336 N 
ATOM     21  C   UNL     1      -9.796  -0.151  -0.959  0.00  0.00    +0.129 C 
ATOM     22  C   UNL     1      -8.880   1.978  -1.991  0.00  0.00    +0.129 C 
ENDBRANCH  17  20
ENDBRANCH   8  14
BRANCH   2  23
ATOM     23  C   UNL     1      -1.964  -4.516   0.998  0.00  0.00    -0.039 A 
ATOM     24  C   UNL     1      -2.323  -4.269   2.311  0.00  0.00    +0.004 A 
ATOM     25  C   UNL     1      -1.597  -4.832   3.345  0.00  0.00    +0.004 A 
ATOM     26  C   UNL     1      -0.512  -5.641   3.068  0.00  0.00    +0.045 A 
ATOM     27  C   UNL     1      -0.151  -5.889   1.752  0.00  0.00    +0.120 A 
ATOM     28  C   UNL     1      -0.884  -5.329   0.717  0.00  0.00    +0.049 A 
BRANCH  27  29
ATOM     29  O   UNL     1       0.916  -6.685   1.478  0.00  0.00    -0.495 OA
ATOM     30  C   UNL     1       1.621  -7.233   2.594  0.00  0.00    +0.277 C 
ENDBRANCH  27  29
ENDBRANCH   2  23
BRANCH   1  31
ATOM     31  C   UNL     1      -0.624  -3.171  -1.167  0.00  0.00    +0.318 C 
ATOM     32  O   UNL     1      -0.488  -3.669  -2.259  0.00  0.00    -0.250 OA
BRANCH  31  33
ATOM     33  O   UNL     1       0.438  -3.027  -0.358  0.00  0.00    -0.464 OA
BRANCH  33  35
ATOM     34  C   UNL     1       2.780  -3.237   0.200  0.00  0.00    +0.048 C 
ATOM     35  C   UNL     1       1.698  -3.483  -0.854  0.00  0.00    +0.229 C 
ENDBRANCH  33  35
ENDBRANCH  31  33
ENDBRANCH   1  31
BRANCH   9  36
ATOM     36  C   UNL     1      -5.243  -3.024  -6.056  0.00  0.00    +0.338 C 
ATOM     37  O   UNL     1      -5.581  -3.871  -6.861  0.00  0.00    -0.245 OA
BRANCH  36  38
ATOM     38  O   UNL     1      -5.245  -1.721  -6.406  0.00  0.00    -0.462 OA
BRANCH  38  39
ATOM     39  C   UNL     1      -5.656  -1.408  -7.739  0.00  0.00    +0.229 C 
ATOM     40  C   UNL     1      -5.595   0.106  -7.949  0.00  0.00    +0.048 C 
ENDBRANCH  38  39
ENDBRANCH  36  38
ENDBRANCH   9  36
TORSDOF 10
