REMARK  Name = ZINC01728460
REMARK  16 active torsions:
REMARK  status: ('A' for Active; 'I' for Inactive)
REMARK    1  A    between atoms: C_1  and  N_70
REMARK    2  A    between atoms: C_6  and  O_35
REMARK    3  A    between atoms: C_7  and  O_33
REMARK    4  A    between atoms: C_10  and  C_12
REMARK    5  A    between atoms: C_12  and  C_13
REMARK    6  A    between atoms: C_15  and  O_22
REMARK    7  A    between atoms: C_16  and  O_20
REMARK    8  A    between atoms: C_18  and  N_19
REMARK    9  A    between atoms: O_20  and  C_21
REMARK   10  A    between atoms: O_22  and  C_23
REMARK   11  A    between atoms: C_26  and  O_31
REMARK   12  A    between atoms: C_27  and  O_29
REMARK   13  A    between atoms: O_29  and  C_30
REMARK   14  A    between atoms: O_31  and  C_32
REMARK   15  A    between atoms: O_33  and  C_34
REMARK   16  A    between atoms: O_35  and  C_36
REMARK                            x       y       z     vdW  Elec       q    Type
REMARK                         _______ _______ _______ _____ _____    ______ ____
ROOT
ATOM      1  C   UNL     1       2.901   6.552  -2.358  0.00  0.00    -0.024 A 
ATOM      2  C   UNL     1       2.577   6.343  -3.685  0.00  0.00    +0.055 A 
ATOM      3  C   UNL     1       2.712   7.372  -4.603  0.00  0.00    +0.170 A 
ATOM      4  C   UNL     1       3.187   8.614  -4.190  0.00  0.00    +0.164 A 
ATOM      5  C   UNL     1       3.517   8.821  -2.862  0.00  0.00    +0.072 A 
ATOM      6  C   UNL     1       3.374   7.789  -1.943  0.00  0.00    +0.031 A 
ENDROOT
BRANCH   6   7
ATOM      7  N   UNL     1       3.708   7.997  -0.600  0.00  0.00    -0.358 N 
ATOM      8  H   UNL     1       3.608   7.276   0.041  0.00  0.00    +0.142 HD
ATOM      9  H   UNL     1       4.038   8.862  -0.311  0.00  0.00    +0.142 HD
ENDBRANCH   6   7
BRANCH   4  10
ATOM     10  O   UNL     1       3.325   9.623  -5.091  0.00  0.00    -0.491 OA
ATOM     11  C   UNL     1       3.817  10.871  -4.598  0.00  0.00    +0.277 C 
ENDBRANCH   4  10
BRANCH   1  12
ATOM     12  C   UNL     1       2.747   5.432  -1.360  0.00  0.00    +0.026 C 
BRANCH  12  22
ATOM     13  C   UNL     1       3.264   4.960   1.462  0.00  0.00    -0.095 C 
ATOM     14  C   UNL     1       0.897   5.240   1.902  0.00  0.00    -0.074 C 
ATOM     15  C   UNL     1      -0.474   4.846   1.352  0.00  0.00    +0.017 C 
ATOM     16  C   UNL     1      -0.668   5.440  -0.020  0.00  0.00    -0.044 A 
ATOM     17  C   UNL     1      -1.955   5.501  -0.536  0.00  0.00    +0.053 A 
ATOM     18  C   UNL     1      -2.180   6.034  -1.793  0.00  0.00    +0.162 A 
ATOM     19  C   UNL     1      -1.108   6.510  -2.542  0.00  0.00    +0.162 A 
ATOM     20  C   UNL     1       0.173   6.443  -2.025  0.00  0.00    +0.051 A 
ATOM     21  C   UNL     1       0.394   5.914  -0.760  0.00  0.00    -0.054 A 
ATOM     22  C   UNL     1       1.806   5.875  -0.238  0.00  0.00    -0.033 C 
ATOM     23  N   UNL     1       1.907   4.915   0.873  0.00  0.00    +0.383 N 
ATOM     24  H   UNL     1       1.729   3.969   0.516  0.00  0.00    -0.081 HD
BRANCH  19  25
ATOM     25  O   UNL     1      -1.318   7.035  -3.779  0.00  0.00    -0.491 OA
ATOM     26  C   UNL     1      -0.324   7.930  -4.281  0.00  0.00    +0.277 C 
ENDBRANCH  19  25
BRANCH  18  27
ATOM     27  O   UNL     1      -3.443   6.091  -2.294  0.00  0.00    -0.491 OA
ATOM     28  C   UNL     1      -4.492   5.583  -1.469  0.00  0.00    +0.277 C 
ENDBRANCH  18  27
ENDBRANCH  12  22
ENDBRANCH   1  12
BRANCH   3  29
ATOM     29  O   UNL     1       2.388   7.167  -5.908  0.00  0.00    -0.452 OA
BRANCH  29  30
ATOM     30  C   UNL     1       1.771   6.001  -6.237  0.00  0.00    +0.132 A 
ATOM     31  C   UNL     1       2.348   4.788  -5.887  0.00  0.00    +0.050 A 
ATOM     32  C   UNL     1       1.720   3.602  -6.215  0.00  0.00    +0.053 A 
ATOM     33  C   UNL     1       0.518   3.620  -6.904  0.00  0.00    +0.162 A 
ATOM     34  C   UNL     1      -0.060   4.834  -7.260  0.00  0.00    +0.165 A 
ATOM     35  C   UNL     1       0.568   6.023  -6.926  0.00  0.00    +0.095 A 
BRANCH  34  36
ATOM     36  O   UNL     1      -1.240   4.854  -7.936  0.00  0.00    -0.491 OA
ATOM     37  C   UNL     1      -1.776   6.136  -8.269  0.00  0.00    +0.277 C 
ENDBRANCH  34  36
BRANCH  33  38
ATOM     38  O   UNL     1      -0.096   2.451  -7.231  0.00  0.00    -0.491 OA
ATOM     39  C   UNL     1       0.554   1.242  -6.833  0.00  0.00    +0.277 C 
ENDBRANCH  33  38
ENDBRANCH  29  30
ENDBRANCH   3  29
TORSDOF 10
