REMARK  Name = ZINC02642068
REMARK  7 active torsions:
REMARK  status: ('A' for Active; 'I' for Inactive)
REMARK    1  A    between atoms: N_9  and  S_10
REMARK    2  A    between atoms: S_10  and  C_13
REMARK    3  A    between atoms: C_16  and  C_19
REMARK    4  A    between atoms: C_20  and  C_21
REMARK    5  A    between atoms: N_23  and  C_24
REMARK    6  A    between atoms: C_27  and  S_30
REMARK    7  A    between atoms: S_30  and  N_33
REMARK                            x       y       z     vdW  Elec       q    Type
REMARK                         _______ _______ _______ _____ _____    ______ ____
ROOT
ATOM      1  C   UNL     1       3.643  -9.074  -0.717  0.00  0.00    +0.109 A 
ATOM      2  C   UNL     1       4.834  -8.371  -0.725  0.00  0.00    +0.029 A 
ATOM      3  C   UNL     1       4.828  -6.996  -0.614  0.00  0.00    +0.010 A 
ATOM      4  C   UNL     1       3.614  -6.314  -0.493  0.00  0.00    -0.025 A 
ATOM      5  C   UNL     1       2.414  -7.032  -0.480  0.00  0.00    +0.010 A 
ATOM      6  C   UNL     1       2.437  -8.406  -0.597  0.00  0.00    +0.029 A 
ENDROOT
BRANCH   1   7
ATOM      7  S   UNL     1       3.661 -10.831  -0.860  0.00  0.00    +0.075 S 
ATOM      8  O   UNL     1       2.392 -11.209  -1.375  0.00  0.00    -0.150 OA
ATOM      9  O   UNL     1       4.879 -11.173  -1.507  0.00  0.00    -0.150 OA
BRANCH   7  18
ATOM     10  C   UNL     1       7.046 -12.413   3.030  0.00  0.00    +0.000 A 
ATOM     11  C   UNL     1       7.301 -11.909   1.768  0.00  0.00    +0.002 A 
ATOM     12  C   UNL     1       6.259 -11.566   0.933  0.00  0.00    +0.025 A 
ATOM     13  C   UNL     1       4.937 -11.732   1.353  0.00  0.00    +0.054 A 
ATOM     14  C   UNL     1       4.693 -12.233   2.622  0.00  0.00    -0.023 A 
ATOM     15  C   UNL     1       5.741 -12.574   3.455  0.00  0.00    +0.005 A 
ATOM     16  C   UNL     1       3.197 -12.306   2.830  0.00  0.00    +0.058 C 
ATOM     17  C   UNL     1       2.598 -11.775   1.517  0.00  0.00    +0.136 C 
ATOM     18  N   UNL     1       3.752 -11.446   0.675  0.00  0.00    -0.202 N 
ENDBRANCH   7  18
ENDBRANCH   1   7
BRANCH   4  19
ATOM     19  C   UNL     1       3.598  -4.846  -0.373  0.00  0.00    +0.013 C 
ATOM     20  C   UNL     1       2.425  -4.192  -0.257  0.00  0.00    +0.068 C 
BRANCH  20  21
ATOM     21  C   UNL     1       2.410  -2.733  -0.138  0.00  0.00    +0.241 C 
ATOM     22  O   UNL     1       3.456  -2.111  -0.144  0.00  0.00    -0.270 OA
ATOM     23  N   UNL     1       1.238  -2.079  -0.021  0.00  0.00    -0.282 N 
ATOM     24  H   UNL     1       0.410  -2.577   0.061  0.00  0.00    +0.155 HD
BRANCH  23  25
ATOM     25  C   UNL     1       1.215  -0.680  -0.019  0.00  0.00    +0.034 A 
ATOM     26  C   UNL     1       2.137   0.032  -0.774  0.00  0.00    +0.025 A 
ATOM     27  C   UNL     1       2.112   1.413  -0.769  0.00  0.00    +0.030 A 
ATOM     28  C   UNL     1       1.169   2.086  -0.014  0.00  0.00    +0.105 A 
ATOM     29  C   UNL     1       0.249   1.380   0.740  0.00  0.00    +0.030 A 
ATOM     30  C   UNL     1       0.269  -0.001   0.739  0.00  0.00    +0.025 A 
BRANCH  28  31
ATOM     31  S   UNL     1       1.141   3.848  -0.010  0.00  0.00    +0.056 S 
ATOM     32  O   UNL     1       0.513   4.241   1.203  0.00  0.00    -0.153 OA
ATOM     33  O   UNL     1       2.449   4.276  -0.364  0.00  0.00    -0.153 OA
BRANCH  31  34
ATOM     34  N   UNL     1       0.138   4.324  -1.238  0.00  0.00    -0.204 NA
ATOM     35  H   UNL     1      -0.300   3.659  -1.793  0.00  0.00    +0.144 HD
ATOM     36  H   UNL     1      -0.013   5.268  -1.403  0.00  0.00    +0.144 HD
ENDBRANCH  31  34
ENDBRANCH  28  31
ENDBRANCH  23  25
ENDBRANCH  20  21
ENDBRANCH   4  19
TORSDOF 7
