REMARK  Name = ZINC40466452
REMARK  8 active torsions:
REMARK  status: ('A' for Active; 'I' for Inactive)
REMARK    1  A    between atoms: C_1  and  C_2
REMARK    2  A    between atoms: C_16  and  C_40
REMARK    3  A    between atoms: C_21  and  C_22
REMARK    4  A    between atoms: C_21  and  O_39
REMARK    5  A    between atoms: C_22  and  C_24
REMARK    6  A    between atoms: C_24  and  N_25
REMARK    7  A    between atoms: N_28  and  C_31
REMARK    8  A    between atoms: C_31  and  C_32
REMARK                            x       y       z     vdW  Elec       q    Type
REMARK                         _______ _______ _______ _____ _____    ______ ____
ROOT
ATOM      1  C   UNL     1       0.414   1.596   0.229  0.00  0.00    +0.020 C 
ATOM      2  C   UNL     1       0.280   0.072   0.181  0.00  0.00    +0.011 C 
ATOM      3  C   UNL     1      -1.189  -0.354   0.154  0.00  0.00    +0.023 C 
ATOM      4  C   UNL     1      -1.881   0.044   1.458  0.00  0.00    +0.080 C 
ATOM      5  C   UNL     1      -1.129  -0.549   2.621  0.00  0.00    +0.156 C 
ATOM      6  O   UNL     1      -1.707  -0.790   3.661  0.00  0.00    -0.293 OA
ATOM      7  C   UNL     1       0.299  -0.830   2.495  0.00  0.00    +0.046 C 
ATOM      8  C   UNL     1       0.963  -0.550   1.382  0.00  0.00    -0.056 C 
ATOM      9  C   UNL     1       2.442  -0.837   1.277  0.00  0.00    +0.032 C 
ATOM     10  C   UNL     1       2.684  -1.895   0.202  0.00  0.00    +0.012 C 
ATOM     11  C   UNL     1       1.626  -1.863  -0.879  0.00  0.00    +0.020 C 
ATOM     12  C   UNL     1       0.969  -0.513  -1.044  0.00  0.00    -0.060 C 
ATOM     13  C   UNL     1       0.927   0.129  -2.175  0.00  0.00    -0.026 C 
ATOM     14  C   UNL     1       1.562  -0.350  -3.462  0.00  0.00    +0.037 C 
ATOM     15  C   UNL     1       2.695  -1.292  -3.089  0.00  0.00    +0.010 C 
ATOM     16  C   UNL     1       2.079  -2.402  -2.205  0.00  0.00    +0.006 C 
ATOM     17  C   UNL     1       3.194  -3.455  -2.184  0.00  0.00    +0.008 C 
ATOM     18  C   UNL     1       3.690  -3.458  -3.655  0.00  0.00    +0.043 C 
ATOM     19  C   UNL     1       3.277  -2.095  -4.261  0.00  0.00    +0.131 C 
ATOM     20  C   UNL     1       3.819  -0.520  -2.403  0.00  0.00    +0.015 C 
ENDROOT
BRANCH  19  21
ATOM     21  C   UNL     1       4.484  -1.387  -4.821  0.00  0.00    +0.179 C 
ATOM     22  O   UNL     1       5.587  -1.657  -4.410  0.00  0.00    -0.293 OA
BRANCH  21  23
ATOM     23  C   UNL     1       4.315  -0.343  -5.894  0.00  0.00    +0.161 C 
BRANCH  23  24
ATOM     24  N   UNL     1       5.630   0.193  -6.268  0.00  0.00    -0.299 NA
ATOM     25  C   UNL     1       6.231   0.939  -5.154  0.00  0.00    +0.066 C 
ATOM     26  C   UNL     1       7.622   1.428  -5.562  0.00  0.00    -0.063 C 
ATOM     27  N   UNL     1       7.510   2.290  -6.747  0.00  0.00    +0.385 N 
ATOM     28  C   UNL     1       6.931   1.524  -7.859  0.00  0.00    -0.063 C 
ATOM     29  C   UNL     1       5.534   1.035  -7.469  0.00  0.00    +0.066 C 
ATOM     30  H   UNL     1       6.915   3.077  -6.535  0.00  0.00    -0.081 HD
BRANCH  27  31
ATOM     31  C   UNL     1       8.843   2.774  -7.128  0.00  0.00    -0.021 C 
BRANCH  31  32
ATOM     32  C   UNL     1       8.716   3.754  -8.266  0.00  0.00    +0.046 A 
ATOM     33  C   UNL     1       8.349   5.066  -8.004  0.00  0.00    +0.196 A 
ATOM     34  C   UNL     1       8.235   5.960  -9.064  0.00  0.00    +0.054 A 
ATOM     35  C   UNL     1       8.495   5.500 -10.344  0.00  0.00    +0.021 A 
ATOM     36  C   UNL     1       8.855   4.178 -10.526  0.00  0.00    +0.083 A 
ATOM     37  N   UNL     1       8.959   3.357  -9.499  0.00  0.00    -0.363 N 
ATOM     38  O   UNL     1       8.104   5.472  -6.730  0.00  0.00    -0.286 OA
ATOM     39  H   UNL     1       9.218   2.435  -9.656  0.00  0.00    +0.165 HD
ENDBRANCH  31  32
ENDBRANCH  27  31
ENDBRANCH  23  24
ENDBRANCH  21  23
ENDBRANCH  19  21
BRANCH  19  40
ATOM     40  O   UNL     1       2.292  -2.279  -5.276  0.00  0.00    -0.380 OA
ATOM     41  H   UNL     1       2.606  -2.780  -6.042  0.00  0.00    +0.211 HD
ENDBRANCH  19  40
TORSDOF 6
