REMARK  Name = ZINC44547064
REMARK  6 active torsions:
REMARK  status: ('A' for Active; 'I' for Inactive)
REMARK    1  A    between atoms: C_1  and  C_2
REMARK    2  A    between atoms: C_2  and  C_4
REMARK    3  A    between atoms: C_2  and  N_14
REMARK    4  A    between atoms: C_8  and  S_10
REMARK    5  A    between atoms: S_10  and  N_13
REMARK    6  A    between atoms: N_14  and  C_15
REMARK                            x       y       z     vdW  Elec       q    Type
REMARK                         _______ _______ _______ _____ _____    ______ ____
ROOT
ATOM      1  N   UNL     1       0.684  -0.562   1.167  0.00  0.00    -0.342 N 
ATOM      2  H   UNL     1       1.555  -0.974   1.057  0.00  0.00    +0.146 HD
ENDROOT
BRANCH   1   3
ATOM      3  C   UNL     1       0.056  -0.632   2.347  0.00  0.00    +0.081 C 
ATOM      4  C   UNL     1       0.706  -1.195   3.455  0.00  0.00    +0.051 C 
ATOM      5  C   UNL     1      -0.000  -1.451   4.638  0.00  0.00    +0.024 C 
ATOM      6  C   UNL     1       0.696  -2.014   5.714  0.00  0.00    -0.003 A 
ATOM      7  C   UNL     1       0.053  -2.299   6.933  0.00  0.00    +0.010 A 
ATOM      8  C   UNL     1       0.765  -2.847   7.955  0.00  0.00    +0.001 A 
ATOM      9  C   UNL     1       2.121  -3.133   7.824  0.00  0.00    +0.002 A 
ATOM     10  C   UNL     1       2.799  -2.880   6.671  0.00  0.00    +0.024 A 
ATOM     11  C   UNL     1       2.122  -2.315   5.575  0.00  0.00    +0.041 A 
ATOM     12  N   UNL     1       2.763  -2.058   4.432  0.00  0.00    -0.281 N 
ATOM     13  C   UNL     1       2.137  -1.530   3.389  0.00  0.00    +0.249 C 
ATOM     14  O   UNL     1       2.760  -1.315   2.358  0.00  0.00    -0.270 OA
ATOM     15  H   UNL     1       3.707  -2.265   4.362  0.00  0.00    +0.155 HD
ENDBRANCH   1   3
BRANCH   1  17
ATOM     16  C   UNL     1       0.369   1.631   0.133  0.00  0.00    +0.033 C 
ATOM     17  C   UNL     1       0.056   0.137   0.044  0.00  0.00    +0.097 C 
BRANCH  17  18
ATOM     18  C   UNL     1       0.593  -0.412  -1.253  0.00  0.00    -0.026 A 
ATOM     19  C   UNL     1       1.935  -0.727  -1.367  0.00  0.00    +0.005 A 
ATOM     20  C   UNL     1       2.428  -1.230  -2.556  0.00  0.00    +0.002 A 
ATOM     21  C   UNL     1       1.579  -1.420  -3.631  0.00  0.00    +0.028 A 
ATOM     22  C   UNL     1       0.238  -1.106  -3.517  0.00  0.00    +0.105 A 
ATOM     23  C   UNL     1      -0.256  -0.607  -2.326  0.00  0.00    +0.034 A 
BRANCH  22  24
ATOM     24  S   UNL     1      -0.843  -1.347  -4.887  0.00  0.00    +0.056 S 
ATOM     25  O   UNL     1      -1.942  -0.465  -4.698  0.00  0.00    -0.153 OA
ATOM     26  O   UNL     1      -0.033  -1.315  -6.054  0.00  0.00    -0.153 OA
BRANCH  24  27
ATOM     27  N   UNL     1      -1.446  -2.885  -4.771  0.00  0.00    -0.204 NA
ATOM     28  H   UNL     1      -2.329  -3.087  -5.117  0.00  0.00    +0.144 HD
ATOM     29  H   UNL     1      -0.915  -3.584  -4.358  0.00  0.00    +0.144 HD
ENDBRANCH  24  27
ENDBRANCH  22  24
ENDBRANCH  17  18
ENDBRANCH   1  17
TORSDOF 5
