REMARK  Name = ZINC34132835
REMARK  6 active torsions:
REMARK  status: ('A' for Active; 'I' for Inactive)
REMARK    1  A    between atoms: C_3  and  N_22
REMARK    2  A    between atoms: C_6  and  C_7
REMARK    3  A    between atoms: C_7  and  C_8
REMARK    4  A    between atoms: C_11  and  N_14
REMARK    5  A    between atoms: C_15  and  C_17
REMARK    6  A    between atoms: C_18  and  C_19
REMARK                            x       y       z     vdW  Elec       q    Type
REMARK                         _______ _______ _______ _____ _____    ______ ____
ROOT
ATOM      1  C   UNL     1       1.448  -1.484  -3.140  0.00  0.00    -0.043 A 
ATOM      2  C   UNL     1       0.230  -0.854  -2.965  0.00  0.00    +0.006 A 
ATOM      3  C   UNL     1      -0.781  -1.031  -3.890  0.00  0.00    +0.023 A 
ATOM      4  C   UNL     1      -0.572  -1.844  -4.997  0.00  0.00    +0.034 A 
ATOM      5  C   UNL     1       0.653  -2.475  -5.170  0.00  0.00    +0.023 A 
ATOM      6  C   UNL     1       1.661  -2.289  -4.244  0.00  0.00    +0.006 A 
ENDROOT
BRANCH   4   7
ATOM      7  N   UNL     1      -1.592  -2.026  -5.935  0.00  0.00    -0.282 N 
ATOM      8  C   UNL     1      -1.758  -3.226  -6.525  0.00  0.00    +0.241 C 
ATOM      9  O   UNL     1      -1.106  -4.181  -6.153  0.00  0.00    -0.270 OA
ATOM     10  H   UNL     1      -2.180  -1.288  -6.160  0.00  0.00    +0.155 HD
BRANCH   8  11
ATOM     11  C   UNL     1      -2.735  -3.380  -7.624  0.00  0.00    +0.075 C 
ATOM     12  C   UNL     1      -3.527  -4.463  -7.672  0.00  0.00    +0.101 C 
BRANCH  12  13
ATOM     13  C   UNL     1      -3.267  -5.606  -6.778  0.00  0.00    +0.380 C 
ATOM     14  O   UNL     1      -2.993  -5.413  -5.602  0.00  0.00    -0.241 OA
ATOM     15  O   UNL     1      -3.325  -6.748  -7.213  0.00  0.00    -0.241 OA
ENDBRANCH  12  13
ENDBRANCH   8  11
ENDBRANCH   4   7
BRANCH   1  16
ATOM     16  C   UNL     1       2.548  -1.288  -2.129  0.00  0.00    +0.070 C 
BRANCH  16  22
ATOM     17  C   UNL     1       3.051   1.162  -2.060  0.00  0.00    +0.006 A 
ATOM     18  C   UNL     1       3.816   2.255  -2.417  0.00  0.00    +0.023 A 
ATOM     19  C   UNL     1       4.922   2.087  -3.241  0.00  0.00    +0.025 A 
ATOM     20  C   UNL     1       5.254   0.820  -3.703  0.00  0.00    +0.023 A 
ATOM     21  C   UNL     1       4.485  -0.269  -3.341  0.00  0.00    +0.006 A 
ATOM     22  C   UNL     1       3.385  -0.098  -2.521  0.00  0.00    -0.043 A 
BRANCH  19  23
ATOM     23  N   UNL     1       5.698   3.191  -3.604  0.00  0.00    -0.358 N 
ATOM     24  H   UNL     1       5.464   4.075  -3.282  0.00  0.00    +0.142 HD
ATOM     25  H   UNL     1       6.470   3.072  -4.180  0.00  0.00    +0.142 HD
ENDBRANCH  19  23
ENDBRANCH  16  22
ENDBRANCH   1  16
TORSDOF 6
