REMARK  Name = ZINC12042139
REMARK  13 active torsions:
REMARK  status: ('A' for Active; 'I' for Inactive)
REMARK    1  A    between atoms: C_1  and  C_2
REMARK    2  A    between atoms: C_2  and  C_3
REMARK    3  A    between atoms: C_3  and  C_18
REMARK    4  A    between atoms: N_6  and  C_10
REMARK    5  A    between atoms: C_10  and  C_11
REMARK    6  A    between atoms: C_11  and  C_12
REMARK    7  A    between atoms: C_13  and  C_17
REMARK    8  A    between atoms: C_23  and  C_24
REMARK    9  A    between atoms: C_23  and  N_68
REMARK   10  A    between atoms: C_27  and  O_33
REMARK   11  A    between atoms: C_28  and  O_30
REMARK   12  A    between atoms: O_30  and  C_31
REMARK   13  A    between atoms: C_31  and  C_32
REMARK                            x       y       z     vdW  Elec       q    Type
REMARK                         _______ _______ _______ _____ _____    ______ ____
ROOT
ATOM      1  C   UNL     1       0.002  -0.004   0.002  0.00  0.00    +0.018 C 
ATOM      2  C   UNL     1      -1.433  -0.535   0.038  0.00  0.00    -0.013 C 
ATOM      3  C   UNL     1      -1.405  -2.065   0.091  0.00  0.00    -0.078 C 
ATOM      4  C   UNL     1       0.723  -2.042   1.251  0.00  0.00    -0.078 C 
ATOM      5  C   UNL     1       0.758  -0.512   1.233  0.00  0.00    -0.013 C 
ATOM      6  N   UNL     1      -0.685  -2.489   1.311  0.00  0.00    +0.382 N 
ATOM      7  H   UNL     1      -1.136  -2.062   2.129  0.00  0.00    -0.081 HD
ENDROOT
BRANCH   1   8
ATOM      8  C   UNL     1      -0.019   1.526   0.010  0.00  0.00    +0.115 C 
ATOM      9  C   UNL     1       1.393   2.078  -0.000  0.00  0.00    +0.247 C 
ATOM     10  O   UNL     1       2.235   1.920  -0.858  0.00  0.00    -0.273 OA
ATOM     11  N   UNL     1       1.517   2.782   1.143  0.00  0.00    -0.224 N 
ATOM     12  C   UNL     1       0.392   2.751   1.866  0.00  0.00    +0.309 C 
ATOM     13  O   UNL     1       0.262   3.312   2.936  0.00  0.00    -0.252 OA
ATOM     14  N   UNL     1      -0.578   2.030   1.277  0.00  0.00    -0.285 N 
ATOM     15  H   UNL     1      -1.472   1.872   1.619  0.00  0.00    +0.151 HD
BRANCH   8  17
ATOM     16  C   UNL     1      -0.819   3.588  -1.151  0.00  0.00    +0.006 C 
ATOM     17  C   UNL     1      -0.814   2.058  -1.183  0.00  0.00    +0.032 C 
ENDBRANCH   8  17
BRANCH  11  18
ATOM     18  C   UNL     1       2.734   3.492   1.543  0.00  0.00    +0.123 C 
BRANCH  18  19
ATOM     19  C   UNL     1       2.690   4.924   1.005  0.00  0.00    +0.064 C 
BRANCH  19  20
ATOM     20  C   UNL     1       3.942   5.654   1.417  0.00  0.00    +0.014 A 
ATOM     21  C   UNL     1       5.137   5.755   0.781  0.00  0.00    +0.049 A 
ATOM     22  N   UNL     1       6.090   6.463   1.348  0.00  0.00    -0.252 NA
ATOM     23  C   UNL     1       5.908   7.054   2.507  0.00  0.00    +0.156 A 
ATOM     24  S   UNL     1       4.268   6.622   2.883  0.00  0.00    -0.080 S 
ATOM     25  C   UNL     1       5.365   5.076  -0.545  0.00  0.00    +0.066 C 
ENDBRANCH  19  20
ENDBRANCH  18  19
ENDBRANCH  11  18
ENDBRANCH   1   8
BRANCH   6  26
ATOM     26  C   UNL     1      -0.743  -3.960   1.445  0.00  0.00    -0.043 C 
BRANCH  26  27
ATOM     27  C   UNL     1      -2.162  -4.420   1.232  0.00  0.00    -0.060 A 
ATOM     28  C   UNL     1      -2.591  -4.768  -0.035  0.00  0.00    +0.005 A 
ATOM     29  C   UNL     1      -3.892  -5.191  -0.235  0.00  0.00    +0.049 A 
ATOM     30  C   UNL     1      -4.768  -5.267   0.835  0.00  0.00    +0.158 A 
ATOM     31  C   UNL     1      -4.336  -4.917   2.111  0.00  0.00    +0.162 A 
ATOM     32  C   UNL     1      -3.030  -4.499   2.305  0.00  0.00    +0.051 A 
BRANCH  30  33
ATOM     33  O   UNL     1      -6.048  -5.684   0.640  0.00  0.00    -0.503 OA
ATOM     34  H   UNL     1      -6.168  -6.640   0.729  0.00  0.00    +0.292 HD
ENDBRANCH  30  33
BRANCH  31  35
ATOM     35  O   UNL     1      -5.192  -4.990   3.164  0.00  0.00    -0.489 OA
BRANCH  35  36
ATOM     36  C   UNL     1      -4.680  -4.615   4.444  0.00  0.00    +0.226 C 
ATOM     37  C   UNL     1      -5.780  -4.761   5.497  0.00  0.00    +0.048 C 
ENDBRANCH  35  36
ENDBRANCH  31  35
ENDBRANCH  26  27
ENDBRANCH   6  26
TORSDOF 10
