REMARK  Name = ZINC35729516
REMARK  11 active torsions:
REMARK  status: ('A' for Active; 'I' for Inactive)
REMARK    1  A    between atoms: C_1  and  C_2
REMARK    2  A    between atoms: C_3  and  C_28
REMARK    3  A    between atoms: C_4  and  C_11
REMARK    4  A    between atoms: N_9  and  C_10
REMARK    5  A    between atoms: C_14  and  N_17
REMARK    6  A    between atoms: C_18  and  C_20
REMARK    7  A    between atoms: C_28  and  O_30
REMARK    8  A    between atoms: O_30  and  C_31
REMARK    9  A    between atoms: C_31  and  C_32
REMARK   10  A    between atoms: C_32  and  O_33
REMARK   11  A    between atoms: O_33  and  C_34
REMARK                            x       y       z     vdW  Elec       q    Type
REMARK                         _______ _______ _______ _____ _____    ______ ____
ROOT
ATOM      1  C   UNL     1      -1.480  -2.974   1.390  0.00  0.00    -0.022 A 
ATOM      2  C   UNL     1      -0.631  -3.166   2.464  0.00  0.00    +0.007 A 
ATOM      3  C   UNL     1      -1.102  -3.759   3.620  0.00  0.00    +0.023 A 
ATOM      4  C   UNL     1      -2.429  -4.160   3.703  0.00  0.00    +0.034 A 
ATOM      5  C   UNL     1      -3.279  -3.965   2.622  0.00  0.00    +0.023 A 
ATOM      6  C   UNL     1      -2.803  -3.368   1.471  0.00  0.00    +0.007 A 
ENDROOT
BRANCH   1  10
ATOM      7  C   UNL     1       0.345   1.286   0.429  0.00  0.00    +0.061 C 
ATOM      8  C   UNL     1       0.263  -0.203   0.214  0.00  0.00    +0.021 C 
ATOM      9  C   UNL     1      -0.926  -0.830   0.355  0.00  0.00    +0.078 C 
ATOM     10  C   UNL     1      -0.964  -2.328   0.130  0.00  0.00    +0.141 C 
ATOM     11  N   UNL     1       0.307  -2.981  -0.226  0.00  0.00    -0.315 N 
ATOM     12  C   UNL     1       1.413  -2.219  -0.330  0.00  0.00    +0.137 C 
ATOM     13  S   UNL     1       2.898  -2.965  -0.744  0.00  0.00    -0.018 S 
ATOM     14  N   UNL     1       1.389  -0.896  -0.125  0.00  0.00    -0.289 N 
ATOM     15  C   UNL     1       2.642  -0.151  -0.267  0.00  0.00    +0.137 C 
ATOM     16  H   UNL     1       0.347  -3.938  -0.383  0.00  0.00    +0.149 HD
BRANCH   9  17
ATOM     17  C   UNL     1      -2.094  -0.113   0.701  0.00  0.00    +0.339 C 
ATOM     18  O   UNL     1      -2.040   1.090   0.877  0.00  0.00    -0.245 OA
BRANCH  17  19
ATOM     19  O   UNL     1      -3.269  -0.762   0.836  0.00  0.00    -0.459 OA
BRANCH  19  20
ATOM     20  C   UNL     1      -4.409   0.025   1.188  0.00  0.00    +0.260 C 
BRANCH  20  21
ATOM     21  C   UNL     1      -5.639  -0.877   1.294  0.00  0.00    +0.200 C 
BRANCH  21  22
ATOM     22  O   UNL     1      -5.465  -1.794   2.376  0.00  0.00    -0.380 OA
ATOM     23  C   UNL     1      -6.564  -2.688   2.563  0.00  0.00    +0.194 C 
ENDBRANCH  21  22
ENDBRANCH  20  21
ENDBRANCH  19  20
ENDBRANCH  17  19
ENDBRANCH   9  17
ENDBRANCH   1  10
BRANCH   4  24
ATOM     24  N   UNL     1      -2.908  -4.761   4.871  0.00  0.00    -0.282 N 
ATOM     25  C   UNL     1      -2.453  -4.354   6.073  0.00  0.00    +0.248 C 
ATOM     26  O   UNL     1      -1.580  -3.511   6.139  0.00  0.00    -0.270 OA
ATOM     27  H   UNL     1      -3.567  -5.470   4.817  0.00  0.00    +0.155 HD
BRANCH  25  28
ATOM     28  C   UNL     1      -3.016  -4.933   7.310  0.00  0.00    +0.038 A 
ATOM     29  C   UNL     1      -4.014  -5.906   7.238  0.00  0.00    +0.014 A 
ATOM     30  C   UNL     1      -4.536  -6.443   8.396  0.00  0.00    +0.022 A 
ATOM     31  C   UNL     1      -4.072  -6.020   9.630  0.00  0.00    +0.059 A 
ATOM     32  C   UNL     1      -3.080  -5.054   9.709  0.00  0.00    +0.060 A 
ATOM     33  C   UNL     1      -2.546  -4.514   8.557  0.00  0.00    +0.034 A 
ATOM     34 CL   UNL     1      -2.504  -4.529  11.260  0.00  0.00    -0.082 Cl
ATOM     35 CL   UNL     1      -4.734  -6.700  11.083  0.00  0.00    -0.082 Cl
ENDBRANCH  25  28
ENDBRANCH   4  24
TORSDOF 8
