REMARK  Name = ZINC60238870
REMARK  10 active torsions:
REMARK  status: ('A' for Active; 'I' for Inactive)
REMARK    1  A    between atoms: C_1  and  C_2
REMARK    2  A    between atoms: C_5  and  C_8
REMARK    3  A    between atoms: C_8  and  C_10
REMARK    4  A    between atoms: C_8  and  N_28
REMARK    5  A    between atoms: C_10  and  N_11
REMARK    6  A    between atoms: C_12  and  C_14
REMARK    7  A    between atoms: C_14  and  C_16
REMARK    8  A    between atoms: C_14  and  N_17
REMARK    9  A    between atoms: C_18  and  C_20
REMARK   10  A    between atoms: C_21  and  C_22
REMARK                            x       y       z     vdW  Elec       q    Type
REMARK                         _______ _______ _______ _____ _____    ______ ____
ROOT
ATOM      1  N   UNL     1      -1.243  -6.321   0.358  0.00  0.00    -0.315 N 
ATOM      2  C   UNL     1      -2.354  -7.052   0.573  0.00  0.00    +0.233 C 
ATOM      3  O   UNL     1      -3.414  -6.499   0.779  0.00  0.00    -0.274 OA
ATOM      4  H   UNL     1      -0.396  -6.763   0.193  0.00  0.00    +0.149 HD
ENDROOT
BRANCH   2   5
ATOM      5  C   UNL     1      -2.280  -8.557   0.558  0.00  0.00    +0.156 C 
ATOM      6  C   UNL     1      -1.786  -9.030  -0.810  0.00  0.00    +0.038 C 
BRANCH   5   7
ATOM      7  N   UNL     1      -3.610  -9.114   0.816  0.00  0.00    -0.301 N 
ATOM      8  C   UNL     1      -3.733 -10.349   1.342  0.00  0.00    +0.237 C 
ATOM      9  O   UNL     1      -2.740 -11.001   1.603  0.00  0.00    -0.271 OA
ATOM     10  H   UNL     1      -4.402  -8.595   0.608  0.00  0.00    +0.150 HD
BRANCH   8  11
ATOM     11  C   UNL     1      -5.063 -10.906   1.600  0.00  0.00    +0.068 C 
ATOM     12  C   UNL     1      -5.186 -12.141   2.126  0.00  0.00    +0.013 C 
BRANCH  12  13
ATOM     13  C   UNL     1      -6.523 -12.701   2.385  0.00  0.00    -0.025 A 
ATOM     14  C   UNL     1      -7.667 -11.957   2.082  0.00  0.00    +0.008 A 
ATOM     15  C   UNL     1      -8.916 -12.488   2.328  0.00  0.00    +0.001 A 
ATOM     16  C   UNL     1      -9.038 -13.754   2.873  0.00  0.00    +0.000 A 
ATOM     17  C   UNL     1      -7.910 -14.497   3.176  0.00  0.00    +0.001 A 
ATOM     18  C   UNL     1      -6.654 -13.982   2.931  0.00  0.00    +0.008 A 
ENDBRANCH  12  13
ENDBRANCH   8  11
ENDBRANCH   5   7
ENDBRANCH   2   5
BRANCH   1  19
ATOM     19  C   UNL     1      -1.315  -4.857   0.372  0.00  0.00    +0.093 C 
BRANCH  19  20
ATOM     20  C   UNL     1       0.042  -4.276  -0.029  0.00  0.00    -0.020 C 
BRANCH  20  25
ATOM     21  C   UNL     1       1.182  -5.664  -5.521  0.00  0.00    +0.044 C 
ATOM     22  C   UNL     1       0.885  -5.302  -4.089  0.00  0.00    -0.050 A 
ATOM     23  C   UNL     1       1.461  -6.023  -3.060  0.00  0.00    +0.003 A 
ATOM     24  C   UNL     1       1.188  -5.691  -1.746  0.00  0.00    +0.002 A 
ATOM     25  C   UNL     1       0.340  -4.637  -1.461  0.00  0.00    -0.059 A 
ATOM     26  C   UNL     1      -0.235  -3.915  -2.490  0.00  0.00    +0.002 A 
ATOM     27  C   UNL     1       0.041  -4.245  -3.804  0.00  0.00    +0.003 A 
ENDBRANCH  20  25
BRANCH  20  28
ATOM     28  N   UNL     1       0.009  -2.814   0.111  0.00  0.00    +0.385 N 
ATOM     29  C   UNL     1      -0.207  -2.440   1.532  0.00  0.00    -0.078 C 
ATOM     30  C   UNL     1       0.334  -0.990   1.603  0.00  0.00    -0.020 C 
ATOM     31  C   UNL     1       1.563  -1.034   0.666  0.00  0.00    -0.020 C 
ATOM     32  C   UNL     1       1.318  -2.236  -0.264  0.00  0.00    -0.078 C 
ATOM     33  H   UNL     1      -0.721  -2.425  -0.468  0.00  0.00    -0.081 HD
ENDBRANCH  20  28
ENDBRANCH  19  20
ENDBRANCH   1  19
TORSDOF 8
