REMARK  Name = ZINC65077856
REMARK  8 active torsions:
REMARK  status: ('A' for Active; 'I' for Inactive)
REMARK    1  A    between atoms: C_1  and  C_2
REMARK    2  A    between atoms: C_10  and  S_15
REMARK    3  A    between atoms: S_15  and  C_18
REMARK    4  A    between atoms: C_18  and  C_19
REMARK    5  A    between atoms: C_19  and  C_20
REMARK    6  A    between atoms: N_22  and  C_23
REMARK    7  A    between atoms: C_26  and  S_29
REMARK    8  A    between atoms: S_29  and  N_32
REMARK                            x       y       z     vdW  Elec       q    Type
REMARK                         _______ _______ _______ _____ _____    ______ ____
ROOT
ATOM      1  C   UNL     1       6.910   1.268  -1.577  0.00  0.00    +0.181 C 
ENDROOT
BRANCH   1   2
ATOM      2  S   UNL     1       6.939   0.106  -0.185  0.00  0.00    -0.003 S 
ATOM      3  O   UNL     1       7.552   0.712   0.946  0.00  0.00    -0.169 OA
ATOM      4  O   UNL     1       7.350  -1.179  -0.629  0.00  0.00    -0.169 OA
BRANCH   2  13
ATOM      5  C   UNL     1      -0.023   1.508  -0.008  0.00  0.00    +0.020 C 
ATOM      6  C   UNL     1       0.004  -0.022  -0.007  0.00  0.00    +0.057 C 
ATOM      7  C   UNL     1       0.750  -0.532  -1.252  0.00  0.00    +0.110 C 
ATOM      8  C   UNL     1       1.181  -1.955  -1.059  0.00  0.00    +0.218 C 
ATOM      9  O   UNL     1       0.433  -2.853  -1.383  0.00  0.00    -0.275 OA
ATOM     10  N   UNL     1       2.377  -2.254  -0.535  0.00  0.00    -0.284 N 
ATOM     11  C   UNL     1       3.164  -1.250   0.049  0.00  0.00    +0.049 A 
ATOM     12  C   UNL     1       4.492  -1.093  -0.313  0.00  0.00    +0.051 A 
ATOM     13  C   UNL     1       5.250  -0.095   0.273  0.00  0.00    +0.090 A 
ATOM     14  C   UNL     1       4.688   0.745   1.218  0.00  0.00    +0.028 A 
ATOM     15  C   UNL     1       3.363   0.594   1.585  0.00  0.00    +0.018 A 
ATOM     16  C   UNL     1       2.600  -0.405   1.002  0.00  0.00    +0.029 A 
ATOM     17  S   UNL     1       0.908  -0.626   1.457  0.00  0.00    -0.120 S 
ATOM     18  H   UNL     1       2.700  -3.168  -0.560  0.00  0.00    +0.155 HD
ENDBRANCH   2  13
ENDBRANCH   1   2
BRANCH   1  19
ATOM     19  C   UNL     1       8.339   1.520  -2.062  0.00  0.00    +0.119 C 
BRANCH  19  20
ATOM     20  C   UNL     1       8.314   2.485  -3.219  0.00  0.00    +0.219 C 
ATOM     21  O   UNL     1       7.257   2.929  -3.616  0.00  0.00    -0.275 OA
ATOM     22  N   UNL     1       9.466   2.856  -3.812  0.00  0.00    -0.285 N 
ATOM     23  H   UNL     1      10.315   2.555  -3.453  0.00  0.00    +0.155 HD
BRANCH  22  24
ATOM     24  C   UNL     1       9.437   3.676  -4.946  0.00  0.00    +0.033 A 
ATOM     25  C   UNL     1      10.374   3.500  -5.956  0.00  0.00    +0.025 A 
ATOM     26  C   UNL     1      10.343   4.310  -7.074  0.00  0.00    +0.030 A 
ATOM     27  C   UNL     1       9.380   5.296  -7.188  0.00  0.00    +0.105 A 
ATOM     28  C   UNL     1       8.446   5.474  -6.184  0.00  0.00    +0.030 A 
ATOM     29  C   UNL     1       8.468   4.663  -5.066  0.00  0.00    +0.025 A 
BRANCH  27  30
ATOM     30  S   UNL     1       9.343   6.328  -8.616  0.00  0.00    +0.056 S 
ATOM     31  O   UNL     1       8.685   7.528  -8.233  0.00  0.00    -0.153 OA
ATOM     32  O   UNL     1      10.657   6.318  -9.157  0.00  0.00    -0.153 OA
BRANCH  30  33
ATOM     33  N   UNL     1       8.367   5.587  -9.730  0.00  0.00    -0.204 NA
ATOM     34  H   UNL     1       7.946   4.739  -9.519  0.00  0.00    +0.144 HD
ATOM     35  H   UNL     1       8.216   6.002 -10.594  0.00  0.00    +0.144 HD
ENDBRANCH  30  33
ENDBRANCH  27  30
ENDBRANCH  22  24
ENDBRANCH  19  20
ENDBRANCH   1  19
TORSDOF 7
