REMARK  Name = ZINC20677259
REMARK  4 active torsions:
REMARK  status: ('A' for Active; 'I' for Inactive)
REMARK    1  A    between atoms: C_1  and  N_2
REMARK    2  A    between atoms: C_4  and  C_7
REMARK    3  A    between atoms: C_8  and  C_9
REMARK    4  A    between atoms: N_11  and  C_12
REMARK                            x       y       z     vdW  Elec       q    Type
REMARK                         _______ _______ _______ _____ _____    ______ ____
ROOT
ATOM      1  C   UNL     1      -1.833   3.413   6.749  0.00  0.00    +0.241 C 
ATOM      2  O   UNL     1      -0.726   3.385   7.257  0.00  0.00    -0.270 OA
ATOM      3  N   UNL     1      -2.899   3.796   7.479  0.00  0.00    -0.281 N 
ATOM      4  H   UNL     1      -3.885   3.893   7.002  0.00  0.00    +0.155 HD
ENDROOT
BRANCH   3   5
ATOM      5  C   UNL     1      -2.751   4.072   8.843  0.00  0.00    +0.052 A 
ATOM      6  C   UNL     1      -1.579   4.651   9.312  0.00  0.00    +0.026 A 
ATOM      7  C   UNL     1      -1.436   4.923  10.659  0.00  0.00    +0.017 A 
ATOM      8  C   UNL     1      -2.459   4.618  11.540  0.00  0.00    +0.019 A 
ATOM      9  C   UNL     1      -3.627   4.041  11.076  0.00  0.00    +0.037 A 
ATOM     10  C   UNL     1      -3.778   3.772   9.729  0.00  0.00    +0.063 A 
ATOM     11 CL   UNL     1      -5.248   3.054   9.146  0.00  0.00    -0.082 Cl
ATOM     12 BR   UNL     1      -2.258   4.992  13.383  0.00  0.00    -0.050 Br
ENDBRANCH   3   5
BRANCH   1  14
ATOM     13  C   UNL     1      -0.930   2.657   4.660  0.00  0.00    +0.016 C 
ATOM     14  C   UNL     1      -1.999   3.042   5.391  0.00  0.00    +0.068 C 
BRANCH  13  18
ATOM     15  C   UNL     1      -0.001   1.143  -0.008  0.00  0.00    +0.172 C 
ATOM     16  N   UNL     1      -0.688   1.606   1.200  0.00  0.00    -0.274 N 
ATOM     17  C   UNL     1      -0.108   1.860   2.385  0.00  0.00    +0.116 A 
ATOM     18  C   UNL     1      -1.103   2.273   3.252  0.00  0.00    +0.013 A 
ATOM     19  C   UNL     1      -2.319   2.255   2.529  0.00  0.00    +0.142 A 
ATOM     20  N   UNL     1      -2.059   1.864   1.312  0.00  0.00    -0.179 NA
ENDBRANCH  13  18
ENDBRANCH   1  14
TORSDOF 3
