REMARK  Name = ZINC09463476
REMARK  17 active torsions:
REMARK  status: ('A' for Active; 'I' for Inactive)
REMARK    1  A    between atoms: C_1  and  C_2
REMARK    2  A    between atoms: C_2  and  C_3
REMARK    3  A    between atoms: C_3  and  O_4
REMARK    4  A    between atoms: O_4  and  C_5
REMARK    5  A    between atoms: C_8  and  C_14
REMARK    6  A    between atoms: C_10  and  O_11
REMARK    7  A    between atoms: O_11  and  C_12
REMARK    8  A    between atoms: C_12  and  C_13
REMARK    9  A    between atoms: C_16  and  C_27
REMARK   10  A    between atoms: C_17  and  O_26
REMARK   11  A    between atoms: N_20  and  C_21
REMARK   12  A    between atoms: C_21  and  C_22
REMARK   13  A    between atoms: C_22  and  C_23
REMARK   14  A    between atoms: C_23  and  N_74
REMARK   15  A    between atoms: C_24  and  N_74
REMARK   16  A    between atoms: C_25  and  N_74
REMARK   17  A    between atoms: C_27  and  C_29
REMARK                            x       y       z     vdW  Elec       q    Type
REMARK                         _______ _______ _______ _____ _____    ______ ____
ROOT
ATOM      1  C   UNL     1      -4.705   0.936  -2.905  0.00  0.00    +0.145 C 
ATOM      2  C   UNL     1      -4.939   0.677  -4.375  0.00  0.00    +0.071 C 
ATOM      3  C   UNL     1      -4.216  -0.421  -4.697  0.00  0.00    +0.188 C 
ATOM      4  C   UNL     1      -3.502  -0.902  -3.497  0.00  0.00    +0.282 C 
ATOM      5  O   UNL     1      -2.770  -1.871  -3.463  0.00  0.00    -0.267 OA
ATOM      6  N   UNL     1      -3.782  -0.110  -2.447  0.00  0.00    -0.284 N 
ENDROOT
BRANCH   1  10
ATOM      7  C   UNL     1      -2.935   4.792  -2.365  0.00  0.00    +0.162 A 
ATOM      8  C   UNL     1      -2.220   3.778  -2.982  0.00  0.00    +0.050 A 
ATOM      9  C   UNL     1      -2.792   2.531  -3.150  0.00  0.00    +0.009 A 
ATOM     10  C   UNL     1      -4.083   2.296  -2.714  0.00  0.00    -0.019 A 
ATOM     11  C   UNL     1      -4.802   3.303  -2.097  0.00  0.00    +0.055 A 
ATOM     12  C   UNL     1      -4.232   4.553  -1.921  0.00  0.00    +0.162 A 
BRANCH   7  13
ATOM     13  O   UNL     1      -2.371   6.017  -2.194  0.00  0.00    -0.488 OA
BRANCH  13  14
ATOM     14  C   UNL     1      -1.036   6.190  -2.675  0.00  0.00    +0.229 C 
BRANCH  14  16
ATOM     15  C   UNL     1       0.854   7.807  -2.911  0.00  0.00    +0.007 C 
ATOM     16  C   UNL     1      -0.575   7.622  -2.396  0.00  0.00    +0.038 C 
ENDBRANCH  14  16
ENDBRANCH  13  14
ENDBRANCH   7  13
BRANCH  12  17
ATOM     17  O   UNL     1      -4.938   5.545  -1.315  0.00  0.00    -0.489 OA
BRANCH  17  18
ATOM     18  C   UNL     1      -6.300   5.264  -0.987  0.00  0.00    +0.226 C 
ATOM     19  C   UNL     1      -6.960   6.526  -0.427  0.00  0.00    +0.048 C 
ENDBRANCH  17  18
ENDBRANCH  12  17
ENDBRANCH   1  10
BRANCH   3  20
ATOM     20  O   UNL     1      -4.158  -0.988  -5.925  0.00  0.00    -0.502 OA
ATOM     21  H   UNL     1      -3.554  -1.785  -5.895  0.00  0.00    +0.292 HD
ENDBRANCH   3  20
BRANCH   2  22
ATOM     22  C   UNL     1      -5.789   1.460  -5.276  0.00  0.00    +0.195 C 
ATOM     23  O   UNL     1      -5.291   2.080  -6.197  0.00  0.00    -0.287 OA
BRANCH  22  24
ATOM     24  C   UNL     1      -7.250   1.497  -5.067  0.00  0.00    +0.026 A 
ATOM     25  C   UNL     1      -7.820   0.823  -3.982  0.00  0.00    +0.015 A 
ATOM     26  C   UNL     1      -9.182   0.863  -3.787  0.00  0.00    +0.050 A 
ATOM     27  C   UNL     1      -9.997   1.561  -4.672  0.00  0.00    +0.162 A 
ATOM     28  C   UNL     1      -9.436   2.232  -5.756  0.00  0.00    +0.163 A 
ATOM     29  C   UNL     1      -8.068   2.200  -5.955  0.00  0.00    +0.061 A 
ATOM     30  O   UNL     1     -10.219   2.927  -6.626  0.00  0.00    -0.485 OA
ATOM     31  C   UNL     1     -11.620   2.632  -6.607  0.00  0.00    +0.270 C 
ATOM     32  C   UNL     1     -12.084   2.595  -5.145  0.00  0.00    +0.270 C 
ATOM     33  O   UNL     1     -11.341   1.579  -4.464  0.00  0.00    -0.485 OA
ENDBRANCH  22  24
ENDBRANCH   2  22
BRANCH   6  34
ATOM     34  C   UNL     1      -3.264  -0.266  -1.085  0.00  0.00    +0.107 C 
BRANCH  34  35
ATOM     35  C   UNL     1      -1.958   0.519  -0.944  0.00  0.00    +0.000 C 
BRANCH  35  36
ATOM     36  C   UNL     1      -1.416   0.355   0.478  0.00  0.00    -0.078 C 
BRANCH  36  39
ATOM     37  C   UNL     1      -0.400   2.553   0.494  0.00  0.00    -0.097 C 
ATOM     38  C   UNL     1       0.509   0.789   1.880  0.00  0.00    -0.097 C 
ATOM     39  N   UNL     1      -0.145   1.101   0.592  0.00  0.00    +0.376 N 
ATOM     40  H   UNL     1       0.477   0.819  -0.175  0.00  0.00    -0.083 HD
ENDBRANCH  36  39
ENDBRANCH  35  36
ENDBRANCH  34  35
ENDBRANCH   6  34
TORSDOF 13
