REMARK  Name = ZINC65963735
REMARK  5 active torsions:
REMARK  status: ('A' for Active; 'I' for Inactive)
REMARK    1  A    between atoms: C_5  and  N_9
REMARK    2  A    between atoms: C_10  and  C_12
REMARK    3  A    between atoms: C_12  and  N_13
REMARK    4  A    between atoms: C_16  and  N_19
REMARK    5  A    between atoms: C_20  and  C_22
REMARK                            x       y       z     vdW  Elec       q    Type
REMARK                         _______ _______ _______ _____ _____    ______ ____
ROOT
ATOM      1  N   UNL     1       7.590  -1.451   0.793  0.00  0.00    +0.385 N 
ATOM      2  C   UNL     1       7.057  -2.318   1.851  0.00  0.00    -0.076 C 
ATOM      3  C   UNL     1       7.974  -2.259   3.074  0.00  0.00    +0.003 C 
ATOM      4  C   UNL     1       9.375  -2.735   2.679  0.00  0.00    +0.069 C 
ATOM      5  C   UNL     1       9.890  -1.870   1.525  0.00  0.00    +0.003 C 
ATOM      6  C   UNL     1       8.902  -1.944   0.359  0.00  0.00    -0.076 C 
ATOM      7  H   UNL     1       7.685  -0.511   1.147  0.00  0.00    -0.081 HD
ENDROOT
BRANCH   4   8
ATOM      8  N   UNL     1      10.277  -2.608   3.826  0.00  0.00    -0.312 N 
ATOM      9  C   UNL     1      11.372  -3.390   3.912  0.00  0.00    +0.216 C 
ATOM     10  O   UNL     1      11.610  -4.197   3.039  0.00  0.00    -0.276 OA
ATOM     11  H   UNL     1      10.086  -1.962   4.524  0.00  0.00    +0.149 HD
BRANCH   9  12
ATOM     12  C   UNL     1      12.300  -3.260   5.092  0.00  0.00    +0.075 C 
ATOM     13  C   UNL     1      11.531  -3.558   6.381  0.00  0.00    +0.013 C 
ATOM     14  C   UNL     1      12.473  -3.426   7.579  0.00  0.00    +0.001 C 
ATOM     15  C   UNL     1      13.627  -4.420   7.432  0.00  0.00    +0.000 C 
ATOM     16  C   UNL     1      14.396  -4.121   6.144  0.00  0.00    +0.001 C 
ATOM     17  C   UNL     1      13.454  -4.253   4.945  0.00  0.00    +0.013 C 
ENDBRANCH   9  12
ENDBRANCH   4   8
BRANCH   1  18
ATOM     18  C   UNL     1       6.666  -1.451  -0.349  0.00  0.00    +0.019 C 
BRANCH  18  20
ATOM     19  N   UNL     1       4.350  -0.724  -0.827  0.00  0.00    -0.314 N 
ATOM     20  C   UNL     1       5.356  -0.832   0.064  0.00  0.00    +0.197 C 
ATOM     21  O   UNL     1       5.206  -0.430   1.198  0.00  0.00    -0.278 OA
ATOM     22  H   UNL     1       4.470  -1.046  -1.734  0.00  0.00    +0.149 HD
BRANCH  19  27
ATOM     23  C   UNL     1      -0.019   1.526   0.010  0.00  0.00    +0.000 C 
ATOM     24  C   UNL     1       1.417   2.055  -0.000  0.00  0.00    +0.000 C 
ATOM     25  C   UNL     1       2.003   1.911  -1.406  0.00  0.00    +0.002 C 
ATOM     26  C   UNL     1       2.370   0.447  -1.657  0.00  0.00    +0.022 C 
ATOM     27  C   UNL     1       3.077  -0.122  -0.425  0.00  0.00    +0.073 C 
ATOM     28  C   UNL     1       2.191  -1.187   0.225  0.00  0.00    +0.022 C 
ATOM     29  C   UNL     1       1.056  -0.506   0.991  0.00  0.00    +0.002 C 
ATOM     30  C   UNL     1       0.002  -0.004   0.002  0.00  0.00    +0.000 C 
ENDBRANCH  19  27
ENDBRANCH  18  20
ENDBRANCH   1  18
TORSDOF 5
