REMARK  Name = ZINC52595429
REMARK  8 active torsions:
REMARK  status: ('A' for Active; 'I' for Inactive)
REMARK    1  A    between atoms: C_3  and  S_30
REMARK    2  A    between atoms: C_6  and  N_7
REMARK    3  A    between atoms: N_8  and  C_9
REMARK    4  A    between atoms: C_12  and  C_20
REMARK    5  A    between atoms: C_17  and  O_19
REMARK    6  A    between atoms: N_22  and  C_23
REMARK    7  A    between atoms: C_23  and  C_24
REMARK    8  A    between atoms: S_30  and  N_33
REMARK                            x       y       z     vdW  Elec       q    Type
REMARK                         _______ _______ _______ _____ _____    ______ ____
ROOT
ATOM      1  C   UNL     1      -2.288  -2.682   0.010  0.00  0.00    +0.121 C 
ATOM      2  C   UNL     1      -3.579  -2.166   0.020  0.00  0.00    +0.026 A 
ATOM      3  C   UNL     1      -4.079  -0.848   0.025  0.00  0.00    +0.025 A 
ATOM      4  C   UNL     1      -5.440  -0.625   0.036  0.00  0.00    +0.037 A 
ATOM      5  C   UNL     1      -6.368  -1.689   0.042  0.00  0.00    +0.015 A 
ATOM      6  C   UNL     1      -5.970  -2.979   0.038  0.00  0.00    +0.027 A 
ATOM      7  C   UNL     1      -4.536  -3.292   0.026  0.00  0.00    +0.047 A 
ATOM      8  N   UNL     1      -3.897  -4.436   0.020  0.00  0.00    -0.354 N 
ATOM      9  C   UNL     1      -2.452  -4.186   0.003  0.00  0.00    +0.262 C 
ATOM     10  H   UNL     1      -4.314  -5.312   0.023  0.00  0.00    +0.162 HD
ENDROOT
BRANCH   4  11
ATOM     11  C   UNL     1      -5.939   0.763   0.041  0.00  0.00    +0.244 C 
ATOM     12  O   UNL     1      -5.155   1.691   0.036  0.00  0.00    -0.270 OA
ATOM     13  N   UNL     1      -7.266   1.001   0.051  0.00  0.00    -0.307 N 
ATOM     14  H   UNL     1      -7.892   0.260   0.054  0.00  0.00    +0.149 HD
BRANCH  13  15
ATOM     15  C   UNL     1      -7.762   2.380   0.056  0.00  0.00    +0.140 C 
BRANCH  15  16
ATOM     16  C   UNL     1      -9.269   2.371   0.067  0.00  0.00    -0.027 A 
ATOM     17  C   UNL     1      -9.988   2.362  -1.119  0.00  0.00    +0.025 A 
ATOM     18  C   UNL     1     -11.369   2.354  -1.070  0.00  0.00    +0.111 A 
ATOM     19  N   UNL     1     -12.002   2.356   0.087  0.00  0.00    -0.263 NA
ATOM     20  C   UNL     1     -11.352   2.364   1.234  0.00  0.00    +0.111 A 
ATOM     21  C   UNL     1      -9.970   2.366   1.263  0.00  0.00    +0.025 A 
ENDBRANCH  15  16
ENDBRANCH  13  15
ENDBRANCH   4  11
BRANCH   1  23
ATOM     22  N   UNL     1      -1.162  -0.703   0.010  0.00  0.00    -0.149 NA
ATOM     23  N   UNL     1      -1.140  -1.993   0.003  0.00  0.00    -0.148 NA
BRANCH  22  29
ATOM     24  C   UNL     1      -0.017   1.398   0.010  0.00  0.00    +0.031 A 
ATOM     25  C   UNL     1       1.169   2.099   0.002  0.00  0.00    +0.030 A 
ATOM     26  C   UNL     1       2.378   1.423  -0.013  0.00  0.00    +0.105 A 
ATOM     27  C   UNL     1       2.407   0.038  -0.021  0.00  0.00    +0.030 A 
ATOM     28  C   UNL     1       1.231  -0.680  -0.013  0.00  0.00    +0.031 A 
ATOM     29  C   UNL     1       0.002  -0.004   0.002  0.00  0.00    +0.086 A 
BRANCH  26  30
ATOM     30  S   UNL     1       3.889   2.330  -0.024  0.00  0.00    +0.056 S 
ATOM     31  O   UNL     1       4.872   1.474  -0.589  0.00  0.00    -0.153 OA
ATOM     32  O   UNL     1       3.590   3.609  -0.566  0.00  0.00    -0.153 OA
BRANCH  30  33
ATOM     33  N   UNL     1       4.324   2.574   1.555  0.00  0.00    -0.204 NA
ATOM     34  H   UNL     1       3.766   2.231   2.270  0.00  0.00    +0.144 HD
ATOM     35  H   UNL     1       5.137   3.060   1.764  0.00  0.00    +0.144 HD
ENDBRANCH  30  33
ENDBRANCH  26  30
ENDBRANCH  22  29
ENDBRANCH   1  23
BRANCH   9  36
ATOM     36  O   UNL     1      -1.844  -4.753   1.166  0.00  0.00    -0.367 OA
ATOM     37  H   UNL     1      -1.917  -5.716   1.218  0.00  0.00    +0.212 HD
ENDBRANCH   9  36
TORSDOF 8
