REMARK  Name = ZINC29156056
REMARK  10 active torsions:
REMARK  status: ('A' for Active; 'I' for Inactive)
REMARK    1  A    between atoms: C_1  and  C_2
REMARK    2  A    between atoms: C_2  and  O_3
REMARK    3  A    between atoms: O_3  and  C_4
REMARK    4  A    between atoms: C_4  and  C_6
REMARK    5  A    between atoms: C_7  and  C_19
REMARK    6  A    between atoms: C_12  and  C_14
REMARK    7  A    between atoms: C_19  and  N_20
REMARK    8  A    between atoms: C_26  and  C_28
REMARK    9  A    between atoms: C_31  and  O_34
REMARK   10  A    between atoms: O_34  and  C_35
REMARK                            x       y       z     vdW  Elec       q    Type
REMARK                         _______ _______ _______ _____ _____    ______ ____
ROOT
ATOM      1  C   UNL     1       1.633   2.585  -2.243  0.00  0.00    +0.079 C 
ATOM      2  C   UNL     1       1.765   2.889  -0.934  0.00  0.00    +0.008 C 
ATOM      3  N   UNL     1       0.789   2.568  -0.034  0.00  0.00    -0.274 N 
ATOM      4  C   UNL     1      -0.348   1.943  -0.364  0.00  0.00    +0.304 C 
ATOM      5  O   UNL     1      -1.159   1.698   0.508  0.00  0.00    -0.252 OA
ATOM      6  N   UNL     1      -0.621   1.571  -1.630  0.00  0.00    -0.285 N 
ATOM      7  C   UNL     1       0.367   1.876  -2.679  0.00  0.00    +0.179 C 
ATOM      8  H   UNL     1       0.915   2.823   1.028  0.00  0.00    +0.156 HD
ATOM      9  H   UNL     1      -1.555   1.051  -1.889  0.00  0.00    +0.151 HD
ENDROOT
BRANCH   7  10
ATOM     10  C   UNL     1       0.763   0.577  -3.332  0.00  0.00    +0.130 A 
ATOM     11  C   UNL     1       0.833   0.351  -4.656  0.00  0.00    +0.047 A 
ATOM     12  C   UNL     1       1.244  -0.991  -4.821  0.00  0.00    +0.041 A 
ATOM     13  C   UNL     1       1.393  -1.508  -3.588  0.00  0.00    +0.195 A 
ATOM     14  O   UNL     1       1.100  -0.553  -2.690  0.00  0.00    -0.466 OA
ENDBRANCH   7  10
BRANCH   1  15
ATOM     15  C   UNL     1       2.643   2.917  -3.176  0.00  0.00    +0.339 C 
ATOM     16  O   UNL     1       3.678   3.433  -2.796  0.00  0.00    -0.245 OA
BRANCH  15  17
ATOM     17  O   UNL     1       2.460   2.662  -4.489  0.00  0.00    -0.462 OA
BRANCH  17  19
ATOM     18  C   UNL     1       3.134   2.660  -6.810  0.00  0.00    +0.048 C 
ATOM     19  C   UNL     1       3.521   3.023  -5.375  0.00  0.00    +0.229 C 
ENDBRANCH  17  19
ENDBRANCH  15  17
ENDBRANCH   1  15
BRANCH   2  20
ATOM     20  C   UNL     1       3.009   3.595  -0.459  0.00  0.00    -0.026 C 
BRANCH  20  21
ATOM     21  N   UNL     1       3.208   3.326   0.972  0.00  0.00    +0.388 N 
ATOM     22  C   UNL     1       3.648   2.015   1.179  0.00  0.00    -0.077 C 
ATOM     23  C   UNL     1       3.646   1.640   2.677  0.00  0.00    -0.019 C 
ATOM     24  C   UNL     1       4.849   2.262   3.340  0.00  0.00    -0.002 C 
ATOM     25  C   UNL     1       4.539   3.640   3.957  0.00  0.00    -0.001 C 
ATOM     26  C   UNL     1       3.645   4.493   3.041  0.00  0.00    -0.011 C 
ATOM     27  C   UNL     1       4.051   4.366   1.594  0.00  0.00    -0.037 C 
ATOM     28  H   UNL     1       2.246   3.326   1.506  0.00  0.00    -0.080 HD
BRANCH  27  29
ATOM     29  C   UNL     1       3.840   5.681   0.888  0.00  0.00    -0.061 A 
ATOM     30  C   UNL     1       2.560   6.180   0.728  0.00  0.00    +0.005 A 
ATOM     31  C   UNL     1       2.365   7.388   0.086  0.00  0.00    +0.046 A 
ATOM     32  C   UNL     1       3.452   8.095  -0.406  0.00  0.00    +0.120 A 
ATOM     33  C   UNL     1       4.734   7.589  -0.248  0.00  0.00    +0.046 A 
ATOM     34  C   UNL     1       4.925   6.383   0.398  0.00  0.00    +0.005 A 
BRANCH  32  35
ATOM     35  O   UNL     1       3.262   9.281  -1.042  0.00  0.00    -0.495 OA
ATOM     36  C   UNL     1       1.915   9.741  -1.168  0.00  0.00    +0.277 C 
ENDBRANCH  32  35
ENDBRANCH  27  29
ENDBRANCH  20  21
ENDBRANCH   2  20
TORSDOF 8
