REMARK  Name = ZINC09100182
REMARK  10 active torsions:
REMARK  status: ('A' for Active; 'I' for Inactive)
REMARK    1  A    between atoms: C_1  and  C_2
REMARK    2  A    between atoms: C_2  and  C_4
REMARK    3  A    between atoms: C_2  and  N_62
REMARK    4  A    between atoms: C_7  and  S_16
REMARK    5  A    between atoms: N_8  and  C_9
REMARK    6  A    between atoms: S_16  and  C_17
REMARK    7  A    between atoms: C_17  and  C_18
REMARK    8  A    between atoms: N_20  and  C_21
REMARK    9  A    between atoms: C_26  and  C_27
REMARK   10  A    between atoms: C_27  and  C_29
REMARK                            x       y       z     vdW  Elec       q    Type
REMARK                         _______ _______ _______ _____ _____    ______ ____
ROOT
ATOM      1  C   UNL     1      -0.705   1.922   1.272  0.00  0.00    +0.125 A 
ATOM      2  N   UNL     1      -1.820   1.457   1.759  0.00  0.00    -0.135 NA
ATOM      3  N   UNL     1      -2.144   2.104   2.821  0.00  0.00    -0.122 NA
ATOM      4  C   UNL     1      -1.245   3.027   3.073  0.00  0.00    +0.197 A 
ATOM      5  N   UNL     1      -0.293   2.937   2.095  0.00  0.00    -0.275 N 
ENDROOT
BRANCH   5   6
ATOM      6  C   UNL     1       0.862   3.722   1.961  0.00  0.00    +0.050 A 
ATOM      7  C   UNL     1       2.116   3.140   2.084  0.00  0.00    +0.028 A 
ATOM      8  C   UNL     1       3.252   3.914   1.947  0.00  0.00    +0.022 A 
ATOM      9  C   UNL     1       3.140   5.270   1.697  0.00  0.00    +0.041 A 
ATOM     10  C   UNL     1       1.891   5.854   1.579  0.00  0.00    +0.022 A 
ATOM     11  C   UNL     1       0.752   5.083   1.710  0.00  0.00    +0.028 A 
ATOM     12 CL   UNL     1       4.569   6.242   1.532  0.00  0.00    -0.084 Cl
ENDBRANCH   5   6
BRANCH   1  14
ATOM     13  C   UNL     1      -0.740   1.920  -1.207  0.00  0.00    -0.005 C 
ATOM     14  C   UNL     1       0.004   1.431   0.036  0.00  0.00    -0.002 C 
BRANCH  14  20
ATOM     15  C   UNL     1       0.656  -0.546   1.272  0.00  0.00    -0.078 C 
ATOM     16  C   UNL     1       0.542  -2.072   1.310  0.00  0.00    -0.019 C 
ATOM     17  C   UNL     1       1.242  -2.662   0.082  0.00  0.00    -0.004 C 
ATOM     18  C   UNL     1       0.609  -2.079  -1.185  0.00  0.00    -0.019 C 
ATOM     19  C   UNL     1       0.722  -0.553  -1.150  0.00  0.00    -0.078 C 
ATOM     20  N   UNL     1       0.008  -0.046   0.041  0.00  0.00    +0.386 N 
ATOM     21  H   UNL     1      -0.962  -0.382   0.016  0.00  0.00    -0.081 HD
ENDBRANCH  14  20
ENDBRANCH   1  14
BRANCH   4  22
ATOM     22  S   UNL     1      -1.258   4.163   4.421  0.00  0.00    -0.076 S 
BRANCH  22  23
ATOM     23  C   UNL     1      -2.789   3.656   5.244  0.00  0.00    +0.173 C 
BRANCH  23  24
ATOM     24  C   UNL     1      -3.013   4.515   6.462  0.00  0.00    +0.228 C 
ATOM     25  O   UNL     1      -2.216   5.384   6.745  0.00  0.00    -0.275 OA
ATOM     26  N   UNL     1      -4.098   4.317   7.236  0.00  0.00    -0.284 N 
ATOM     27  H   UNL     1      -4.776   3.678   6.966  0.00  0.00    +0.155 HD
BRANCH  26  28
ATOM     28  C   UNL     1      -4.246   5.030   8.421  0.00  0.00    +0.044 A 
ATOM     29  C   UNL     1      -3.130   5.524   9.083  0.00  0.00    +0.024 A 
ATOM     30  C   UNL     1      -3.280   6.235  10.256  0.00  0.00    +0.002 A 
ATOM     31  C   UNL     1      -4.541   6.455  10.790  0.00  0.00    +0.001 A 
ATOM     32  C   UNL     1      -5.660   5.969  10.152  0.00  0.00    +0.013 A 
ATOM     33  C   UNL     1      -5.527   5.250   8.958  0.00  0.00    +0.038 A 
BRANCH  33  34
ATOM     34  C   UNL     1      -6.715   4.728   8.273  0.00  0.00    +0.162 C 
ATOM     35  O   UNL     1      -6.590   4.030   7.289  0.00  0.00    -0.292 OA
ATOM     36  C   UNL     1      -8.091   5.060   8.791  0.00  0.00    +0.091 C 
ENDBRANCH  33  34
ENDBRANCH  26  28
ENDBRANCH  23  24
ENDBRANCH  22  23
ENDBRANCH   4  22
TORSDOF 8
