REMARK  Name = ZINC38686961
REMARK  7 active torsions:
REMARK  status: ('A' for Active; 'I' for Inactive)
REMARK    1  A    between atoms: C_1  and  C_2
REMARK    2  A    between atoms: C_5  and  C_8
REMARK    3  A    between atoms: C_13  and  O_22
REMARK    4  A    between atoms: C_17  and  N_21
REMARK    5  A    between atoms: C_18  and  C_19
REMARK    6  A    between atoms: O_22  and  C_23
REMARK    7  A    between atoms: C_23  and  C_25
REMARK                            x       y       z     vdW  Elec       q    Type
REMARK                         _______ _______ _______ _____ _____    ______ ____
ROOT
ATOM      1  C   UNL     1       0.032  -4.266   0.036  0.00  0.00    +0.098 C 
ATOM      2  C   UNL     1       1.284  -4.754   0.716  0.00  0.00    +0.008 A 
ATOM      3  C   UNL     1       2.474  -4.781   0.011  0.00  0.00    +0.012 A 
ATOM      4  C   UNL     1       3.633  -5.225   0.617  0.00  0.00    +0.047 A 
ATOM      5  C   UNL     1       3.605  -5.647   1.939  0.00  0.00    +0.135 A 
ATOM      6  C   UNL     1       2.415  -5.622   2.647  0.00  0.00    +0.093 A 
ATOM      7  C   UNL     1       1.251  -5.174   2.036  0.00  0.00    +0.138 A 
ATOM      8  O   UNL     1       0.094  -5.155   2.743  0.00  0.00    -0.441 OA
ATOM      9  C   UNL     1      -1.084  -5.106   2.099  0.00  0.00    +0.199 C 
ATOM     10  C   UNL     1      -1.179  -4.693   0.817  0.00  0.00    +0.098 C 
ENDROOT
BRANCH   1  15
ATOM     11  C   UNL     1       0.156   1.502  -0.295  0.00  0.00    +0.044 C 
ATOM     12  C   UNL     1       0.124  -0.002  -0.208  0.00  0.00    -0.050 A 
ATOM     13  C   UNL     1       0.058  -0.759  -1.363  0.00  0.00    +0.003 A 
ATOM     14  C   UNL     1       0.029  -2.139  -1.284  0.00  0.00    +0.005 A 
ATOM     15  C   UNL     1       0.065  -2.761  -0.050  0.00  0.00    -0.035 A 
ATOM     16  C   UNL     1       0.131  -2.004   1.105  0.00  0.00    +0.005 A 
ATOM     17  C   UNL     1       0.165  -0.624   1.025  0.00  0.00    +0.003 A 
ENDBRANCH   1  15
BRANCH   9  18
ATOM     18  N   UNL     1      -2.223  -5.487   2.764  0.00  0.00    -0.328 N 
ATOM     19  H   UNL     1      -2.169  -5.786   3.686  0.00  0.00    +0.145 HD
ATOM     20  H   UNL     1      -3.081  -5.457   2.313  0.00  0.00    +0.145 HD
ENDBRANCH   9  18
BRANCH  10  21
ATOM     21  C   UNL     1      -2.465  -4.662   0.188  0.00  0.00    +0.101 C 
ATOM     22  N   UNL     1      -3.486  -4.638  -0.310  0.00  0.00    -0.191 NA
ENDBRANCH  10  21
BRANCH   5  23
ATOM     23  O   UNL     1       4.744  -6.086   2.537  0.00  0.00    -0.423 OA
BRANCH  23  24
ATOM     24  C   UNL     1       4.837  -7.392   2.835  0.00  0.00    +0.357 C 
ATOM     25  O   UNL     1       3.972  -8.156   2.479  0.00  0.00    -0.246 OA
BRANCH  24  26
ATOM     26  C   UNL     1       6.021  -7.904   3.614  0.00  0.00    +0.319 C 
ATOM     27  C   UNL     1       7.300  -7.737   2.782  0.00  0.00    +0.285 C 
ATOM     28  O   UNL     1       8.400  -8.246   3.544  0.00  0.00    -0.484 OA
ATOM     29  C   UNL     1       8.221  -9.453   4.146  0.00  0.00    +0.162 A 
ATOM     30  C   UNL     1       9.327 -10.167   4.583  0.00  0.00    +0.049 A 
ATOM     31  C   UNL     1       9.161 -11.393   5.199  0.00  0.00    +0.004 A 
ATOM     32  C   UNL     1       7.893 -11.911   5.381  0.00  0.00    +0.004 A 
ATOM     33  C   UNL     1       6.786 -11.207   4.946  0.00  0.00    +0.049 A 
ATOM     34  C   UNL     1       6.946  -9.976   4.326  0.00  0.00    +0.163 A 
ATOM     35  O   UNL     1       5.847  -9.297   3.896  0.00  0.00    -0.470 OA
ENDBRANCH  24  26
ENDBRANCH  23  24
ENDBRANCH   5  23
TORSDOF 6
