REMARK  Name = ZINC09325458
REMARK  7 active torsions:
REMARK  status: ('A' for Active; 'I' for Inactive)
REMARK    1  A    between atoms: C_1  and  O_2
REMARK    2  A    between atoms: O_2  and  C_3
REMARK    3  A    between atoms: C_6  and  C_8
REMARK    4  A    between atoms: C_12  and  N_13
REMARK    5  A    between atoms: C_14  and  C_16
REMARK    6  A    between atoms: C_25  and  O_27
REMARK    7  A    between atoms: O_27  and  C_28
REMARK                            x       y       z     vdW  Elec       q    Type
REMARK                         _______ _______ _______ _____ _____    ______ ____
ROOT
ATOM      1  C   UNL     1       3.636   1.755  -0.023  0.00  0.00    +0.069 A 
ATOM      2  C   UNL     1       4.749   0.818  -0.041  0.00  0.00    -0.020 A 
ATOM      3  C   UNL     1       4.398  -0.486  -0.041  0.00  0.00    +0.013 A 
ATOM      4  S   UNL     1       2.629  -0.484  -0.018  0.00  0.00    -0.076 S 
ATOM      5  C   UNL     1       2.352   1.227  -0.014  0.00  0.00    +0.085 A 
ATOM      6  C   UNL     1       5.324  -1.665  -0.052  0.00  0.00    +0.153 C 
ATOM      7  N   UNL     1       6.685  -1.148  -0.300  0.00  0.00    -0.262 N 
ATOM      8  C   UNL     1       7.083   0.080   0.406  0.00  0.00    +0.116 C 
ATOM      9  C   UNL     1       6.211   1.246  -0.063  0.00  0.00    +0.056 C 
ATOM     10  C   UNL     1       7.529  -1.777  -1.141  0.00  0.00    +0.403 C 
ATOM     11  O   UNL     1       8.644  -1.332  -1.328  0.00  0.00    -0.226 OA
ENDROOT
BRANCH   1  15
ATOM     12  C   UNL     1       4.163   5.207  -1.172  0.00  0.00    +0.407 C 
ATOM     13  O   UNL     1       4.267   5.800  -0.117  0.00  0.00    -0.226 OA
ATOM     14  N   UNL     1       3.955   3.876  -1.179  0.00  0.00    -0.217 N 
ATOM     15  C   UNL     1       3.862   3.202  -0.016  0.00  0.00    +0.255 C 
ATOM     16  O   UNL     1       3.966   3.796   1.041  0.00  0.00    -0.270 OA
ATOM     17  H   UNL     1       3.872   3.402  -2.022  0.00  0.00    +0.161 HD
BRANCH  12  19
ATOM     18  C   UNL     1       4.480   7.312  -2.251  0.00  0.00    +0.282 C 
ATOM     19  O   UNL     1       4.255   5.880  -2.334  0.00  0.00    -0.453 OA
ENDBRANCH  12  19
ENDBRANCH   1  15
BRANCH   5  20
ATOM     20  N   UNL     1       1.143   1.903   0.001  0.00  0.00    -0.275 N 
ATOM     21  C   UNL     1      -0.014   1.213   0.009  0.00  0.00    +0.255 C 
ATOM     22  O   UNL     1       0.002  -0.004   0.002  0.00  0.00    -0.269 OA
ATOM     23  H   UNL     1       1.130   2.873   0.007  0.00  0.00    +0.156 HD
BRANCH  21  24
ATOM     24  C   UNL     1      -1.293   1.928   0.019  0.00  0.00    +0.074 A 
ATOM     25  C   UNL     1      -2.581   1.415   0.022  0.00  0.00    +0.021 A 
ATOM     26  C   UNL     1      -3.614   2.320   0.032  0.00  0.00    +0.008 A 
ATOM     27  C   UNL     1      -3.332   3.649   0.038  0.00  0.00    +0.046 A 
ATOM     28  S   UNL     1      -1.598   3.686   0.037  0.00  0.00    -0.092 S 
ENDBRANCH  21  24
ENDBRANCH   5  20
BRANCH  10  29
ATOM     29  O   UNL     1       7.138  -2.899  -1.773  0.00  0.00    -0.454 OA
ATOM     30  C   UNL     1       8.100  -3.523  -2.664  0.00  0.00    +0.282 C 
ENDBRANCH  10  29
TORSDOF 5
