REMARK  Name = ZINC50407360
REMARK  15 active torsions:
REMARK  status: ('A' for Active; 'I' for Inactive)
REMARK    1  A    between atoms: C_1  and  C_2
REMARK    2  A    between atoms: C_2  and  C_3
REMARK    3  A    between atoms: C_4  and  C_21
REMARK    4  A    between atoms: C_5  and  O_14
REMARK    5  A    between atoms: N_6  and  C_8
REMARK    6  A    between atoms: O_14  and  C_15
REMARK    7  A    between atoms: C_21  and  N_22
REMARK    8  A    between atoms: N_22  and  C_23
REMARK    9  A    between atoms: N_22  and  S_27
REMARK   10  A    between atoms: C_23  and  C_24
REMARK   11  A    between atoms: C_24  and  O_25
REMARK   12  A    between atoms: O_25  and  C_26
REMARK   13  A    between atoms: S_27  and  C_30
REMARK   14  A    between atoms: C_33  and  O_36
REMARK   15  A    between atoms: O_36  and  C_37
REMARK                            x       y       z     vdW  Elec       q    Type
REMARK                         _______ _______ _______ _____ _____    ______ ____
ROOT
ATOM      1  C   UNL     1       0.394  -0.698  -1.159  0.00  0.00    +0.071 A 
ATOM      2  C   UNL     1      -0.199  -0.691  -2.425  0.00  0.00    +0.053 A 
ATOM      3  C   UNL     1       0.725  -1.130  -3.321  0.00  0.00    +0.228 A 
ATOM      4  N   UNL     1       1.865  -1.404  -2.631  0.00  0.00    -0.200 N 
ATOM      5  N   UNL     1       1.627  -1.118  -1.281  0.00  0.00    -0.168 NA
ENDROOT
BRANCH   4   6
ATOM      6  C   UNL     1       3.065  -1.883  -3.176  0.00  0.00    +0.069 A 
ATOM      7  C   UNL     1       3.039  -2.832  -4.188  0.00  0.00    +0.028 A 
ATOM      8  C   UNL     1       4.223  -3.301  -4.723  0.00  0.00    +0.002 A 
ATOM      9  C   UNL     1       5.433  -2.826  -4.250  0.00  0.00    +0.000 A 
ATOM     10  C   UNL     1       5.461  -1.881  -3.242  0.00  0.00    +0.002 A 
ATOM     11  C   UNL     1       4.281  -1.403  -2.708  0.00  0.00    +0.028 A 
ENDBRANCH   4   6
BRANCH   1  13
ATOM     12  C   UNL     1      -0.175   1.233   0.290  0.00  0.00    +0.010 C 
ATOM     13  C   UNL     1      -0.273  -0.286   0.129  0.00  0.00    +0.054 C 
ENDBRANCH   1  13
BRANCH   3  14
ATOM     14  O   UNL     1       0.542  -1.270  -4.659  0.00  0.00    -0.438 OA
BRANCH  14  15
ATOM     15  C   UNL     1       0.833  -0.210  -5.456  0.00  0.00    +0.130 A 
ATOM     16  C   UNL     1       1.408   0.931  -4.914  0.00  0.00    +0.046 A 
ATOM     17  C   UNL     1       1.702   2.008  -5.728  0.00  0.00    +0.004 A 
ATOM     18  C   UNL     1       1.423   1.951  -7.081  0.00  0.00    +0.000 A 
ATOM     19  C   UNL     1       0.850   0.815  -7.623  0.00  0.00    +0.004 A 
ATOM     20  C   UNL     1       0.559  -0.267  -6.816  0.00  0.00    +0.046 A 
ENDBRANCH  14  15
ENDBRANCH   3  14
BRANCH   2  21
ATOM     21  C   UNL     1      -1.611  -0.272  -2.741  0.00  0.00    +0.151 C 
BRANCH  21  22
ATOM     22  N   UNL     1      -2.518  -1.400  -2.515  0.00  0.00    -0.170 NA
BRANCH  22  23
ATOM     23  S   UNL     1      -3.684  -1.304  -1.343  0.00  0.00    +0.061 S 
ATOM     24  O   UNL     1      -3.900  -2.628  -0.875  0.00  0.00    -0.153 OA
ATOM     25  O   UNL     1      -3.303  -0.243  -0.477  0.00  0.00    -0.153 OA
BRANCH  23  26
ATOM     26  C   UNL     1      -5.176  -0.798  -2.132  0.00  0.00    +0.106 A 
ATOM     27  C   UNL     1      -5.421   0.545  -2.348  0.00  0.00    +0.032 A 
ATOM     28  C   UNL     1      -6.590   0.945  -2.966  0.00  0.00    +0.047 A 
ATOM     29  C   UNL     1      -7.518  -0.004  -3.371  0.00  0.00    +0.120 A 
ATOM     30  C   UNL     1      -7.269  -1.351  -3.154  0.00  0.00    +0.047 A 
ATOM     31  C   UNL     1      -6.096  -1.746  -2.540  0.00  0.00    +0.032 A 
BRANCH  29  32
ATOM     32  O   UNL     1      -8.669   0.386  -3.979  0.00  0.00    -0.495 OA
ATOM     33  C   UNL     1      -9.579  -0.645  -4.369  0.00  0.00    +0.277 C 
ENDBRANCH  29  32
ENDBRANCH  23  26
ENDBRANCH  22  23
BRANCH  22  34
ATOM     34  C   UNL     1      -2.393  -2.614  -3.326  0.00  0.00    +0.138 C 
BRANCH  34  35
ATOM     35  C   UNL     1      -1.334  -3.531  -2.711  0.00  0.00    +0.176 C 
BRANCH  35  36
ATOM     36  O   UNL     1      -1.778  -3.978  -1.428  0.00  0.00    -0.382 OA
ATOM     37  C   UNL     1      -0.856  -4.846  -0.765  0.00  0.00    +0.194 C 
ENDBRANCH  35  36
ENDBRANCH  34  35
ENDBRANCH  22  34
ENDBRANCH  21  22
ENDBRANCH   2  21
TORSDOF 12
