REMARK  Name = ZINC08229619
REMARK  6 active torsions:
REMARK  status: ('A' for Active; 'I' for Inactive)
REMARK    1  A    between atoms: C_1  and  C_2
REMARK    2  A    between atoms: C_2  and  C_3
REMARK    3  A    between atoms: C_3  and  N_4
REMARK    4  A    between atoms: C_5  and  C_7
REMARK    5  A    between atoms: C_18  and  C_20
REMARK    6  A    between atoms: C_20  and  N_21
REMARK                            x       y       z     vdW  Elec       q    Type
REMARK                         _______ _______ _______ _____ _____    ______ ____
ROOT
ATOM      1  C   UNL     1       4.498  -0.402   6.754  0.00  0.00    +0.276 C 
ATOM      2  C   UNL     1       3.365  -1.023   5.918  0.00  0.00    +0.168 C 
ATOM      3  N   UNL     1       2.267  -0.042   5.869  0.00  0.00    -0.263 N 
ATOM      4  C   UNL     1       1.947   0.641   7.055  0.00  0.00    +0.078 A 
ATOM      5  C   UNL     1       0.760   1.350   7.150  0.00  0.00    +0.027 A 
ATOM      6  C   UNL     1       0.451   2.021   8.318  0.00  0.00    +0.002 A 
ATOM      7  C   UNL     1       1.325   1.986   9.389  0.00  0.00    +0.004 A 
ATOM      8  C   UNL     1       2.510   1.280   9.300  0.00  0.00    +0.047 A 
ATOM      9  C   UNL     1       2.828   0.602   8.132  0.00  0.00    +0.143 A 
ATOM     10  O   UNL     1       3.993  -0.093   8.055  0.00  0.00    -0.476 OA
ATOM     11  C   UNL     1       1.589   0.189   4.727  0.00  0.00    +0.238 C 
ATOM     12  O   UNL     1       0.757   1.070   4.683  0.00  0.00    -0.274 OA
ENDROOT
BRANCH   1  14
ATOM     13  N   UNL     1       6.332  -1.746   5.779  0.00  0.00    -0.312 N 
ATOM     14  C   UNL     1       5.633  -1.386   6.873  0.00  0.00    +0.255 C 
ATOM     15  O   UNL     1       5.918  -1.855   7.955  0.00  0.00    -0.272 OA
ATOM     16  H   UNL     1       6.104  -1.371   4.913  0.00  0.00    +0.149 HD
BRANCH  13  17
ATOM     17  C   UNL     1       7.435  -2.703   5.895  0.00  0.00    +0.104 C 
BRANCH  17  19
ATOM     18  C   UNL     1       9.207  -3.936   4.638  0.00  0.00    +0.005 C 
ATOM     19  C   UNL     1       8.055  -2.936   4.516  0.00  0.00    +0.015 C 
ENDBRANCH  17  19
ENDBRANCH  13  17
ENDBRANCH   1  14
BRANCH  11  20
ATOM     20  C   UNL     1       1.864  -0.649   3.505  0.00  0.00    +0.214 C 
BRANCH  20  21
ATOM     21  N   UNL     1       0.920  -0.290   2.444  0.00  0.00    -0.215 N 
ATOM     22  C   UNL     1      -0.283  -0.880   2.265  0.00  0.00    +0.247 C 
ATOM     23  O   UNL     1      -0.770  -1.773   2.924  0.00  0.00    -0.273 OA
ATOM     24  C   UNL     1      -0.886  -0.190   1.072  0.00  0.00    +0.113 C 
ATOM     25  C   UNL     1      -2.229   0.463   1.412  0.00  0.00    +0.035 C 
ATOM     26  C   UNL     1      -3.122   0.293   0.167  0.00  0.00    +0.003 C 
ATOM     27  C   UNL     1      -2.269  -0.442  -0.889  0.00  0.00    +0.003 C 
ATOM     28  C   UNL     1      -1.189  -1.186  -0.061  0.00  0.00    +0.035 C 
ATOM     29  N   UNL     1       0.113   0.796   0.666  0.00  0.00    -0.285 N 
ATOM     30  C   UNL     1       1.141   0.665   1.530  0.00  0.00    +0.310 C 
ATOM     31  O   UNL     1       2.153   1.336   1.485  0.00  0.00    -0.252 OA
ATOM     32  H   UNL     1       0.050   1.419  -0.075  0.00  0.00    +0.151 HD
ENDBRANCH  20  21
ENDBRANCH  11  20
TORSDOF 5
