REMARK  Name = ZINC13303585
REMARK  6 active torsions:
REMARK  status: ('A' for Active; 'I' for Inactive)
REMARK    1  A    between atoms: C_3  and  C_10
REMARK    2  A    between atoms: C_5  and  N_7
REMARK    3  A    between atoms: N_11  and  N_12
REMARK    4  A    between atoms: C_13  and  S_15
REMARK    5  A    between atoms: S_15  and  C_16
REMARK    6  A    between atoms: N_21  and  C_24
REMARK                            x       y       z     vdW  Elec       q    Type
REMARK                         _______ _______ _______ _____ _____    ______ ____
ROOT
ATOM      1  N   UNL     1       4.846   4.169  -0.023  0.00  0.00    -0.217 N 
ATOM      2  C   UNL     1       4.831   5.546  -0.016  0.00  0.00    +0.146 C 
ATOM      3  N   UNL     1       3.695   6.186  -0.002  0.00  0.00    -0.380 N 
ATOM      4  H   UNL     1       5.691   3.693  -0.034  0.00  0.00    +0.176 HD
ATOM      5  H   UNL     1       3.684   7.156   0.003  0.00  0.00    +0.158 HD
ATOM      6  H   UNL     1       2.860   5.692   0.004  0.00  0.00    +0.158 HD
ENDROOT
BRANCH   1   8
ATOM      7  C   UNL     1       3.655   2.158  -0.022  0.00  0.00    +0.138 C 
ATOM      8  N   UNL     1       3.640   3.455  -0.015  0.00  0.00    -0.188 NA
BRANCH   7  11
ATOM      9  C   UNL     1      -0.017   1.379   0.010  0.00  0.00    +0.003 A 
ATOM     10  C   UNL     1       1.167   2.088   0.002  0.00  0.00    +0.009 A 
ATOM     11  C   UNL     1       2.385   1.407  -0.013  0.00  0.00    -0.003 A 
ATOM     12  C   UNL     1       2.397   0.010  -0.021  0.00  0.00    +0.042 A 
ATOM     13  C   UNL     1       1.206  -0.686  -0.013  0.00  0.00    +0.127 A 
ATOM     14  C   UNL     1       0.002  -0.004   0.002  0.00  0.00    +0.033 A 
BRANCH  13  15
ATOM     15  N   UNL     1       1.216  -2.166  -0.021  0.00  0.00    +0.056 N 
ATOM     16  O   UNL     1       2.267  -2.764  -0.035  0.00  0.00    -0.126 OA
ATOM     17  O   UNL     1       0.173  -2.778  -0.015  0.00  0.00    -0.126 OA
ENDBRANCH  13  15
ENDBRANCH   7  11
ENDBRANCH   1   8
BRANCH   2  18
ATOM     18  S   UNL     1       6.348   6.444  -0.026  0.00  0.00    -0.078 S 
BRANCH  18  19
ATOM     19  C   UNL     1       5.829   8.182  -0.013  0.00  0.00    +0.149 C 
ATOM     20  C   UNL     1       7.054   9.115  -0.092  0.00  0.00    +0.120 C 
ATOM     21  C   UNL     1       6.986   9.900   1.200  0.00  0.00    +0.228 C 
ATOM     22  O   UNL     1       7.773  10.756   1.543  0.00  0.00    -0.275 OA
ATOM     23  N   UNL     1       5.919   9.501   1.902  0.00  0.00    -0.208 N 
ATOM     24  C   UNL     1       5.193   8.537   1.314  0.00  0.00    +0.240 C 
ATOM     25  O   UNL     1       4.190   8.031   1.770  0.00  0.00    -0.274 OA
BRANCH  23  26
ATOM     26  C   UNL     1       5.585  10.045   3.151  0.00  0.00    +0.064 A 
ATOM     27  C   UNL     1       4.744  11.146   3.226  0.00  0.00    +0.045 A 
ATOM     28  C   UNL     1       4.416  11.681   4.458  0.00  0.00    +0.043 A 
ATOM     29  C   UNL     1       4.926  11.119   5.616  0.00  0.00    +0.021 A 
ATOM     30  C   UNL     1       5.764  10.022   5.543  0.00  0.00    +0.023 A 
ATOM     31  C   UNL     1       6.091   9.480   4.314  0.00  0.00    +0.063 A 
ATOM     32 CL   UNL     1       7.138   8.098   4.225  0.00  0.00    -0.082 Cl
ATOM     33 CL   UNL     1       3.364  13.058   4.554  0.00  0.00    -0.083 Cl
ENDBRANCH  23  26
ENDBRANCH  18  19
ENDBRANCH   2  18
TORSDOF 6
