REMARK  Name = ZINC39662325
REMARK  6 active torsions:
REMARK  status: ('A' for Active; 'I' for Inactive)
REMARK    1  A    between atoms: C_4  and  C_7
REMARK    2  A    between atoms: C_7  and  C_9
REMARK    3  A    between atoms: C_7  and  N_11
REMARK    4  A    between atoms: C_12  and  C_14
REMARK    5  A    between atoms: C_25  and  C_27
REMARK    6  A    between atoms: C_30  and  C_34
REMARK                            x       y       z     vdW  Elec       q    Type
REMARK                         _______ _______ _______ _____ _____    ______ ____
ROOT
ATOM      1  C   UNL     1       4.372  -4.091   2.668  0.00  0.00    +0.100 C 
ATOM      2  C   UNL     1       3.804  -5.091   1.636  0.00  0.00    +0.121 C 
ATOM      3  N   UNL     1       4.993  -5.803   1.111  0.00  0.00    -0.296 N 
ATOM      4  C   UNL     1       5.858  -6.002   2.299  0.00  0.00    +0.115 C 
ATOM      5  C   UNL     1       5.718  -4.694   3.103  0.00  0.00    -0.004 C 
ATOM      6  C   UNL     1       6.859  -3.740   2.761  0.00  0.00    -0.010 C 
ATOM      7  C   UNL     1       8.180  -4.336   3.255  0.00  0.00    -0.082 C 
ATOM      8  N   UNL     1       8.112  -4.549   4.706  0.00  0.00    +0.379 N 
ATOM      9  C   UNL     1       7.073  -5.537   5.019  0.00  0.00    -0.082 C 
ATOM     10  C   UNL     1       5.704  -4.992   4.599  0.00  0.00    -0.010 C 
ATOM     11  C   UNL     1       5.234  -6.184  -0.159  0.00  0.00    +0.247 C 
ATOM     12  O   UNL     1       4.484  -5.837  -1.050  0.00  0.00    -0.270 OA
ATOM     13  H   UNL     1       9.004  -4.884   5.038  0.00  0.00    -0.086 HD
ATOM     14  H   UNL     1       7.892  -3.676   5.162  0.00  0.00    -0.086 HD
ENDROOT
BRANCH  11  15
ATOM     15  C   UNL     1       6.412  -7.023  -0.468  0.00  0.00    +0.040 A 
ATOM     16  C   UNL     1       7.019  -7.776   0.538  0.00  0.00    +0.014 A 
ATOM     17  C   UNL     1       8.117  -8.558   0.244  0.00  0.00    +0.016 A 
ATOM     18  C   UNL     1       8.617  -8.598  -1.045  0.00  0.00    +0.090 A 
ATOM     19  C   UNL     1       8.020  -7.853  -2.049  0.00  0.00    +0.136 A 
ATOM     20  C   UNL     1       6.917  -7.070  -1.768  0.00  0.00    +0.052 A 
ATOM     21  F   UNL     1       8.515  -7.895  -3.305  0.00  0.00    -0.205 F 
BRANCH  18  22
ATOM     22  C   UNL     1       9.817  -9.454  -1.358  0.00  0.00    +0.420 C 
ATOM     23  F   UNL     1      10.241 -10.107  -0.195  0.00  0.00    -0.166 F 
ATOM     24  F   UNL     1       9.472 -10.404  -2.326  0.00  0.00    -0.166 F 
ATOM     25  F   UNL     1      10.852  -8.648  -1.844  0.00  0.00    -0.166 F 
ENDBRANCH  18  22
ENDBRANCH  11  15
BRANCH   1  27
ATOM     26  N   UNL     1       4.604  -1.631   2.794  0.00  0.00    -0.296 N 
ATOM     27  C   UNL     1       4.582  -2.742   2.030  0.00  0.00    +0.219 C 
ATOM     28  O   UNL     1       4.732  -2.655   0.830  0.00  0.00    -0.275 OA
ATOM     29  H   UNL     1       4.485  -1.701   3.754  0.00  0.00    +0.150 HD
BRANCH  26  30
ATOM     30  C   UNL     1       4.809  -0.320   2.174  0.00  0.00    +0.207 C 
BRANCH  30  34
ATOM     31  C   UNL     1       6.464   2.372   5.049  0.00  0.00    +0.000 A 
ATOM     32  C   UNL     1       6.917   2.392   3.743  0.00  0.00    +0.000 A 
ATOM     33  C   UNL     1       6.381   1.520   2.813  0.00  0.00    +0.006 A 
ATOM     34  C   UNL     1       5.394   0.629   3.188  0.00  0.00    -0.013 A 
ATOM     35  C   UNL     1       4.941   0.609   4.495  0.00  0.00    +0.006 A 
ATOM     36  C   UNL     1       5.476   1.481   5.425  0.00  0.00    +0.000 A 
ENDBRANCH  30  34
BRANCH  30  37
ATOM     37  C   UNL     1       3.519   0.204   1.697  0.00  0.00    +0.090 C 
ATOM     38  N   UNL     1       2.524   0.609   1.329  0.00  0.00    -0.194 NA
ENDBRANCH  30  37
ENDBRANCH  26  30
ENDBRANCH   1  27
TORSDOF 6
