REMARK  Name = ZINC09302103
REMARK  10 active torsions:
REMARK  status: ('A' for Active; 'I' for Inactive)
REMARK    1  A    between atoms: C_1  and  C_2
REMARK    2  A    between atoms: C_2  and  C_3
REMARK    3  A    between atoms: C_2  and  C_4
REMARK    4  A    between atoms: C_2  and  C_5
REMARK    5  A    between atoms: C_8  and  C_11
REMARK    6  A    between atoms: C_14  and  C_15
REMARK    7  A    between atoms: C_14  and  O_24
REMARK    8  A    between atoms: N_29  and  C_30
REMARK    9  A    between atoms: C_30  and  C_31
REMARK   10  A    between atoms: C_31  and  N_68
REMARK                            x       y       z     vdW  Elec       q    Type
REMARK                         _______ _______ _______ _____ _____    ______ ____
ROOT
ATOM      1  C   UNL     1       0.640   3.382   0.189  0.00  0.00    +0.144 C 
ATOM      2  C   UNL     1      -0.856   3.396  -0.022  0.00  0.00    +0.074 C 
ATOM      3  C   UNL     1      -1.695   4.497   0.042  0.00  0.00    +0.168 C 
ATOM      4  C   UNL     1      -1.223   2.074  -0.303  0.00  0.00    +0.249 C 
ATOM      5  O   UNL     1      -2.352   1.680  -0.537  0.00  0.00    -0.282 OA
ATOM      6  C   UNL     1       0.002   1.233  -0.263  0.00  0.00    +0.288 C 
ATOM      7  O   UNL     1       0.031   0.035  -0.460  0.00  0.00    -0.266 OA
ATOM      8  N   UNL     1       1.074   1.993   0.018  0.00  0.00    -0.285 N 
ENDROOT
BRANCH   3   9
ATOM      9  C   UNL     1      -3.144   4.318  -0.056  0.00  0.00    +0.171 A 
ATOM     10  C   UNL     1      -3.975   5.047  -0.853  0.00  0.00    +0.061 A 
ATOM     11  C   UNL     1      -5.285   4.548  -0.645  0.00  0.00    +0.021 A 
ATOM     12  C   UNL     1      -6.541   4.879  -1.167  0.00  0.00    +0.011 A 
ATOM     13  C   UNL     1      -7.649   4.198  -0.750  0.00  0.00    +0.001 A 
ATOM     14  C   UNL     1      -7.539   3.179   0.188  0.00  0.00    +0.004 A 
ATOM     15  C   UNL     1      -6.311   2.838   0.715  0.00  0.00    +0.047 A 
ATOM     16  C   UNL     1      -5.170   3.517   0.306  0.00  0.00    +0.136 A 
ATOM     17  O   UNL     1      -3.866   3.410   0.635  0.00  0.00    -0.452 OA
ENDBRANCH   3   9
BRANCH   1  21
ATOM     18  C   UNL     1       1.572   4.731   4.134  0.00  0.00    -0.042 A 
ATOM     19  C   UNL     1       1.746   5.578   3.055  0.00  0.00    +0.004 A 
ATOM     20  C   UNL     1       1.444   5.141   1.778  0.00  0.00    +0.006 A 
ATOM     21  C   UNL     1       0.969   3.858   1.581  0.00  0.00    -0.022 A 
ATOM     22  C   UNL     1       0.790   3.014   2.661  0.00  0.00    +0.006 A 
ATOM     23  C   UNL     1       1.096   3.449   3.937  0.00  0.00    +0.004 A 
BRANCH  18  25
ATOM     24  C   UNL     1       1.039   6.424   5.866  0.00  0.00    +0.015 C 
ATOM     25  C   UNL     1       1.902   5.207   5.525  0.00  0.00    -0.013 C 
ATOM     26  C   UNL     1       1.622   4.086   6.527  0.00  0.00    +0.015 C 
ATOM     27  C   UNL     1       3.380   5.595   5.594  0.00  0.00    +0.015 C 
ENDBRANCH  18  25
ENDBRANCH   1  21
BRANCH   3  28
ATOM     28  O   UNL     1      -1.176   5.735   0.194  0.00  0.00    -0.503 OA
ATOM     29  H   UNL     1      -1.916   6.406   0.221  0.00  0.00    +0.292 HD
ENDBRANCH   3  28
BRANCH   8  30
ATOM     30  C   UNL     1       2.453   1.511   0.134  0.00  0.00    +0.090 C 
BRANCH  30  31
ATOM     31  C   UNL     1       3.134   1.580  -1.235  0.00  0.00    -0.059 C 
BRANCH  31  37
ATOM     32  C   UNL     1       5.323   2.003  -0.288  0.00  0.00    -0.050 C 
ATOM     33  C   UNL     1       6.736   1.432  -0.145  0.00  0.00    +0.141 C 
ATOM     34  O   UNL     1       7.302   1.242  -1.445  0.00  0.00    -0.383 OA
ATOM     35  C   UNL     1       6.542   0.364  -2.280  0.00  0.00    +0.141 C 
ATOM     36  C   UNL     1       5.127   0.924  -2.445  0.00  0.00    -0.050 C 
ATOM     37  N   UNL     1       4.517   1.073  -1.107  0.00  0.00    +0.384 N 
ATOM     38  H   UNL     1       4.495   0.156  -0.645  0.00  0.00    -0.082 HD
ENDBRANCH  31  37
ENDBRANCH  30  31
ENDBRANCH   8  30
TORSDOF 7
