REMARK  Name = ZINC34971633
REMARK  14 active torsions:
REMARK  status: ('A' for Active; 'I' for Inactive)
REMARK    1  A    between atoms: C_1  and  C_2
REMARK    2  A    between atoms: C_6  and  N_8
REMARK    3  A    between atoms: N_11  and  C_12
REMARK    4  A    between atoms: N_11  and  C_31
REMARK    5  A    between atoms: C_12  and  C_13
REMARK    6  A    between atoms: C_13  and  C_14
REMARK    7  A    between atoms: C_14  and  N_15
REMARK    8  A    between atoms: N_18  and  C_19
REMARK    9  A    between atoms: C_20  and  C_28
REMARK   10  A    between atoms: C_24  and  C_25
REMARK   11  A    between atoms: C_25  and  C_26
REMARK   12  A    between atoms: C_25  and  C_27
REMARK   13  A    between atoms: C_28  and  C_29
REMARK   14  A    between atoms: C_28  and  C_30
REMARK                            x       y       z     vdW  Elec       q    Type
REMARK                         _______ _______ _______ _____ _____    ______ ____
ROOT
ATOM      1  C   UNL     1       1.632  -5.829   5.530  0.00  0.00    +0.117 C 
ENDROOT
BRANCH   1   5
ATOM      2  N   UNL     1      -0.686  -5.273   4.143  0.00  0.00    -0.269 N 
ATOM      3  C   UNL     1       0.089  -4.237   4.520  0.00  0.00    +0.311 C 
ATOM      4  O   UNL     1      -0.218  -3.103   4.207  0.00  0.00    -0.252 OA
ATOM      5  N   UNL     1       1.204  -4.458   5.245  0.00  0.00    -0.255 N 
ATOM      6  H   UNL     1      -0.466  -6.173   4.430  0.00  0.00    +0.156 HD
BRANCH   2  12
ATOM      7  C   UNL     1      -3.844  -6.900   0.744  0.00  0.00    +0.044 C 
ATOM      8  C   UNL     1      -3.360  -5.822   1.679  0.00  0.00    -0.049 A 
ATOM      9  C   UNL     1      -4.026  -4.612   1.741  0.00  0.00    +0.003 A 
ATOM     10  C   UNL     1      -3.584  -3.620   2.598  0.00  0.00    +0.002 A 
ATOM     11  C   UNL     1      -2.478  -3.836   3.396  0.00  0.00    +0.023 A 
ATOM     12  C   UNL     1      -1.808  -5.051   3.336  0.00  0.00    +0.035 A 
ATOM     13  C   UNL     1      -2.256  -6.047   2.478  0.00  0.00    +0.026 A 
ENDBRANCH   2  12
BRANCH   5  14
ATOM     14  C   UNL     1       1.952  -3.376   5.725  0.00  0.00    +0.038 A 
ATOM     15  C   UNL     1       2.632  -2.553   4.838  0.00  0.00    +0.026 A 
ATOM     16  C   UNL     1       3.370  -1.486   5.314  0.00  0.00    +0.040 A 
ATOM     17  C   UNL     1       3.431  -1.238   6.675  0.00  0.00    +0.124 A 
ATOM     18  C   UNL     1       2.754  -2.058   7.561  0.00  0.00    +0.040 A 
ATOM     19  C   UNL     1       2.010  -3.122   7.089  0.00  0.00    +0.026 A 
ATOM     20  F   UNL     1       4.154  -0.195   7.139  0.00  0.00    -0.205 F 
ENDBRANCH   5  14
ENDBRANCH   1   5
BRANCH   1  21
ATOM     21  C   UNL     1       2.567  -6.313   4.419  0.00  0.00    +0.038 C 
BRANCH  21  22
ATOM     22  C   UNL     1       3.015  -7.745   4.717  0.00  0.00    +0.107 C 
BRANCH  22  23
ATOM     23  N   UNL     1       3.909  -8.208   3.653  0.00  0.00    -0.299 N 
ATOM     24  C   UNL     1       4.431  -9.450   3.705  0.00  0.00    +0.304 C 
ATOM     25  O   UNL     1       4.159 -10.186   4.633  0.00  0.00    -0.253 OA
ATOM     26  N   UNL     1       5.255  -9.876   2.726  0.00  0.00    -0.269 N 
ATOM     27  H   UNL     1       4.127  -7.621   2.912  0.00  0.00    +0.150 HD
ATOM     28  H   UNL     1       5.577  -9.251   2.058  0.00  0.00    +0.156 HD
BRANCH  26  29
ATOM     29  C   UNL     1       5.644 -11.219   2.675  0.00  0.00    +0.042 A 
ATOM     30  C   UNL     1       6.955 -11.575   2.962  0.00  0.00    -0.023 A 
ATOM     31  C   UNL     1       7.336 -12.902   2.911  0.00  0.00    +0.006 A 
ATOM     32  C   UNL     1       6.413 -13.875   2.573  0.00  0.00    +0.001 A 
ATOM     33  C   UNL     1       5.107 -13.523   2.286  0.00  0.00    +0.006 A 
ATOM     34  C   UNL     1       4.719 -12.199   2.341  0.00  0.00    -0.023 A 
BRANCH  34  35
ATOM     35  C   UNL     1       3.293 -11.818   2.034  0.00  0.00    +0.015 C 
ATOM     36  C   UNL     1       2.963 -12.199   0.590  0.00  0.00    +0.012 C 
ATOM     37  C   UNL     1       2.351 -12.558   2.985  0.00  0.00    +0.012 C 
ENDBRANCH  34  35
BRANCH  30  38
ATOM     38  C   UNL     1       7.961 -10.515   3.330  0.00  0.00    +0.015 C 
ATOM     39  C   UNL     1       8.588 -10.854   4.684  0.00  0.00    +0.012 C 
ATOM     40  C   UNL     1       9.055 -10.457   2.261  0.00  0.00    +0.012 C 
ENDBRANCH  30  38
ENDBRANCH  26  29
ENDBRANCH  22  23
ENDBRANCH  21  22
ENDBRANCH   1  21
TORSDOF 9
