REMARK  Name = ZINC39835018
REMARK  11 active torsions:
REMARK  status: ('A' for Active; 'I' for Inactive)
REMARK    1  A    between atoms: C_1  and  C_2
REMARK    2  A    between atoms: C_2  and  C_3
REMARK    3  A    between atoms: C_3  and  C_4
REMARK    4  A    between atoms: C_4  and  C_5
REMARK    5  A    between atoms: C_5  and  C_6
REMARK    6  A    between atoms: C_6  and  N_7
REMARK    7  A    between atoms: C_8  and  C_20
REMARK    8  A    between atoms: N_12  and  C_13
REMARK    9  A    between atoms: C_16  and  C_19
REMARK   10  A    between atoms: C_23  and  S_26
REMARK   11  A    between atoms: S_26  and  N_29
REMARK                            x       y       z     vdW  Elec       q    Type
REMARK                         _______ _______ _______ _____ _____    ______ ____
ROOT
ATOM      1  N   UNL     1      -4.290  -4.503   0.113  0.00  0.00    -0.322 N 
ATOM      2  C   UNL     1      -4.769  -4.685   1.341  0.00  0.00    +0.057 A 
ATOM      3  C   UNL     1      -5.917  -5.406   1.510  0.00  0.00    +0.074 A 
ATOM      4  S   UNL     1      -6.300  -5.827  -0.185  0.00  0.00    -0.062 S 
ATOM      5  C   UNL     1      -4.907  -5.003  -0.942  0.00  0.00    +0.143 A 
ATOM      6  N   UNL     1      -4.565  -4.913  -2.283  0.00  0.00    -0.295 N 
ATOM      7  H   UNL     1      -3.723  -4.507  -2.542  0.00  0.00    +0.154 HD
ENDROOT
BRANCH   6   8
ATOM      8  C   UNL     1      -5.433  -5.407  -3.260  0.00  0.00    +0.033 A 
ATOM      9  C   UNL     1      -6.807  -5.276  -3.102  0.00  0.00    +0.023 A 
ATOM     10  C   UNL     1      -7.661  -5.764  -4.070  0.00  0.00    +0.005 A 
ATOM     11  C   UNL     1      -7.151  -6.384  -5.197  0.00  0.00    -0.050 A 
ATOM     12  C   UNL     1      -5.784  -6.516  -5.357  0.00  0.00    +0.005 A 
ATOM     13  C   UNL     1      -4.923  -6.025  -4.396  0.00  0.00    +0.023 A 
ATOM     14  C   UNL     1      -8.087  -6.916  -6.251  0.00  0.00    +0.044 C 
ENDBRANCH   6   8
BRANCH   2  15
ATOM     15  C   UNL     1      -4.064  -4.112   2.513  0.00  0.00    -0.001 A 
ATOM     16  C   UNL     1      -4.038  -4.806   3.721  0.00  0.00    +0.012 A 
ATOM     17  C   UNL     1      -3.381  -4.268   4.809  0.00  0.00    +0.029 A 
ATOM     18  C   UNL     1      -2.748  -3.042   4.701  0.00  0.00    +0.106 A 
ATOM     19  C   UNL     1      -2.771  -2.349   3.504  0.00  0.00    +0.029 A 
ATOM     20  C   UNL     1      -3.420  -2.881   2.408  0.00  0.00    +0.012 A 
BRANCH  18  21
ATOM     21  S   UNL     1      -1.911  -2.361   6.094  0.00  0.00    +0.061 S 
ATOM     22  O   UNL     1      -1.865  -0.955   5.892  0.00  0.00    -0.153 OA
ATOM     23  O   UNL     1      -2.498  -2.947   7.247  0.00  0.00    -0.153 OA
BRANCH  21  24
ATOM     24  N   UNL     1      -0.345  -2.899   6.035  0.00  0.00    -0.177 NA
ATOM     25  C   UNL     1      -0.015  -4.142   6.696  0.00  0.00    +0.109 C 
ATOM     26  C   UNL     1       0.384  -3.859   8.165  0.00  0.00    +0.017 C 
ATOM     27  C   UNL     1       1.695  -3.194   8.220  0.00  0.00    +0.001 C 
ATOM     28  C   UNL     1       1.735  -1.825   7.547  0.00  0.00    +0.001 C 
ATOM     29  C   UNL     1       1.990  -2.001   6.071  0.00  0.00    +0.017 C 
ATOM     30  C   UNL     1       0.653  -2.093   5.305  0.00  0.00    +0.109 C 
ENDBRANCH  21  24
ENDBRANCH  18  21
ENDBRANCH   2  15
BRANCH   1  31
ATOM     31  C   UNL     1      -3.059  -3.730  -0.073  0.00  0.00    +0.124 C 
BRANCH  31  32
ATOM     32  C   UNL     1      -3.412  -2.306  -0.506  0.00  0.00    +0.022 C 
BRANCH  32  33
ATOM     33  C   UNL     1      -2.140  -1.456  -0.548  0.00  0.00    +0.002 C 
BRANCH  33  34
ATOM     34  C   UNL     1      -2.493  -0.032  -0.982  0.00  0.00    -0.000 C 
BRANCH  34  36
ATOM     35  C   UNL     1      -1.574   2.243  -1.457  0.00  0.00    +0.004 C 
ATOM     36  C   UNL     1      -1.222   0.818  -1.024  0.00  0.00    -0.003 C 
ENDBRANCH  34  36
ENDBRANCH  33  34
ENDBRANCH  32  33
ENDBRANCH  31  32
ENDBRANCH   1  31
TORSDOF 9
