REMARK  Name = ZINC44606400
REMARK  13 active torsions:
REMARK  status: ('A' for Active; 'I' for Inactive)
REMARK    1  A    between atoms: C_1  and  C_2
REMARK    2  A    between atoms: C_3  and  C_4
REMARK    3  A    between atoms: C_5  and  C_6
REMARK    4  A    between atoms: C_7  and  C_8
REMARK    5  A    between atoms: N_10  and  C_11
REMARK    6  A    between atoms: C_11  and  C_13
REMARK    7  A    between atoms: C_11  and  C_17
REMARK    8  A    between atoms: C_13  and  C_15
REMARK    9  A    between atoms: C_13  and  N_16
REMARK   10  A    between atoms: C_17  and  O_19
REMARK   11  A    between atoms: O_19  and  C_20
REMARK   12  A    between atoms: C_20  and  C_22
REMARK   13  A    between atoms: C_20  and  C_33
REMARK                            x       y       z     vdW  Elec       q    Type
REMARK                         _______ _______ _______ _____ _____    ______ ____
ROOT
ATOM      1  C   UNK A   2      -9.946  -6.408   1.355  0.00  0.00    +0.238 C 
ENDROOT
BRANCH   1   2
ATOM      2  C   UNK A   2     -11.319  -5.892   1.701  0.00  0.00    +0.020 A 
ATOM      3  C   UNK A   2     -11.946  -4.849   1.135  0.00  0.00    +0.091 A 
ATOM      4  N   UNK A   2     -13.178  -4.680   1.706  0.00  0.00    -0.360 N 
ATOM      5  H   UNK A   2     -13.816  -3.990   1.462  0.00  0.00    +0.165 HD
ATOM      6  C   UNK A   2     -13.379  -5.633   2.679  0.00  0.00    +0.048 A 
ATOM      7  C   UNK A   2     -12.225  -6.438   2.715  0.00  0.00    +0.006 A 
ATOM      8  C   UNK A   2     -12.146  -7.503   3.614  0.00  0.00    +0.012 A 
ATOM      9  C   UNK A   2     -13.192  -7.761   4.455  0.00  0.00    +0.021 A 
ATOM     10  C   UNK A   2     -14.335  -6.972   4.421  0.00  0.00    +0.043 A 
ATOM     11  C   UNK A   2     -14.431  -5.911   3.546  0.00  0.00    +0.046 A 
ATOM     12 CL   UNK A   2     -15.651  -7.319   5.499  0.00  0.00    -0.083 Cl
ENDBRANCH   1   2
BRANCH   1  13
ATOM     13  C   UNK A   2     -10.069  -7.545   0.340  0.00  0.00    +0.205 C 
ATOM     14  C   UNK A   2      -8.702  -8.078   0.031  0.00  0.00    +0.238 C 
ATOM     15  O   UNK A   2      -8.183  -8.840   0.819  0.00  0.00    -0.274 OA
ATOM     16  N   GLY A   1      -8.031  -7.747  -1.077  0.00  0.00    -0.305 N 
ATOM     17  CA  GLY A   1      -8.566  -6.839  -2.083  0.00  0.00    +0.200 C 
ATOM     18  C   GLY A   1     -10.056  -6.718  -1.970  0.00  0.00    +0.231 C 
ATOM     19  O   GLY A   1     -10.680  -6.307  -2.925  0.00  0.00    -0.274 OA
ATOM     20  N   UNK A   2     -10.724  -7.045  -0.861  0.00  0.00    -0.299 N 
ATOM     21  H   GLY A   1      -7.151  -8.128  -1.217  0.00  0.00    +0.149 HD
ATOM     22  H   UNK A   2     -11.689  -6.943  -0.855  0.00  0.00    +0.150 HD
ENDBRANCH   1  13
BRANCH   1  23
ATOM     23  O   UNK A   2      -9.168  -5.349   0.793  0.00  0.00    -0.453 OA
BRANCH  23  24
ATOM     24  C   UNK A   2      -7.881  -5.273   1.169  0.00  0.00    +0.327 C 
ATOM     25  O   UNK A   2      -7.397  -6.148   1.847  0.00  0.00    -0.249 OA
BRANCH  24  26
ATOM     26  C   UNK A   2      -7.041  -4.097   0.744  0.00  0.00    +0.167 C 
BRANCH  26  29
ATOM     27  C   UNK A   2      -4.948  -3.120   1.522  0.00  0.00    +0.237 C 
ATOM     28  O   UNK A   2      -5.383  -2.023   1.223  0.00  0.00    -0.271 OA
ATOM     29  N   UNK A   2      -5.700  -4.221   1.321  0.00  0.00    -0.300 N 
ATOM     30  H   UNK A   2      -5.353  -5.095   1.559  0.00  0.00    +0.150 HD
BRANCH  27  32
ATOM     31  C   UNK A   2      -2.949  -2.126   2.410  0.00  0.00    +0.005 C 
ATOM     32  C   UNK A   2      -3.652  -3.240   2.079  0.00  0.00    +0.067 C 
BRANCH  31  34
ATOM     33  C   UNK A   2      -2.875   0.253   2.680  0.00  0.00    -0.000 C 
ATOM     34  C   UNK A   2      -3.597  -0.875   2.467  0.00  0.00    +0.000 C 
BRANCH  33  37
ATOM     35  C   UNK A   2      -3.528   3.998   3.011  0.00  0.00    +0.035 C 
ATOM     36  C   UNK A   2      -2.836   2.661   2.950  0.00  0.00    -0.030 C 
ATOM     37  C   UNK A   2      -3.547   1.550   2.740  0.00  0.00    -0.005 C 
ENDBRANCH  33  37
ENDBRANCH  31  34
ENDBRANCH  27  32
ENDBRANCH  26  29
BRANCH  26  38
ATOM     38  C   UNK A   2      -6.938  -4.067  -0.782  0.00  0.00    -0.047 C 
ATOM     39  C   UNK A   2      -5.948  -2.981  -1.206  0.00  0.00    -0.012 C 
BRANCH  38  40
ATOM     40  N   UNK A   2      -8.259  -3.776  -1.356  0.00  0.00    +0.381 N 
ATOM     41  H   UNK A   2      -8.580  -2.880  -1.023  0.00  0.00    -0.090 HD
ATOM     42  H   UNK A   2      -8.191  -3.757  -2.363  0.00  0.00    -0.090 HD
ATOM     43  H   UNK A   2      -8.912  -4.492  -1.077  0.00  0.00    -0.090 HD
ENDBRANCH  38  40
ENDBRANCH  26  38
ENDBRANCH  24  26
ENDBRANCH  23  24
ENDBRANCH   1  23
TORSDOF 11
