REMARK  Name = ZINC39688495
REMARK  8 active torsions:
REMARK  status: ('A' for Active; 'I' for Inactive)
REMARK    1  A    between atoms: C_1  and  C_2
REMARK    2  A    between atoms: C_2  and  C_4
REMARK    3  A    between atoms: C_2  and  N_12
REMARK    4  A    between atoms: C_4  and  C_5
REMARK    5  A    between atoms: C_13  and  C_15
REMARK    6  A    between atoms: C_26  and  C_28
REMARK    7  A    between atoms: C_31  and  O_34
REMARK    8  A    between atoms: O_34  and  C_35
REMARK                            x       y       z     vdW  Elec       q    Type
REMARK                         _______ _______ _______ _____ _____    ______ ____
ROOT
ATOM      1  C   UNL     1       2.788  -0.453   2.247  0.00  0.00    +0.100 C 
ATOM      2  C   UNL     1       2.652   0.292   3.594  0.00  0.00    +0.121 C 
ATOM      3  N   UNL     1       3.983   0.160   4.231  0.00  0.00    -0.296 N 
ATOM      4  C   UNL     1       4.945   0.319   3.114  0.00  0.00    +0.115 C 
ATOM      5  C   UNL     1       4.294  -0.433   1.935  0.00  0.00    -0.004 C 
ATOM      6  C   UNL     1       4.836  -1.857   1.854  0.00  0.00    -0.010 C 
ATOM      7  C   UNL     1       6.322  -1.813   1.487  0.00  0.00    -0.082 C 
ATOM      8  N   UNL     1       6.489  -1.130   0.199  0.00  0.00    +0.379 N 
ATOM      9  C   UNL     1       6.051   0.267   0.311  0.00  0.00    -0.082 C 
ATOM     10  C   UNL     1       4.554   0.310   0.629  0.00  0.00    -0.010 C 
ATOM     11  C   UNL     1       4.258  -0.056   5.533  0.00  0.00    +0.247 C 
ATOM     12  O   UNL     1       3.356  -0.287   6.314  0.00  0.00    -0.270 OA
ATOM     13  H   UNL     1       7.462  -1.155  -0.070  0.00  0.00    -0.086 HD
ATOM     14  H   UNL     1       5.937  -1.599  -0.503  0.00  0.00    -0.086 HD
ENDROOT
BRANCH  11  15
ATOM     15  C   UNL     1       5.654  -0.011   6.010  0.00  0.00    +0.037 A 
ATOM     16  C   UNL     1       6.625   0.670   5.271  0.00  0.00    +0.016 A 
ATOM     17  C   UNL     1       7.927   0.710   5.720  0.00  0.00    +0.047 A 
ATOM     18  C   UNL     1       8.275   0.073   6.905  0.00  0.00    +0.130 A 
ATOM     19  C   UNL     1       7.312  -0.606   7.642  0.00  0.00    +0.047 A 
ATOM     20  C   UNL     1       6.008  -0.645   7.204  0.00  0.00    +0.016 A 
BRANCH  18  21
ATOM     21  O   UNL     1       9.559   0.113   7.343  0.00  0.00    -0.406 OA
BRANCH  21  22
ATOM     22  C   UNL     1       9.848  -0.562   8.568  0.00  0.00    +0.575 C 
ATOM     23  F   UNL     1       9.539  -1.920   8.436  0.00  0.00    -0.133 F 
ATOM     24  F   UNL     1      11.207  -0.421   8.870  0.00  0.00    -0.133 F 
ATOM     25  F   UNL     1       9.081  -0.007   9.599  0.00  0.00    -0.133 F 
ENDBRANCH  21  22
ENDBRANCH  18  21
ENDBRANCH  11  15
BRANCH   1  27
ATOM     26  N   UNL     1       1.433  -0.433   0.178  0.00  0.00    -0.312 N 
ATOM     27  C   UNL     1       2.020   0.267   1.169  0.00  0.00    +0.218 C 
ATOM     28  O   UNL     1       1.929   1.476   1.193  0.00  0.00    -0.275 OA
ATOM     29  H   UNL     1       1.505  -1.401   0.159  0.00  0.00    +0.149 HD
BRANCH  26  31
ATOM     30  C   UNL     1      -0.748   0.514  -0.395  0.00  0.00    +0.028 C 
ATOM     31  C   UNL     1       0.685   0.266  -0.870  0.00  0.00    +0.074 C 
BRANCH  31  32
ATOM     32  C   UNL     1       0.662  -0.590  -2.138  0.00  0.00    +0.057 C 
BRANCH  32  33
ATOM     33  C   UNL     1       2.063  -0.733  -2.674  0.00  0.00    -0.045 A 
ATOM     34  C   UNL     1       2.553   0.191  -3.579  0.00  0.00    +0.006 A 
ATOM     35  C   UNL     1       3.838   0.061  -4.071  0.00  0.00    +0.038 A 
ATOM     36  C   UNL     1       4.634  -0.993  -3.658  0.00  0.00    +0.123 A 
ATOM     37  C   UNL     1       4.142  -1.917  -2.752  0.00  0.00    +0.038 A 
ATOM     38  C   UNL     1       2.859  -1.783  -2.257  0.00  0.00    +0.006 A 
ATOM     39  F   UNL     1       5.890  -1.121  -4.139  0.00  0.00    -0.205 F 
ENDBRANCH  32  33
ENDBRANCH  31  32
ENDBRANCH  26  31
ENDBRANCH   1  27
TORSDOF 7
