REMARK  Name = ZINC21108592
REMARK  9 active torsions:
REMARK  status: ('A' for Active; 'I' for Inactive)
REMARK    1  A    between atoms: C_1  and  O_2
REMARK    2  A    between atoms: O_2  and  C_3
REMARK    3  A    between atoms: C_5  and  N_13
REMARK    4  A    between atoms: C_7  and  O_11
REMARK    5  A    between atoms: C_8  and  O_9
REMARK    6  A    between atoms: O_9  and  C_10
REMARK    7  A    between atoms: O_11  and  C_12
REMARK    8  A    between atoms: N_13  and  S_14
REMARK    9  A    between atoms: S_14  and  C_17
REMARK                            x       y       z     vdW  Elec       q    Type
REMARK                         _______ _______ _______ _____ _____    ______ ____
ROOT
ATOM      1  S   UNL     1       0.869   4.392   1.482  0.00  0.00    +0.074 S 
ATOM      2  O   UNL     1       0.779   5.767   1.133  0.00  0.00    -0.150 OA
ATOM      3  O   UNL     1      -0.189   3.700   2.130  0.00  0.00    -0.150 OA
ENDROOT
BRANCH   1   4
ATOM      4  C   UNL     1       2.286   4.228   2.518  0.00  0.00    +0.130 A 
ATOM      5  C   UNL     1       3.106   5.319   2.741  0.00  0.00    +0.077 A 
ATOM      6  C   UNL     1       4.215   5.192   3.558  0.00  0.00    +0.144 A 
ATOM      7  C   UNL     1       4.509   3.961   4.144  0.00  0.00    +0.077 A 
ATOM      8  C   UNL     1       3.688   2.871   3.913  0.00  0.00    +0.049 A 
ATOM      9  C   UNL     1       2.576   3.007   3.099  0.00  0.00    +0.070 A 
ATOM     10 CL   UNL     1       1.545   1.642   2.807  0.00  0.00    -0.081 Cl
ATOM     11  N   UNL     1       5.641   3.845   4.964  0.00  0.00    -0.280 N 
ATOM     12  C   UNL     1       6.235   4.968   5.423  0.00  0.00    +0.255 C 
ATOM     13  O   UNL     1       7.232   4.893   6.109  0.00  0.00    -0.272 OA
ATOM     14  C   UNL     1       5.653   6.316   5.079  0.00  0.00    +0.325 C 
ATOM     15  O   UNL     1       5.029   6.256   3.794  0.00  0.00    -0.481 OA
ATOM     16  H   UNL     1       6.032   2.851   5.224  0.00  0.00    +0.155 HD
ENDBRANCH   1   4
BRANCH   1  17
ATOM     17  N   UNL     1       1.188   3.568   0.082  0.00  0.00    -0.216 N 
ATOM     18  H   UNL     1       1.299   4.115  -0.866  0.00  0.00    +0.174 HD
BRANCH  17  21
ATOM     19  C   UNL     1       0.316  -0.004   0.262  0.00  0.00    +0.167 A 
ATOM     20  C   UNL     1       0.190   1.376   0.240  0.00  0.00    +0.074 A 
ATOM     21  C   UNL     1       1.317   2.175   0.104  0.00  0.00    +0.055 A 
ATOM     22  C   UNL     1       2.572   1.592  -0.009  0.00  0.00    +0.074 A 
ATOM     23  C   UNL     1       2.700   0.212   0.013  0.00  0.00    +0.167 A 
ATOM     24  C   UNL     1       1.572  -0.588   0.149  0.00  0.00    +0.204 A 
BRANCH  19  26
ATOM     25  C   UNL     1      -2.047  -0.119   0.505  0.00  0.00    +0.277 C 
ATOM     26  O   UNL     1      -0.788  -0.787   0.394  0.00  0.00    -0.491 OA
ENDBRANCH  19  26
BRANCH  24  27
ATOM     27  O   UNL     1       1.697  -1.944   0.171  0.00  0.00    -0.488 OA
ATOM     28  C   UNL     1       1.628  -2.623  -1.085  0.00  0.00    +0.277 C 
ENDBRANCH  24  27
BRANCH  23  29
ATOM     29  O   UNL     1       3.929  -0.359  -0.097  0.00  0.00    -0.491 OA
ATOM     30  C   UNL     1       5.031   0.517  -0.348  0.00  0.00    +0.277 C 
ENDBRANCH  23  29
ENDBRANCH  17  21
ENDBRANCH   1  17
TORSDOF 6
