REMARK  Name = ZINC20684309
REMARK  5 active torsions:
REMARK  status: ('A' for Active; 'I' for Inactive)
REMARK    1  A    between atoms: C_1  and  C_2
REMARK    2  A    between atoms: C_2  and  N_3
REMARK    3  A    between atoms: C_14  and  C_16
REMARK    4  A    between atoms: C_26  and  C_33
REMARK    5  A    between atoms: C_28  and  C_32
REMARK                            x       y       z     vdW  Elec       q    Type
REMARK                         _______ _______ _______ _____ _____    ______ ____
ROOT
ATOM      1  C   UNL     1      -0.667   8.924   0.133  0.00  0.00    +0.105 C 
ATOM      2  C   UNL     1      -0.744   9.516   1.529  0.00  0.00    +0.029 C 
ATOM      3  C   UNL     1      -1.495   8.704   2.593  0.00  0.00    +0.033 C 
ATOM      4  C   UNL     1      -2.014   9.809   3.515  0.00  0.00    -0.030 C 
ATOM      5  C   UNL     1      -2.137  10.944   2.838  0.00  0.00    -0.023 C 
ATOM      6  C   UNL     1      -1.754  10.698   1.424  0.00  0.00    +0.049 C 
ATOM      7  C   UNL     1      -1.131  11.757   0.601  0.00  0.00    -0.016 A 
ATOM      8  C   UNL     1      -1.335  13.098   0.842  0.00  0.00    -0.045 A 
ATOM      9  C   UNL     1      -0.743  14.050   0.034  0.00  0.00    +0.007 A 
ATOM     10  C   UNL     1       0.059  13.658  -1.022  0.00  0.00    -0.048 A 
ATOM     11  C   UNL     1       0.276  12.318  -1.268  0.00  0.00    +0.026 A 
ATOM     12  C   UNL     1      -0.309  11.352  -0.457  0.00  0.00    +0.032 A 
ATOM     13  N   UNL     1      -0.070   9.978  -0.715  0.00  0.00    -0.336 N 
ATOM     14  C   UNL     1       0.698  14.697  -1.908  0.00  0.00    +0.044 C 
ATOM     15  C   UNL     1      -2.209  13.529   1.992  0.00  0.00    +0.044 C 
ATOM     16  H   UNL     1       0.573   9.702  -1.564  0.00  0.00    +0.147 HD
ENDROOT
BRANCH   1  28
ATOM     17  N   UNL     1       2.408   4.186   0.146  0.00  0.00    -0.340 N 
ATOM     18  C   UNL     1       1.417   3.221   0.180  0.00  0.00    +0.050 A 
ATOM     19  C   UNL     1       1.465   1.830   0.200  0.00  0.00    +0.026 A 
ATOM     20  C   UNL     1       0.296   1.100   0.234  0.00  0.00    +0.002 A 
ATOM     21  C   UNL     1      -0.934   1.739   0.242  0.00  0.00    +0.001 A 
ATOM     22  C   UNL     1      -1.002   3.115   0.228  0.00  0.00    +0.010 A 
ATOM     23  C   UNL     1       0.172   3.865   0.194  0.00  0.00    +0.008 A 
ATOM     24  C   UNL     1       0.449   5.313   0.166  0.00  0.00    +0.008 A 
ATOM     25  C   UNL     1       1.845   5.450   0.137  0.00  0.00    +0.050 A 
ATOM     26  C   UNL     1       2.404   6.724   0.107  0.00  0.00    +0.027 A 
ATOM     27  C   UNL     1       1.588   7.835   0.106  0.00  0.00    +0.007 A 
ATOM     28  C   UNL     1       0.209   7.698   0.135  0.00  0.00    -0.026 A 
ATOM     29  C   UNL     1      -0.363   6.444   0.164  0.00  0.00    +0.016 A 
BRANCH  17  31
ATOM     30  C   UNL     1       4.319   3.792  -1.327  0.00  0.00    +0.027 C 
ATOM     31  C   UNL     1       3.846   3.910   0.123  0.00  0.00    +0.119 C 
ENDBRANCH  17  31
ENDBRANCH   1  28
TORSDOF 2
