REMARK  Name = ZINC39632126
REMARK  13 active torsions:
REMARK  status: ('A' for Active; 'I' for Inactive)
REMARK    1  A    between atoms: C_1  and  C_2
REMARK    2  A    between atoms: C_6  and  C_8
REMARK    3  A    between atoms: C_8  and  C_9
REMARK    4  A    between atoms: C_13  and  C_22
REMARK    5  A    between atoms: N_24  and  C_25
REMARK    6  A    between atoms: C_25  and  C_27
REMARK    7  A    between atoms: C_25  and  C_28
REMARK    8  A    between atoms: C_28  and  C_29
REMARK    9  A    between atoms: C_29  and  C_30
REMARK   10  A    between atoms: C_30  and  C_31
REMARK   11  A    between atoms: C_31  and  C_32
REMARK   12  A    between atoms: C_31  and  C_33
REMARK   13  A    between atoms: C_31  and  O_34
REMARK                            x       y       z     vdW  Elec       q    Type
REMARK                         _______ _______ _______ _____ _____    ______ ____
ROOT
ATOM      1  C   UNL     1       1.138  -2.993   3.019  0.00  0.00    +0.220 C 
ATOM      2  O   UNL     1       1.971  -2.507   2.283  0.00  0.00    -0.275 OA
ATOM      3  N   UNL     1       1.524  -3.681   4.112  0.00  0.00    -0.300 N 
ATOM      4  C   UNL     1       0.662  -4.347   5.117  0.00  0.00    +0.121 C 
ATOM      5  C   UNL     1       1.397  -5.665   5.449  0.00  0.00    +0.100 C 
ATOM      6  C   UNL     1       2.869  -5.393   5.097  0.00  0.00    -0.004 C 
ATOM      7  C   UNL     1       2.906  -3.949   4.576  0.00  0.00    +0.115 C 
ATOM      8  C   UNL     1       3.337  -6.352   4.007  0.00  0.00    -0.010 C 
ATOM      9  C   UNL     1       4.819  -6.101   3.713  0.00  0.00    -0.082 C 
ATOM     10  N   UNL     1       5.603  -6.300   4.939  0.00  0.00    +0.379 N 
ATOM     11  C   UNL     1       5.210  -5.312   5.951  0.00  0.00    -0.082 C 
ATOM     12  C   UNL     1       3.745  -5.530   6.338  0.00  0.00    -0.010 C 
ATOM     13  H   UNL     1       5.436  -7.229   5.295  0.00  0.00    -0.086 HD
ATOM     14  H   UNL     1       6.584  -6.194   4.729  0.00  0.00    -0.086 HD
ENDROOT
BRANCH   5  15
ATOM     15  C   UNL     1       0.854  -6.794   4.612  0.00  0.00    +0.218 C 
ATOM     16  O   UNL     1       0.423  -6.572   3.501  0.00  0.00    -0.275 OA
ATOM     17  N   UNL     1       0.848  -8.051   5.099  0.00  0.00    -0.312 N 
ATOM     18  H   UNL     1       1.193  -8.229   5.988  0.00  0.00    +0.149 HD
BRANCH  17  19
ATOM     19  C   UNL     1       0.320  -9.149   4.285  0.00  0.00    +0.070 C 
ATOM     20  C   UNL     1      -1.198  -9.230   4.461  0.00  0.00    +0.028 C 
BRANCH  19  21
ATOM     21  C   UNL     1       0.956 -10.467   4.733  0.00  0.00    +0.022 C 
BRANCH  21  22
ATOM     22  C   UNL     1       2.458 -10.433   4.442  0.00  0.00    +0.005 C 
BRANCH  22  23
ATOM     23  C   UNL     1       3.094 -11.750   4.889  0.00  0.00    +0.034 C 
BRANCH  23  24
ATOM     24  C   UNL     1       4.596 -11.716   4.598  0.00  0.00    +0.061 C 
ATOM     25  C   UNL     1       5.210 -13.078   4.929  0.00  0.00    +0.041 C 
ATOM     26  C   UNL     1       4.822 -11.401   3.118  0.00  0.00    +0.041 C 
BRANCH  24  27
ATOM     27  O   UNL     1       5.213 -10.707   5.399  0.00  0.00    -0.389 OA
ATOM     28  H   UNL     1       6.168 -10.629   5.267  0.00  0.00    +0.210 HD
ENDBRANCH  24  27
ENDBRANCH  23  24
ENDBRANCH  22  23
ENDBRANCH  21  22
ENDBRANCH  19  21
ENDBRANCH  17  19
ENDBRANCH   5  15
BRANCH   1  29
ATOM     29  C   UNL     1      -0.328  -2.827   2.712  0.00  0.00    +0.131 C 
BRANCH  29  35
ATOM     30  C   UNL     1      -0.834   1.593   0.418  0.00  0.00    +0.044 C 
ATOM     31  C   UNL     1      -0.731   0.091   0.349  0.00  0.00    -0.050 A 
ATOM     32  C   UNL     1      -0.782  -0.550  -0.875  0.00  0.00    +0.003 A 
ATOM     33  C   UNL     1      -0.688  -1.928  -0.938  0.00  0.00    +0.001 A 
ATOM     34  C   UNL     1      -0.540  -2.665   0.223  0.00  0.00    +0.004 A 
ATOM     35  C   UNL     1      -0.488  -2.024   1.446  0.00  0.00    -0.038 A 
ATOM     36  C   UNL     1      -0.578  -0.645   1.509  0.00  0.00    +0.007 A 
ENDBRANCH  29  35
ENDBRANCH   1  29
TORSDOF 9
