REMARK  Name = ZINC21264025
REMARK  14 active torsions:
REMARK  status: ('A' for Active; 'I' for Inactive)
REMARK    1  A    between atoms: C_1  and  C_2
REMARK    2  A    between atoms: C_2  and  C_4
REMARK    3  A    between atoms: C_2  and  N_12
REMARK    4  A    between atoms: C_7  and  O_10
REMARK    5  A    between atoms: O_10  and  C_11
REMARK    6  A    between atoms: N_12  and  C_13
REMARK    7  A    between atoms: N_12  and  C_19
REMARK    8  A    between atoms: C_13  and  C_14
REMARK    9  A    between atoms: C_19  and  N_21
REMARK   10  A    between atoms: N_21  and  C_22
REMARK   11  A    between atoms: C_24  and  C_30
REMARK   12  A    between atoms: C_24  and  C_31
REMARK   13  A    between atoms: C_26  and  C_28
REMARK   14  A    between atoms: C_26  and  C_29
REMARK                            x       y       z     vdW  Elec       q    Type
REMARK                         _______ _______ _______ _____ _____    ______ ____
ROOT
ATOM      1  N   UNL     1      -1.882   3.670  -2.308  0.00  0.00    -0.299 N 
ENDROOT
BRANCH   1   3
ATOM      2  C   UNL     1      -3.268   5.193  -3.627  0.00  0.00    +0.033 C 
ATOM      3  C   UNL     1      -2.434   5.026  -2.356  0.00  0.00    +0.103 C 
BRANCH   3   4
ATOM      4  C   UNL     1      -1.308   6.027  -2.358  0.00  0.00    -0.027 A 
ATOM      5  C   UNL     1      -0.209   5.828  -3.173  0.00  0.00    +0.009 A 
ATOM      6  C   UNL     1       0.822   6.747  -3.181  0.00  0.00    +0.046 A 
ATOM      7  C   UNL     1       0.759   7.865  -2.362  0.00  0.00    +0.120 A 
ATOM      8  C   UNL     1      -0.342   8.060  -1.542  0.00  0.00    +0.046 A 
ATOM      9  C   UNL     1      -1.373   7.141  -1.541  0.00  0.00    +0.009 A 
BRANCH   7  10
ATOM     10  O   UNL     1       1.776   8.768  -2.364  0.00  0.00    -0.495 OA
ATOM     11  C   UNL     1       2.877   8.502  -3.234  0.00  0.00    +0.277 C 
ENDBRANCH   7  10
ENDBRANCH   3   4
ENDBRANCH   1   3
BRANCH   1  12
ATOM     12  C   UNL     1      -1.213   3.252  -1.215  0.00  0.00    +0.134 C 
ATOM     13  S   UNL     1      -1.009   4.307   0.118  0.00  0.00    -0.019 S 
BRANCH  12  14
ATOM     14  N   UNL     1      -0.705   2.005  -1.172  0.00  0.00    -0.324 N 
ATOM     15  H   UNL     1      -0.836   1.327  -2.029  0.00  0.00    +0.148 HD
BRANCH  14  16
ATOM     16  C   UNL     1       0.023   1.550   0.019  0.00  0.00    +0.069 C 
ATOM     17  C   UNL     1       1.492   1.956  -0.104  0.00  0.00    +0.009 C 
ATOM     18  C   UNL     1       2.279   1.476   1.114  0.00  0.00    -0.072 C 
ATOM     19  N   UNL     1       2.048   0.080   1.421  0.00  0.00    +0.386 N 
ATOM     20  C   UNL     1       0.716  -0.478   1.323  0.00  0.00    -0.072 C 
ATOM     21  C   UNL     1      -0.054   0.026   0.105  0.00  0.00    +0.009 C 
ATOM     22  C   UNL     1      -0.097  -0.200   2.593  0.00  0.00    -0.010 C 
ATOM     23  C   UNL     1       0.845  -2.012   1.190  0.00  0.00    -0.010 C 
ATOM     24  C   UNL     1       1.956   2.370   2.317  0.00  0.00    -0.010 C 
ATOM     25  C   UNL     1       3.780   1.659   0.799  0.00  0.00    -0.010 C 
ATOM     26  H   UNL     1       2.647  -0.548   0.746  0.00  0.00    -0.084 HD
ATOM     27  H   UNL     1       2.340  -0.119   2.463  0.00  0.00    -0.084 HD
ENDBRANCH  14  16
ENDBRANCH  12  14
ENDBRANCH   1  12
BRANCH   1  28
ATOM     28  C   UNL     1      -2.057   2.768  -3.449  0.00  0.00    +0.181 C 
BRANCH  28  29
ATOM     29  C   UNL     1      -3.250   1.879  -3.209  0.00  0.00    +0.122 A 
ATOM     30  C   UNL     1      -4.496   2.095  -3.667  0.00  0.00    +0.046 A 
ATOM     31  C   UNL     1      -5.292   1.020  -3.209  0.00  0.00    +0.041 A 
ATOM     32  C   UNL     1      -4.485   0.212  -2.498  0.00  0.00    +0.195 A 
ATOM     33  O   UNL     1      -3.248   0.735  -2.506  0.00  0.00    -0.466 OA
ENDBRANCH  28  29
ENDBRANCH   1  28
TORSDOF 8
