REMARK  Name = ZINC35486505
REMARK  14 active torsions:
REMARK  status: ('A' for Active; 'I' for Inactive)
REMARK    1  A    between atoms: C_1  and  C_2
REMARK    2  A    between atoms: C_2  and  N_3
REMARK    3  A    between atoms: N_3  and  C_4
REMARK    4  A    between atoms: N_3  and  C_6
REMARK    5  A    between atoms: C_4  and  C_5
REMARK    6  A    between atoms: C_6  and  C_7
REMARK    7  A    between atoms: C_7  and  N_8
REMARK    8  A    between atoms: C_9  and  C_25
REMARK    9  A    between atoms: C_28  and  O_34
REMARK   10  A    between atoms: C_29  and  O_31
REMARK   11  A    between atoms: O_31  and  C_32
REMARK   12  A    between atoms: C_32  and  C_33
REMARK   13  A    between atoms: O_34  and  C_35
REMARK   14  A    between atoms: C_35  and  C_36
REMARK                            x       y       z     vdW  Elec       q    Type
REMARK                         _______ _______ _______ _____ _____    ______ ____
ROOT
ATOM      1  N   UNL     1       1.517  -3.420   3.096  0.00  0.00    -0.285 N 
ATOM      2  C   UNL     1       0.485  -4.330   3.619  0.00  0.00    +0.145 C 
ATOM      3  C   UNL     1       1.084  -5.697   3.568  0.00  0.00    +0.072 A 
ATOM      4  C   UNL     1       0.545  -7.003   3.962  0.00  0.00    +0.199 A 
ATOM      5  O   UNL     1      -0.623  -7.181   4.259  0.00  0.00    -0.287 OA
ATOM      6  C   UNL     1       1.559  -8.088   3.963  0.00  0.00    +0.066 A 
ATOM      7  C   UNL     1       1.254  -9.338   4.502  0.00  0.00    +0.035 A 
ATOM      8  C   UNL     1       2.209 -10.332   4.499  0.00  0.00    +0.042 A 
ATOM      9  C   UNL     1       3.467 -10.086   3.963  0.00  0.00    +0.023 A 
ATOM     10  C   UNL     1       3.777  -8.857   3.428  0.00  0.00    +0.048 A 
ATOM     11  C   UNL     1       2.828  -7.836   3.416  0.00  0.00    +0.140 A 
ATOM     12  O   UNL     1       3.156  -6.641   2.874  0.00  0.00    -0.450 OA
ATOM     13  C   UNL     1       2.345  -5.580   3.057  0.00  0.00    +0.199 A 
ATOM     14  C   UNL     1       2.596  -4.158   2.767  0.00  0.00    +0.283 C 
ATOM     15  O   UNL     1       3.627  -3.714   2.301  0.00  0.00    -0.267 OA
ATOM     16 CL   UNL     1       1.840 -11.891   5.167  0.00  0.00    -0.084 Cl
ENDROOT
BRANCH   2  17
ATOM     17  C   UNL     1      -0.748  -4.269   2.754  0.00  0.00    -0.019 A 
ATOM     18  C   UNL     1      -0.624  -4.197   1.379  0.00  0.00    +0.009 A 
ATOM     19  C   UNL     1      -1.752  -4.140   0.582  0.00  0.00    +0.050 A 
ATOM     20  C   UNL     1      -3.011  -4.157   1.160  0.00  0.00    +0.162 A 
ATOM     21  C   UNL     1      -3.136  -4.230   2.544  0.00  0.00    +0.162 A 
ATOM     22  C   UNL     1      -2.001  -4.291   3.337  0.00  0.00    +0.055 A 
BRANCH  21  23
ATOM     23  O   UNL     1      -4.369  -4.246   3.117  0.00  0.00    -0.489 OA
BRANCH  23  24
ATOM     24  C   UNL     1      -4.422  -4.322   4.543  0.00  0.00    +0.226 C 
ATOM     25  C   UNL     1      -5.882  -4.330   5.000  0.00  0.00    +0.048 C 
ENDBRANCH  23  24
ENDBRANCH  21  23
BRANCH  20  26
ATOM     26  O   UNL     1      -4.121  -4.101   0.378  0.00  0.00    -0.484 OA
BRANCH  26  27
ATOM     27  C   UNL     1      -3.916  -4.026  -1.035  0.00  0.00    +0.256 C 
BRANCH  27  28
ATOM     28  C   UNL     1      -5.250  -3.972  -1.734  0.00  0.00    +0.006 C 
ATOM     29  C   UNL     1      -5.447  -3.114  -2.703  0.00  0.00    +0.007 C 
ENDBRANCH  27  28
ENDBRANCH  26  27
ENDBRANCH  20  26
ENDBRANCH   2  17
BRANCH   1  30
ATOM     30  C   UNL     1       1.391  -1.967   2.953  0.00  0.00    +0.090 C 
BRANCH  30  31
ATOM     31  C   UNL     1       0.821  -1.638   1.572  0.00  0.00    -0.060 C 
BRANCH  31  32
ATOM     32  N   UNL     1       0.820  -0.182   1.376  0.00  0.00    +0.380 N 
ATOM     33  H   UNL     1       0.329   0.259   2.139  0.00  0.00    -0.082 HD
BRANCH  32  35
ATOM     34  C   UNL     1       2.203   1.835   1.258  0.00  0.00    -0.017 C 
ATOM     35  C   UNL     1       2.204   0.307   1.336  0.00  0.00    -0.082 C 
ENDBRANCH  32  35
BRANCH  32  36
ATOM     36  C   UNL     1       0.149   0.141   0.110  0.00  0.00    -0.082 C 
ATOM     37  C   UNL     1      -1.331  -0.235   0.206  0.00  0.00    -0.017 C 
ENDBRANCH  32  36
ENDBRANCH  31  32
ENDBRANCH  30  31
ENDBRANCH   1  30
TORSDOF 11
