REMARK  Name = ZINC20899150
REMARK  2 active torsions:
REMARK  status: ('A' for Active; 'I' for Inactive)
REMARK    1  A    between atoms: C_10  and  C_13
REMARK    2  A    between atoms: N_23  and  C_26
REMARK                            x       y       z     vdW  Elec       q    Type
REMARK                         _______ _______ _______ _____ _____    ______ ____
ROOT
ATOM      1  C   UNL     1       1.557   0.495   3.551  0.00  0.00    +0.002 A 
ATOM      2  C   UNL     1       2.868   0.934   3.593  0.00  0.00    +0.001 A 
ATOM      3  C   UNL     1       3.840   0.220   2.934  0.00  0.00    +0.016 A 
ATOM      4  C   UNL     1       3.537  -0.946   2.215  0.00  0.00    +0.030 A 
ATOM      5  C   UNL     1       2.224  -1.388   2.170  0.00  0.00    +0.045 A 
ATOM      6  C   UNL     1       1.244  -0.645   2.852  0.00  0.00    +0.024 A 
ATOM      7  N   UNL     1       1.748  -2.493   1.519  0.00  0.00    -0.316 N 
ATOM      8  C   UNL     1       2.149  -3.571   0.943  0.00  0.00    +0.027 C 
ATOM      9  C   UNL     1       3.516  -3.957   0.498  0.00  0.00    +0.071 C 
ATOM     10  C   UNL     1       4.578  -3.506   1.459  0.00  0.00    +0.094 C 
ATOM     11  S   UNL     1       4.878  -1.745   1.430  0.00  0.00    -0.114 S 
ATOM     12  C   UNL     1       1.164  -4.512   0.702  0.00  0.00    +0.117 C 
ATOM     13  C   UNL     1       1.355  -5.591  -0.283  0.00  0.00    +0.258 C 
ATOM     14  N   UNL     1       0.351  -6.473  -0.466  0.00  0.00    -0.235 N 
ATOM     15  C   UNL     1      -0.795  -6.382   0.223  0.00  0.00    +0.320 C 
ATOM     16  O   UNL     1      -1.661  -7.208   0.012  0.00  0.00    -0.251 OA
ATOM     17  N   UNL     1      -1.037  -5.428   1.133  0.00  0.00    -0.190 N 
ATOM     18  C   UNL     1      -0.120  -4.482   1.423  0.00  0.00    +0.265 C 
ATOM     19  O   UNL     1      -0.350  -3.624   2.255  0.00  0.00    -0.269 OA
ATOM     20  O   UNL     1       2.391  -5.684  -0.914  0.00  0.00    -0.270 OA
ATOM     21  H   UNL     1       0.461  -7.189  -1.110  0.00  0.00    +0.159 HD
ATOM     22  H   UNL     1       0.780  -2.448   1.477  0.00  0.00    +0.152 HD
ENDROOT
BRANCH  17  23
ATOM     23  C   UNL     1      -2.269  -5.416   1.803  0.00  0.00    +0.046 A 
ATOM     24  C   UNL     1      -3.340  -4.708   1.275  0.00  0.00    +0.025 A 
ATOM     25  C   UNL     1      -4.553  -4.698   1.936  0.00  0.00    +0.022 A 
ATOM     26  C   UNL     1      -4.700  -5.394   3.124  0.00  0.00    +0.041 A 
ATOM     27  C   UNL     1      -3.634  -6.100   3.651  0.00  0.00    +0.022 A 
ATOM     28  C   UNL     1      -2.421  -6.118   2.991  0.00  0.00    +0.025 A 
ATOM     29 CL   UNL     1      -6.226  -5.379   3.952  0.00  0.00    -0.084 Cl
ENDBRANCH  17  23
BRANCH  10  30
ATOM     30  C   UNL     1       5.864  -4.215   1.122  0.00  0.00    +0.003 A 
ATOM     31  C   UNL     1       6.606  -5.049   1.892  0.00  0.00    +0.012 A 
ATOM     32  C   UNL     1       7.764  -5.592   1.368  0.00  0.00    +0.008 A 
ATOM     33  C   UNL     1       8.123  -5.275   0.100  0.00  0.00    +0.045 A 
ATOM     34  S   UNL     1       6.801  -4.183  -0.397  0.00  0.00    -0.100 S 
ENDBRANCH  10  30
TORSDOF 2
