REMARK  Name = ZINC40301947
REMARK  3 active torsions:
REMARK  status: ('A' for Active; 'I' for Inactive)
REMARK    1  A    between atoms: C_1  and  C_2
REMARK    2  A    between atoms: C_3  and  N_20
REMARK    3  A    between atoms: C_5  and  C_7
REMARK                            x       y       z     vdW  Elec       q    Type
REMARK                         _______ _______ _______ _____ _____    ______ ____
ROOT
ATOM      1  C   UNL     1       1.047  -4.020  -0.024  0.00  0.00    +0.258 C 
ATOM      2  O   UNL     1       0.279  -4.964  -0.039  0.00  0.00    -0.269 OA
ATOM      3  N   UNL     1       2.374  -4.229  -0.133  0.00  0.00    -0.256 N 
ATOM      4  C   UNL     1       3.322  -3.105  -0.127  0.00  0.00    +0.210 C 
ATOM      5  C   UNL     1       4.378  -3.346  -1.176  0.00  0.00    +0.235 C 
ATOM      6  O   UNL     1       4.916  -2.401  -1.713  0.00  0.00    -0.274 OA
ATOM      7  N   UNL     1       4.730  -4.598  -1.524  0.00  0.00    -0.283 N 
ATOM      8  C   UNL     1       4.090  -5.705  -0.957  0.00  0.00    +0.055 A 
ATOM      9  C   UNL     1       2.896  -5.526  -0.249  0.00  0.00    +0.058 A 
ATOM     10  C   UNL     1       2.249  -6.609   0.318  0.00  0.00    +0.025 A 
ATOM     11  C   UNL     1       2.792  -7.876   0.190  0.00  0.00    +0.002 A 
ATOM     12  C   UNL     1       3.975  -8.059  -0.502  0.00  0.00    +0.002 A 
ATOM     13  C   UNL     1       4.625  -6.976  -1.084  0.00  0.00    +0.025 A 
ATOM     14  H   UNL     1       5.436  -4.734  -2.176  0.00  0.00    +0.155 HD
ENDROOT
BRANCH   1  19
ATOM     15  C   UNL     1       0.018   1.474   0.603  0.00  0.00    +0.053 C 
ATOM     16  C   UNL     1       0.029  -0.021   0.411  0.00  0.00    +0.008 A 
ATOM     17  C   UNL     1      -1.025  -0.868   0.222  0.00  0.00    +0.035 A 
ATOM     18  C   UNL     1      -0.784  -2.212   0.068  0.00  0.00    +0.043 A 
ATOM     19  C   UNL     1       0.529  -2.656   0.111  0.00  0.00    +0.076 A 
ATOM     20  S   UNL     1       1.425  -1.133   0.367  0.00  0.00    -0.087 S 
BRANCH  17  21
ATOM     21  N   UNL     1      -2.341  -0.371   0.186  0.00  0.00    -0.357 N 
ATOM     22  H   UNL     1      -2.504   0.579   0.296  0.00  0.00    +0.142 HD
ATOM     23  H   UNL     1      -3.085  -0.978   0.051  0.00  0.00    +0.142 HD
ENDBRANCH  17  21
ENDBRANCH   1  19
TORSDOF 2
