REMARK  Name = ZINC05649042
REMARK  10 active torsions:
REMARK  status: ('A' for Active; 'I' for Inactive)
REMARK    1  A    between atoms: C_1  and  C_2
REMARK    2  A    between atoms: C_2  and  C_3
REMARK    3  A    between atoms: C_3  and  C_4
REMARK    4  A    between atoms: C_4  and  C_5
REMARK    5  A    between atoms: C_4  and  C_6
REMARK    6  A    between atoms: C_4  and  O_32
REMARK    7  A    between atoms: C_12  and  O_30
REMARK    8  A    between atoms: C_24  and  O_27
REMARK    9  A    between atoms: C_29  and  N_63
REMARK   10  A    between atoms: O_30  and  C_31
REMARK                            x       y       z     vdW  Elec       q    Type
REMARK                         _______ _______ _______ _____ _____    ______ ____
ROOT
ATOM      1  C   UNL     1      -1.410  -2.286   0.269  0.00  0.00    +0.061 C 
ATOM      2  C   UNL     1      -2.268  -3.456   0.821  0.00  0.00    +0.020 C 
ATOM      3  C   UNL     1      -3.746  -3.149   0.446  0.00  0.00    -0.009 C 
ATOM      4  C   UNL     1      -4.047  -1.896   1.205  0.00  0.00    -0.022 C 
ATOM      5  C   UNL     1      -3.262  -0.838   0.931  0.00  0.00    +0.008 C 
ATOM      6  C   UNL     1      -2.260  -1.119  -0.232  0.00  0.00    +0.130 C 
ATOM      7  C   UNL     1      -3.235  -1.453  -1.299  0.00  0.00    +0.221 C 
ATOM      8  C   UNL     1      -3.629  -2.915  -1.052  0.00  0.00    +0.045 C 
ATOM      9  C   UNL     1      -2.833  -4.027  -1.697  0.00  0.00    -0.003 C 
ATOM     10  C   UNL     1      -3.665  -5.311  -1.483  0.00  0.00    -0.078 C 
ATOM     11  C   UNL     1      -4.664  -4.341   0.574  0.00  0.00    -0.054 C 
ATOM     12  C   UNL     1      -6.067  -4.139  -0.008  0.00  0.00    +0.021 C 
ATOM     13  C   UNL     1      -6.102  -3.431  -1.323  0.00  0.00    -0.041 A 
ATOM     14  C   UNL     1      -4.953  -2.809  -1.732  0.00  0.00    +0.012 A 
ATOM     15  C   UNL     1      -4.740  -1.914  -2.784  0.00  0.00    +0.166 A 
ATOM     16  C   UNL     1      -5.816  -1.762  -3.648  0.00  0.00    +0.159 A 
ATOM     17  C   UNL     1      -6.985  -2.456  -3.323  0.00  0.00    +0.049 A 
ATOM     18  C   UNL     1      -7.154  -3.257  -2.199  0.00  0.00    +0.007 A 
ATOM     19  O   UNL     1      -3.460  -1.388  -2.680  0.00  0.00    -0.481 OA
ATOM     20  C   UNL     1      -4.794  -6.720   0.122  0.00  0.00    -0.096 C 
ATOM     21  N   UNL     1      -3.966  -5.519  -0.038  0.00  0.00    +0.381 N 
ATOM     22  H   UNL     1      -3.079  -5.661   0.459  0.00  0.00    -0.082 HD
ENDROOT
BRANCH   1  23
ATOM     23  C   UNL     1      -0.547  -2.796  -0.887  0.00  0.00    +0.069 C 
ATOM     24  C   UNL     1      -0.092  -4.226  -0.591  0.00  0.00    +0.041 C 
BRANCH  23  25
ATOM     25  O   UNL     1      -1.311  -2.779  -2.095  0.00  0.00    -0.388 OA
ATOM     26  H   UNL     1      -1.466  -1.893  -2.450  0.00  0.00    +0.210 HD
ENDBRANCH  23  25
BRANCH  23  27
ATOM     27  C   UNL     1       0.678  -1.893  -1.046  0.00  0.00    +0.034 C 
BRANCH  27  29
ATOM     28  C   UNL     1       2.782  -1.519  -2.341  0.00  0.00    +0.004 C 
ATOM     29  C   UNL     1       1.557  -2.422  -2.182  0.00  0.00    -0.001 C 
ENDBRANCH  27  29
ENDBRANCH  23  27
ENDBRANCH   1  23
BRANCH  16  30
ATOM     30  O   UNL     1      -5.737  -0.976  -4.755  0.00  0.00    -0.503 OA
ATOM     31  H   UNL     1      -5.434  -1.440  -5.547  0.00  0.00    +0.292 HD
ENDBRANCH  16  30
BRANCH   6  32
ATOM     32  O   UNL     1      -1.466   0.022  -0.565  0.00  0.00    -0.368 OA
ATOM     33  C   UNL     1      -2.222   1.214  -0.781  0.00  0.00    +0.195 C 
ENDBRANCH   6  32
TORSDOF 6
