REMARK  Name = ZINC27521960
REMARK  7 active torsions:
REMARK  status: ('A' for Active; 'I' for Inactive)
REMARK    1  A    between atoms: C_1  and  C_2
REMARK    2  A    between atoms: C_5  and  N_9
REMARK    3  A    between atoms: C_10  and  C_12
REMARK    4  A    between atoms: C_12  and  N_23
REMARK    5  A    between atoms: C_13  and  C_14
REMARK    6  A    between atoms: C_18  and  N_20
REMARK    7  A    between atoms: C_24  and  C_26
REMARK                            x       y       z     vdW  Elec       q    Type
REMARK                         _______ _______ _______ _____ _____    ______ ____
ROOT
ATOM      1  C   UNL     1      -4.738   3.679  -0.238  0.00  0.00    +0.097 C 
ATOM      2  C   UNL     1      -4.817   5.027  -0.326  0.00  0.00    +0.036 C 
ENDROOT
BRANCH   2   3
ATOM      3  C   UNL     1      -6.094   5.667  -0.677  0.00  0.00    -0.021 A 
ATOM      4  C   UNL     1      -7.092   4.935  -1.329  0.00  0.00    +0.008 A 
ATOM      5  C   UNL     1      -8.288   5.541  -1.650  0.00  0.00    +0.003 A 
ATOM      6  C   UNL     1      -8.498   6.873  -1.341  0.00  0.00    +0.033 A 
ATOM      7  C   UNL     1      -7.514   7.606  -0.702  0.00  0.00    +0.127 A 
ATOM      8  C   UNL     1      -6.314   7.013  -0.368  0.00  0.00    +0.040 A 
BRANCH   7   9
ATOM      9  N   UNL     1      -7.749   9.031  -0.375  0.00  0.00    +0.056 N 
ATOM     10  O   UNL     1      -6.883   9.678   0.187  0.00  0.00    -0.126 OA
ATOM     11  O   UNL     1      -8.808   9.556  -0.669  0.00  0.00    -0.126 OA
ENDBRANCH   7   9
ENDBRANCH   2   3
BRANCH   1  13
ATOM     12  N   UNL     1      -2.320   3.781   0.085  0.00  0.00    -0.280 N 
ATOM     13  C   UNL     1      -3.435   3.032  -0.024  0.00  0.00    +0.262 C 
ATOM     14  O   UNL     1      -3.364   1.820   0.054  0.00  0.00    -0.268 OA
ATOM     15  H   UNL     1      -2.394   4.879   0.095  0.00  0.00    +0.155 HD
BRANCH  12  20
ATOM     16  C   UNL     1       2.755   1.279   0.496  0.00  0.00    +0.047 C 
ATOM     17  C   UNL     1       1.407   1.943   0.386  0.00  0.00    -0.015 A 
ATOM     18  C   UNL     1       1.177   3.148   1.026  0.00  0.00    +0.008 A 
ATOM     19  C   UNL     1      -0.059   3.756   0.933  0.00  0.00    +0.024 A 
ATOM     20  C   UNL     1      -1.070   3.164   0.186  0.00  0.00    +0.036 A 
ATOM     21  C   UNL     1      -0.838   1.954  -0.456  0.00  0.00    +0.062 A 
ATOM     22  C   UNL     1       0.400   1.346  -0.354  0.00  0.00    +0.128 A 
ATOM     23  F   UNL     1       0.628   0.170  -0.979  0.00  0.00    -0.205 F 
ENDBRANCH  12  20
ENDBRANCH   1  13
BRANCH   1  24
ATOM     24  N   UNL     1      -5.894   2.902  -0.352  0.00  0.00    -0.277 N 
ATOM     25  C   UNL     1      -5.976   1.952  -1.304  0.00  0.00    +0.250 C 
ATOM     26  O   UNL     1      -5.016   1.714  -2.010  0.00  0.00    -0.270 OA
ATOM     27  H   UNL     1      -6.737   3.066   0.336  0.00  0.00    +0.155 HD
BRANCH  25  28
ATOM     28  C   UNL     1      -7.233   1.200  -1.489  0.00  0.00    +0.055 A 
ATOM     29  C   UNL     1      -8.373   1.548  -0.759  0.00  0.00    +0.017 A 
ATOM     30  C   UNL     1      -9.543   0.843  -0.936  0.00  0.00    +0.039 A 
ATOM     31  C   UNL     1      -9.593  -0.211  -1.837  0.00  0.00    +0.125 A 
ATOM     32  C   UNL     1      -8.466  -0.562  -2.564  0.00  0.00    +0.059 A 
ATOM     33  C   UNL     1      -7.289   0.141  -2.399  0.00  0.00    +0.056 A 
ATOM     34 CL   UNL     1      -5.881  -0.295  -3.316  0.00  0.00    -0.083 Cl
ATOM     35  F   UNL     1     -10.743  -0.898  -2.007  0.00  0.00    -0.205 F 
ENDBRANCH  25  28
ENDBRANCH   1  24
TORSDOF 6
