REMARK  Name = ZINC09937067
REMARK  14 active torsions:
REMARK  status: ('A' for Active; 'I' for Inactive)
REMARK    1  A    between atoms: C_1  and  C_2
REMARK    2  A    between atoms: C_2  and  C_3
REMARK    3  A    between atoms: C_3  and  C_4
REMARK    4  A    between atoms: C_4  and  C_5
REMARK    5  A    between atoms: C_8  and  N_11
REMARK    6  A    between atoms: C_12  and  S_16
REMARK    7  A    between atoms: S_16  and  C_17
REMARK    8  A    between atoms: C_17  and  C_18
REMARK    9  A    between atoms: C_18  and  C_20
REMARK   10  A    between atoms: C_21  and  N_33
REMARK   11  A    between atoms: N_22  and  C_29
REMARK   12  A    between atoms: C_29  and  C_30
REMARK   13  A    between atoms: C_30  and  O_31
REMARK   14  A    between atoms: O_31  and  C_32
REMARK                            x       y       z     vdW  Elec       q    Type
REMARK                         _______ _______ _______ _____ _____    ______ ____
ROOT
ATOM      1  C   UNL     1      -4.135   2.613  -2.580  0.00  0.00    +0.182 C 
ATOM      2  O   UNL     1      -4.274   3.319  -1.602  0.00  0.00    -0.291 OA
ENDROOT
BRANCH   1   3
ATOM      3  C   UNL     1      -3.424   1.398  -2.478  0.00  0.00    +0.120 A 
ATOM      4  C   UNL     1      -2.764   1.042  -1.289  0.00  0.00    +0.116 A 
ATOM      5  N   UNL     1      -2.085  -0.142  -1.240  0.00  0.00    -0.279 N 
ATOM      6  C   UNL     1      -2.046  -0.968  -2.297  0.00  0.00    +0.331 A 
ATOM      7  O   UNL     1      -1.431  -2.013  -2.201  0.00  0.00    -0.246 OA
ATOM      8  N   UNL     1      -2.660  -0.683  -3.457  0.00  0.00    -0.274 N 
ATOM      9  H   UNL     1      -2.602  -1.329  -4.218  0.00  0.00    +0.173 HD
ATOM     10  C   UNL     1      -3.353   0.464  -3.609  0.00  0.00    +0.266 A 
ATOM     11  O   UNL     1      -3.909   0.720  -4.661  0.00  0.00    -0.267 OA
BRANCH   4  12
ATOM     12  N   UNL     1      -2.798   1.865  -0.206  0.00  0.00    -0.344 N 
ATOM     13  H   UNL     1      -2.944   2.816  -0.324  0.00  0.00    +0.144 HD
ATOM     14  H   UNL     1      -2.675   1.500   0.684  0.00  0.00    +0.144 HD
ENDBRANCH   4  12
BRANCH   5  15
ATOM     15  C   UNL     1      -1.390  -0.521  -0.007  0.00  0.00    +0.156 C 
BRANCH  15  16
ATOM     16  C   UNL     1       0.046   0.006  -0.048  0.00  0.00    +0.181 C 
BRANCH  16  17
ATOM     17  O   UNL     1       0.029   1.435  -0.049  0.00  0.00    -0.381 OA
ATOM     18  C   UNL     1       1.327   2.031  -0.086  0.00  0.00    +0.194 C 
ENDBRANCH  16  17
ENDBRANCH  15  16
ENDBRANCH   5  15
ENDBRANCH   1   3
BRANCH   1  19
ATOM     19  C   UNL     1      -4.721   3.034  -3.903  0.00  0.00    +0.157 C 
BRANCH  19  20
ATOM     20  S   UNL     1      -5.565   4.623  -3.710  0.00  0.00    -0.076 S 
BRANCH  20  22
ATOM     21  N   UNL     1      -6.859   5.923  -5.814  0.00  0.00    -0.187 N 
ATOM     22  C   UNL     1      -6.138   4.868  -5.359  0.00  0.00    +0.214 A 
ATOM     23  N   UNL     1      -5.952   4.058  -6.379  0.00  0.00    -0.101 NA
ATOM     24  N   UNL     1      -6.500   4.535  -7.438  0.00  0.00    -0.022 NA
ATOM     25  N   UNL     1      -7.068   5.664  -7.180  0.00  0.00    -0.038 NA
BRANCH  21  29
ATOM     26  C   UNL     1      -8.168   9.226  -3.634  0.00  0.00    -0.047 A 
ATOM     27  C   UNL     1      -7.790   9.377  -4.955  0.00  0.00    +0.006 A 
ATOM     28  C   UNL     1      -7.356   8.285  -5.680  0.00  0.00    +0.028 A 
ATOM     29  C   UNL     1      -7.299   7.034  -5.081  0.00  0.00    +0.070 A 
ATOM     30  C   UNL     1      -7.684   6.884  -3.756  0.00  0.00    +0.028 A 
ATOM     31  C   UNL     1      -8.113   7.981  -3.034  0.00  0.00    +0.006 A 
BRANCH  26  32
ATOM     32  C   UNL     1      -8.642  10.420  -2.846  0.00  0.00    +0.035 C 
BRANCH  32  33
ATOM     33  C   UNL     1     -10.158  10.562  -2.997  0.00  0.00    +0.004 C 
BRANCH  33  35
ATOM     34  C   UNL     1     -12.154  11.917  -2.348  0.00  0.00    +0.004 C 
ATOM     35  C   UNL     1     -10.638  11.775  -2.197  0.00  0.00    -0.003 C 
ENDBRANCH  33  35
ENDBRANCH  32  33
ENDBRANCH  26  32
ENDBRANCH  21  29
ENDBRANCH  20  22
ENDBRANCH  19  20
ENDBRANCH   1  19
TORSDOF 12
