REMARK  Name = ZINC04236807
REMARK  15 active torsions:
REMARK  status: ('A' for Active; 'I' for Inactive)
REMARK    1  A    between atoms: C_1  and  C_2
REMARK    2  A    between atoms: C_5  and  O_30
REMARK    3  A    between atoms: C_7  and  C_27
REMARK    4  A    between atoms: C_7  and  C_28
REMARK    5  A    between atoms: C_12  and  O_26
REMARK    6  A    between atoms: C_14  and  C_16
REMARK    7  A    between atoms: C_16  and  C_17
REMARK    8  A    between atoms: C_22  and  O_25
REMARK    9  A    between atoms: C_28  and  O_29
REMARK   10  A    between atoms: O_30  and  C_31
REMARK   11  A    between atoms: N_33  and  C_34
REMARK   12  A    between atoms: C_36  and  O_42
REMARK   13  A    between atoms: C_38  and  O_40
REMARK   14  A    between atoms: O_40  and  C_41
REMARK   15  A    between atoms: O_42  and  C_43
REMARK                            x       y       z     vdW  Elec       q    Type
REMARK                         _______ _______ _______ _____ _____    ______ ____
ROOT
ATOM      1  C   UNL     1      -1.323  -0.373   0.962  0.00  0.00    +0.012 C 
ATOM      2  C   UNL     1      -1.001  -0.649  -0.508  0.00  0.00    -0.023 C 
ATOM      3  C   UNL     1      -1.100  -2.152  -0.778  0.00  0.00    +0.011 C 
ATOM      4  C   UNL     1      -2.519  -2.633  -0.467  0.00  0.00    +0.046 C 
ATOM      5  C   UNL     1      -3.517  -1.888  -1.356  0.00  0.00    +0.186 C 
ATOM      6  C   UNL     1      -3.417  -0.385  -1.086  0.00  0.00    +0.031 C 
ATOM      7  C   UNL     1      -1.998   0.096  -1.397  0.00  0.00    +0.007 C 
ATOM      8  C   UNL     1      -1.676  -0.181  -2.867  0.00  0.00    +0.007 C 
ATOM      9  C   UNL     1      -0.258   0.300  -3.178  0.00  0.00    +0.032 C 
ATOM     10  C   UNL     1       0.740  -0.445  -2.288  0.00  0.00    +0.119 C 
ATOM     11  C   UNL     1       0.418  -0.169  -0.818  0.00  0.00    +0.032 C 
ATOM     12  C   UNL     1      -4.414   0.360  -1.976  0.00  0.00    +0.017 C 
ENDROOT
BRANCH  10  13
ATOM     13  O   UNL     1       2.065   0.004  -2.579  0.00  0.00    -0.391 OA
ATOM     14  H   UNL     1       2.337  -0.140  -3.495  0.00  0.00    +0.210 HD
ENDBRANCH  10  13
BRANCH  11  15
ATOM     15  C   UNL     1       0.518   1.334  -0.548  0.00  0.00    +0.102 C 
BRANCH  15  16
ATOM     16  C   UNL     1       1.968   1.734  -0.460  0.00  0.00    +0.216 C 
ATOM     17  O   UNL     1       2.831   0.882  -0.432  0.00  0.00    -0.276 OA
ATOM     18  N   UNL     1       2.306   3.038  -0.413  0.00  0.00    -0.299 N 
ATOM     19  C   UNL     1       1.364   4.171  -0.445  0.00  0.00    +0.110 C 
ATOM     20  C   UNL     1       2.126   5.336   0.240  0.00  0.00    +0.052 C 
ATOM     21  C   UNL     1       3.572   5.104  -0.271  0.00  0.00    +0.133 C 
ATOM     22  C   UNL     1       3.676   3.565  -0.326  0.00  0.00    +0.139 C 
BRANCH  21  23
ATOM     23  O   UNL     1       4.525   5.642   0.646  0.00  0.00    -0.390 OA
ATOM     24  H   UNL     1       4.501   6.606   0.718  0.00  0.00    +0.210 HD
ENDBRANCH  21  23
ENDBRANCH  15  16
ENDBRANCH  11  15
BRANCH   6  25
ATOM     25  C   UNL     1      -3.739  -0.109   0.384  0.00  0.00    +0.166 C 
BRANCH  25  26
ATOM     26  O   UNL     1      -5.118  -0.391   0.631  0.00  0.00    -0.394 OA
ATOM     27  H   UNL     1      -5.393  -0.237   1.545  0.00  0.00    +0.209 HD
ENDBRANCH  25  26
ENDBRANCH   6  25
BRANCH   5  28
ATOM     28  O   UNL     1      -4.863  -2.345  -1.061  0.00  0.00    -0.446 OA
BRANCH  28  29
ATOM     29  C   UNL     1      -5.323  -3.391  -1.773  0.00  0.00    +0.405 C 
ATOM     30  O   UNL     1      -4.619  -3.909  -2.617  0.00  0.00    -0.226 OA
ATOM     31  N   UNL     1      -6.565  -3.865  -1.548  0.00  0.00    -0.251 N 
ATOM     32  H   UNL     1      -7.101  -3.497  -0.829  0.00  0.00    +0.158 HD
BRANCH  31  33
ATOM     33  C   UNL     1      -7.080  -4.886  -2.354  0.00  0.00    +0.043 A 
ATOM     34  C   UNL     1      -6.720  -4.964  -3.692  0.00  0.00    +0.069 A 
ATOM     35  C   UNL     1      -7.226  -5.980  -4.488  0.00  0.00    +0.125 A 
ATOM     36  C   UNL     1      -8.101  -6.912  -3.951  0.00  0.00    +0.091 A 
ATOM     37  C   UNL     1      -8.467  -6.831  -2.615  0.00  0.00    +0.125 A 
ATOM     38  C   UNL     1      -7.957  -5.819  -1.817  0.00  0.00    +0.069 A 
BRANCH  37  39
ATOM     39  O   UNL     1      -9.325  -7.745  -2.089  0.00  0.00    -0.495 OA
ATOM     40  C   UNL     1      -9.811  -8.760  -2.969  0.00  0.00    +0.277 C 
ENDBRANCH  37  39
BRANCH  35  41
ATOM     41  O   UNL     1      -6.868  -6.060  -5.797  0.00  0.00    -0.495 OA
ATOM     42  C   UNL     1      -7.432  -7.129  -6.559  0.00  0.00    +0.277 C 
ENDBRANCH  35  41
ENDBRANCH  31  33
ENDBRANCH  28  29
ENDBRANCH   5  28
TORSDOF 11
