REMARK  Name = ZINC13805785
REMARK  8 active torsions:
REMARK  status: ('A' for Active; 'I' for Inactive)
REMARK    1  A    between atoms: C_1  and  C_2
REMARK    2  A    between atoms: C_2  and  C_10
REMARK    3  A    between atoms: C_3  and  C_4
REMARK    4  A    between atoms: N_11  and  N_12
REMARK    5  A    between atoms: C_13  and  C_15
REMARK    6  A    between atoms: C_16  and  C_26
REMARK    7  A    between atoms: C_26  and  S_27
REMARK    8  A    between atoms: S_27  and  C_28
REMARK                            x       y       z     vdW  Elec       q    Type
REMARK                         _______ _______ _______ _____ _____    ______ ____
ROOT
ATOM      1  C   UNL     1      -2.222   5.752  -0.133  0.00  0.00    +0.173 A 
ATOM      2  C   UNL     1      -3.313   6.574  -0.141  0.00  0.00    +0.089 A 
ATOM      3  N   UNL     1      -2.846   7.842  -0.171  0.00  0.00    -0.191 N 
ATOM      4  N   UNL     1      -1.446   7.758  -0.182  0.00  0.00    -0.058 NA
ATOM      5  N   UNL     1      -1.114   6.514  -0.153  0.00  0.00    -0.124 NA
ATOM      6  C   UNL     1      -3.611   9.013  -0.189  0.00  0.00    +0.240 A 
ATOM      7  C   UNL     1      -3.086  10.381  -0.222  0.00  0.00    +0.206 A 
ATOM      8  N   UNL     1      -4.095  11.208  -0.230  0.00  0.00    -0.032 NA
ATOM      9  O   UNL     1      -5.285  10.440  -0.203  0.00  0.00    -0.239 OA
ATOM     10  N   UNL     1      -4.913   9.074  -0.184  0.00  0.00    -0.027 NA
ATOM     11  N   UNL     1      -1.742  10.737  -0.240  0.00  0.00    -0.337 N 
ATOM     12  H   UNL     1      -1.058  10.049  -0.231  0.00  0.00    +0.144 HD
ATOM     13  H   UNL     1      -1.488  11.673  -0.262  0.00  0.00    +0.144 HD
ENDROOT
BRANCH   1  15
ATOM     14  N   UNL     1      -1.101   3.579  -0.098  0.00  0.00    -0.202 N 
ATOM     15  C   UNL     1      -2.253   4.278  -0.103  0.00  0.00    +0.285 C 
ATOM     16  O   UNL     1      -3.320   3.693  -0.081  0.00  0.00    -0.267 OA
ATOM     17  H   UNL     1      -0.251   4.046  -0.115  0.00  0.00    +0.178 HD
BRANCH  14  19
ATOM     18  C   UNL     1      -0.017   1.503  -0.065  0.00  0.00    +0.133 C 
ATOM     19  N   UNL     1      -1.131   2.179  -0.069  0.00  0.00    -0.188 NA
BRANCH  18  21
ATOM     20  C   UNL     1      -1.369  -0.639  -0.002  0.00  0.00    +0.045 C 
ATOM     21  C   UNL     1      -0.048   0.086  -0.035  0.00  0.00    -0.030 C 
ATOM     22  C   UNL     1       1.105  -0.614  -0.036  0.00  0.00    +0.012 C 
BRANCH  22  23
ATOM     23  C   UNL     1       1.077  -2.079  -0.175  0.00  0.00    -0.025 A 
ATOM     24  C   UNL     1       2.043  -2.863   0.463  0.00  0.00    +0.008 A 
ATOM     25  C   UNL     1       2.006  -4.236   0.334  0.00  0.00    +0.001 A 
ATOM     26  C   UNL     1       1.024  -4.836  -0.435  0.00  0.00    +0.000 A 
ATOM     27  C   UNL     1       0.069  -4.066  -1.074  0.00  0.00    +0.001 A 
ATOM     28  C   UNL     1       0.088  -2.693  -0.949  0.00  0.00    +0.008 A 
ENDBRANCH  22  23
ENDBRANCH  18  21
ENDBRANCH  14  19
ENDBRANCH   1  15
BRANCH   2  29
ATOM     29  C   UNL     1      -4.759   6.149  -0.119  0.00  0.00    +0.132 C 
BRANCH  29  30
ATOM     30  S   UNL     1      -5.353   5.942  -1.820  0.00  0.00    -0.119 S 
BRANCH  30  31
ATOM     31  C   UNL     1      -7.035   5.451  -1.627  0.00  0.00    +0.008 A 
ATOM     32  C   UNL     1      -7.577   5.309  -0.356  0.00  0.00    +0.016 A 
ATOM     33  C   UNL     1      -8.896   4.929  -0.208  0.00  0.00    +0.021 A 
ATOM     34  C   UNL     1      -9.675   4.679  -1.324  0.00  0.00    +0.041 A 
ATOM     35  C   UNL     1      -9.136   4.814  -2.592  0.00  0.00    +0.021 A 
ATOM     36  C   UNL     1      -7.819   5.200  -2.746  0.00  0.00    +0.016 A 
ATOM     37 CL   UNL     1     -11.332   4.196  -1.134  0.00  0.00    -0.084 Cl
ENDBRANCH  30  31
ENDBRANCH  29  30
ENDBRANCH   2  29
TORSDOF 7
