REMARK  Name = ZINC61892386
REMARK  6 active torsions:
REMARK  status: ('A' for Active; 'I' for Inactive)
REMARK    1  A    between atoms: C_1  and  C_2
REMARK    2  A    between atoms: C_2  and  C_4
REMARK    3  A    between atoms: C_2  and  N_14
REMARK    4  A    between atoms: C_7  and  N_10
REMARK    5  A    between atoms: N_14  and  C_15
REMARK    6  A    between atoms: C_20  and  C_22
REMARK                            x       y       z     vdW  Elec       q    Type
REMARK                         _______ _______ _______ _____ _____    ______ ____
ROOT
ATOM      1  C   UNL     1       0.730  -0.485   1.231  0.00  0.00    -0.031 A 
ATOM      2  C   UNL     1       0.143  -0.382   2.479  0.00  0.00    +0.007 A 
ATOM      3  C   UNL     1       0.809  -0.845   3.597  0.00  0.00    +0.023 A 
ATOM      4  C   UNL     1       2.069  -1.414   3.467  0.00  0.00    +0.035 A 
ATOM      5  C   UNL     1       2.655  -1.516   2.213  0.00  0.00    +0.023 A 
ATOM      6  C   UNL     1       1.982  -1.057   1.098  0.00  0.00    +0.007 A 
ENDROOT
BRANCH   4   7
ATOM      7  N   UNL     1       2.746  -1.883   4.598  0.00  0.00    -0.270 N 
ATOM      8  C   UNL     1       2.054  -2.412   5.627  0.00  0.00    +0.301 C 
ATOM      9  O   UNL     1       0.853  -2.571   5.534  0.00  0.00    -0.253 OA
ATOM     10  N   UNL     1       2.695  -2.765   6.759  0.00  0.00    -0.313 N 
ATOM     11  H   UNL     1       3.713  -1.827   4.642  0.00  0.00    +0.156 HD
ATOM     12  H   UNL     1       3.654  -2.639   6.833  0.00  0.00    +0.146 HD
ATOM     13  H   UNL     1       2.197  -3.146   7.499  0.00  0.00    +0.146 HD
ENDBRANCH   4   7
BRANCH   1  15
ATOM     14  C   UNL     1       0.162   1.539  -0.084  0.00  0.00    +0.029 C 
ATOM     15  C   UNL     1       0.000   0.020   0.013  0.00  0.00    +0.081 C 
BRANCH  15  16
ATOM     16  N   UNL     1      -1.426  -0.314   0.122  0.00  0.00    -0.306 NA
ATOM     17  H   UNL     1      -1.558  -1.171   0.638  0.00  0.00    +0.123 HD
BRANCH  16  18
ATOM     18  C   UNL     1      -2.051  -0.396  -1.204  0.00  0.00    +0.071 C 
ATOM     19  C   UNL     1      -2.536   1.000  -1.647  0.00  0.00    +0.020 C 
ATOM     20  C   UNL     1      -3.864   0.721  -2.394  0.00  0.00    +0.003 C 
ATOM     21  C   UNL     1      -4.496  -0.417  -1.555  0.00  0.00    +0.020 C 
ATOM     22  C   UNL     1      -3.296  -1.298  -1.146  0.00  0.00    +0.108 C 
BRANCH  22  23
ATOM     23  C   UNL     1      -3.486  -1.807   0.222  0.00  0.00    +0.067 C 
ATOM     24  N   UNL     1      -3.633  -2.199   1.278  0.00  0.00    -0.196 NA
ENDBRANCH  22  23
ENDBRANCH  16  18
ENDBRANCH  15  16
ENDBRANCH   1  15
TORSDOF 5
