REMARK  Name = ZINC12501367
REMARK  9 active torsions:
REMARK  status: ('A' for Active; 'I' for Inactive)
REMARK    1  A    between atoms: C_4  and  O_36
REMARK    2  A    between atoms: C_5  and  C_7
REMARK    3  A    between atoms: C_7  and  C_9
REMARK    4  A    between atoms: C_12  and  C_15
REMARK    5  A    between atoms: C_15  and  O_17
REMARK    6  A    between atoms: O_17  and  C_18
REMARK    7  A    between atoms: C_24  and  N_26
REMARK    8  A    between atoms: C_27  and  C_29
REMARK    9  A    between atoms: C_32  and  O_35
REMARK                            x       y       z     vdW  Elec       q    Type
REMARK                         _______ _______ _______ _____ _____    ______ ____
ROOT
ATOM      1  C   UNL     1       0.845  -6.403  -0.295  0.00  0.00    +0.195 C 
ATOM      2  C   UNL     1       0.621  -6.836  -1.670  0.00  0.00    +0.044 C 
ATOM      3  C   UNL     1       0.442  -8.365  -1.778  0.00  0.00    -0.015 C 
ATOM      4  C   UNL     1       1.798  -9.011  -1.708  0.00  0.00    -0.082 C 
ATOM      5  C   UNL     1       1.826  -8.436   0.716  0.00  0.00    -0.056 C 
ATOM      6  C   UNL     1       2.126  -7.019   0.307  0.00  0.00    +0.097 C 
ATOM      7  N   UNL     1       2.186  -9.452  -0.327  0.00  0.00    +0.380 N 
ATOM      8  H   UNL     1       3.201  -9.606  -0.302  0.00  0.00    -0.086 HD
ATOM      9  H   UNL     1       1.701 -10.332  -0.113  0.00  0.00    -0.086 HD
ENDROOT
BRANCH   6  10
ATOM     10  N   UNL     1       2.539  -6.246   1.480  0.00  0.00    -0.307 N 
ATOM     11  C   UNL     1       3.830  -6.247   1.867  0.00  0.00    +0.244 C 
ATOM     12  O   UNL     1       4.651  -6.890   1.243  0.00  0.00    -0.270 OA
ATOM     13  H   UNL     1       1.884  -5.733   1.978  0.00  0.00    +0.149 HD
BRANCH  11  14
ATOM     14  C   UNL     1       4.247  -5.468   3.050  0.00  0.00    +0.037 A 
ATOM     15  C   UNL     1       3.305  -4.724   3.766  0.00  0.00    +0.016 A 
ATOM     16  C   UNL     1       3.697  -4.002   4.871  0.00  0.00    +0.046 A 
ATOM     17  C   UNL     1       5.029  -4.005   5.269  0.00  0.00    +0.117 A 
ATOM     18  C   UNL     1       5.969  -4.739   4.556  0.00  0.00    +0.046 A 
ATOM     19  C   UNL     1       5.584  -5.468   3.453  0.00  0.00    +0.016 A 
BRANCH  17  20
ATOM     20  O   UNL     1       5.412  -3.288   6.356  0.00  0.00    -0.507 OA
ATOM     21  H   UNL     1       5.678  -2.381   6.155  0.00  0.00    +0.292 HD
ENDBRANCH  17  20
ENDBRANCH  11  14
ENDBRANCH   6  10
BRANCH   1  22
ATOM     22  O   UNL     1       0.961  -4.956  -0.270  0.00  0.00    -0.456 OA
BRANCH  22  23
ATOM     23  C   UNL     1      -0.179  -4.254  -0.122  0.00  0.00    +0.340 C 
ATOM     24  O   UNL     1      -1.240  -4.834  -0.018  0.00  0.00    -0.245 OA
BRANCH  23  28
ATOM     25  C   UNL     1      -0.059  -0.003  -0.024  0.00  0.00    +0.022 A 
ATOM     26  C   UNL     1       1.121  -0.731  -0.183  0.00  0.00    +0.012 A 
ATOM     27  C   UNL     1       1.083  -2.108  -0.209  0.00  0.00    +0.015 A 
ATOM     28  C   UNL     1      -0.137  -2.776  -0.088  0.00  0.00    +0.059 A 
ATOM     29  C   UNL     1      -1.319  -2.047   0.065  0.00  0.00    +0.015 A 
ATOM     30  C   UNL     1      -1.280  -0.670   0.097  0.00  0.00    +0.012 A 
BRANCH  25  31
ATOM     31  C   UNL     1      -0.018   1.476   0.010  0.00  0.00    +0.197 C 
ATOM     32  O   UNL     1       0.792   2.077  -0.668  0.00  0.00    -0.287 OA
BRANCH  31  37
ATOM     33  C   UNL     1      -2.668   2.235   2.556  0.00  0.00    +0.001 A 
ATOM     34  C   UNL     1      -2.720   3.619   2.491  0.00  0.00    +0.004 A 
ATOM     35  C   UNL     1      -1.897   4.309   1.623  0.00  0.00    +0.046 A 
ATOM     36  C   UNL     1      -1.008   3.620   0.812  0.00  0.00    +0.128 A 
ATOM     37  C   UNL     1      -0.955   2.219   0.871  0.00  0.00    +0.064 A 
ATOM     38  C   UNL     1      -1.794   1.534   1.755  0.00  0.00    +0.015 A 
BRANCH  36  39
ATOM     39  O   UNL     1      -0.195   4.297  -0.037  0.00  0.00    -0.506 OA
ATOM     40  H   UNL     1      -0.577   4.444  -0.914  0.00  0.00    +0.292 HD
ENDBRANCH  36  39
ENDBRANCH  31  37
ENDBRANCH  25  31
ENDBRANCH  23  28
ENDBRANCH  22  23
ENDBRANCH   1  22
TORSDOF 9
