REMARK  Name = ZINC39631546
REMARK  12 active torsions:
REMARK  status: ('A' for Active; 'I' for Inactive)
REMARK    1  A    between atoms: C_1  and  C_2
REMARK    2  A    between atoms: C_2  and  C_4
REMARK    3  A    between atoms: C_2  and  N_11
REMARK    4  A    between atoms: C_4  and  C_5
REMARK    5  A    between atoms: C_5  and  C_6
REMARK    6  A    between atoms: C_6  and  C_7
REMARK    7  A    between atoms: C_7  and  C_8
REMARK    8  A    between atoms: C_7  and  C_9
REMARK    9  A    between atoms: C_7  and  O_10
REMARK   10  A    between atoms: C_12  and  C_14
REMARK   11  A    between atoms: C_25  and  C_27
REMARK   12  A    between atoms: C_27  and  C_28
REMARK                            x       y       z     vdW  Elec       q    Type
REMARK                         _______ _______ _______ _____ _____    ______ ____
ROOT
ATOM      1  C   UNL     1       2.783  -1.099   2.395  0.00  0.00    +0.100 C 
ATOM      2  C   UNL     1       2.678  -0.070   3.542  0.00  0.00    +0.121 C 
ATOM      3  N   UNL     1       3.999  -0.120   4.212  0.00  0.00    -0.300 N 
ATOM      4  C   UNL     1       4.971  -0.257   3.101  0.00  0.00    +0.115 C 
ATOM      5  C   UNL     1       4.289  -1.218   2.107  0.00  0.00    -0.004 C 
ATOM      6  C   UNL     1       4.761  -2.649   2.350  0.00  0.00    -0.010 C 
ATOM      7  C   UNL     1       6.249  -2.756   2.003  0.00  0.00    -0.082 C 
ATOM      8  N   UNL     1       6.454  -2.382   0.598  0.00  0.00    +0.379 N 
ATOM      9  C   UNL     1       6.084  -0.977   0.394  0.00  0.00    -0.082 C 
ATOM     10  C   UNL     1       4.589  -0.795   0.673  0.00  0.00    -0.010 C 
ATOM     11  C   UNL     1       4.258  -0.056   5.533  0.00  0.00    +0.220 C 
ATOM     12  O   UNL     1       5.403  -0.110   5.929  0.00  0.00    -0.275 OA
ATOM     13  H   UNL     1       7.425  -2.512   0.356  0.00  0.00    -0.086 HD
ATOM     14  H   UNL     1       5.881  -2.968   0.009  0.00  0.00    -0.086 HD
ENDROOT
BRANCH   1  16
ATOM     15  N   UNL     1       1.507  -1.478   0.310  0.00  0.00    -0.312 N 
ATOM     16  C   UNL     1       2.054  -0.600   1.174  0.00  0.00    +0.218 C 
ATOM     17  O   UNL     1       1.960   0.592   0.969  0.00  0.00    -0.275 OA
ATOM     18  H   UNL     1       1.582  -2.431   0.473  0.00  0.00    +0.149 HD
BRANCH  15  20
ATOM     19  C   UNL     1      -0.653  -0.674  -0.510  0.00  0.00    +0.028 C 
ATOM     20  C   UNL     1       0.798  -0.992  -0.877  0.00  0.00    +0.070 C 
BRANCH  20  21
ATOM     21  C   UNL     1       0.825  -2.070  -1.963  0.00  0.00    +0.022 C 
BRANCH  21  22
ATOM     22  C   UNL     1       2.267  -2.299  -2.419  0.00  0.00    +0.005 C 
BRANCH  22  23
ATOM     23  C   UNL     1       2.294  -3.377  -3.505  0.00  0.00    +0.034 C 
BRANCH  23  24
ATOM     24  C   UNL     1       3.736  -3.607  -3.960  0.00  0.00    +0.061 C 
ATOM     25  C   UNL     1       3.751  -4.592  -5.131  0.00  0.00    +0.041 C 
ATOM     26  C   UNL     1       4.348  -2.277  -4.405  0.00  0.00    +0.041 C 
BRANCH  24  27
ATOM     27  O   UNL     1       4.498  -4.143  -2.877  0.00  0.00    -0.389 OA
ATOM     28  H   UNL     1       5.425  -4.314  -3.094  0.00  0.00    +0.210 HD
ENDBRANCH  24  27
ENDBRANCH  23  24
ENDBRANCH  22  23
ENDBRANCH  21  22
ENDBRANCH  20  21
ENDBRANCH  15  20
ENDBRANCH   1  16
BRANCH  11  29
ATOM     29  C   UNL     1       3.126   0.084   6.517  0.00  0.00    +0.131 C 
BRANCH  29  30
ATOM     30  C   UNL     1       3.680   0.133   7.918  0.00  0.00    -0.039 A 
ATOM     31  C   UNL     1       3.857  -1.038   8.632  0.00  0.00    +0.005 A 
ATOM     32  C   UNL     1       4.366  -0.994   9.916  0.00  0.00    +0.020 A 
ATOM     33  C   UNL     1       4.698   0.222  10.487  0.00  0.00    +0.041 A 
ATOM     34  C   UNL     1       4.520   1.393   9.772  0.00  0.00    +0.020 A 
ATOM     35  C   UNL     1       4.017   1.347   8.486  0.00  0.00    +0.005 A 
ATOM     36 CL   UNL     1       5.336   0.278  12.100  0.00  0.00    -0.084 Cl
ENDBRANCH  29  30
ENDBRANCH  11  29
TORSDOF 9
