REMARK  Name = ZINC20768178
REMARK  8 active torsions:
REMARK  status: ('A' for Active; 'I' for Inactive)
REMARK    1  A    between atoms: C_6  and  C_7
REMARK    2  A    between atoms: N_9  and  C_10
REMARK    3  A    between atoms: C_10  and  C_11
REMARK    4  A    between atoms: C_11  and  C_12
REMARK    5  A    between atoms: C_21  and  C_24
REMARK    6  A    between atoms: C_24  and  S_25
REMARK    7  A    between atoms: S_25  and  C_28
REMARK    8  A    between atoms: C_28  and  C_29
REMARK                            x       y       z     vdW  Elec       q    Type
REMARK                         _______ _______ _______ _____ _____    ______ ____
ROOT
ATOM      1  C   UNL     1      -3.351  -2.453  -4.468  0.00  0.00    +0.015 A 
ATOM      2  C   UNL     1      -3.185  -1.127  -4.129  0.00  0.00    +0.025 A 
ATOM      3  C   UNL     1      -2.072  -0.431  -4.578  0.00  0.00    +0.049 A 
ATOM      4  C   UNL     1      -1.110  -1.069  -5.368  0.00  0.00    +0.055 A 
ATOM      5  C   UNL     1      -1.275  -2.395  -5.714  0.00  0.00    +0.038 A 
ATOM      6  C   UNL     1      -2.399  -3.095  -5.265  0.00  0.00    +0.039 A 
ATOM      7  N   UNL     1       0.022  -0.360  -5.791  0.00  0.00    -0.282 N 
ATOM      8  C   UNL     1       0.298   0.861  -5.292  0.00  0.00    +0.239 C 
ATOM      9  O   UNL     1       1.211   1.510  -5.758  0.00  0.00    -0.273 OA
ATOM     10  C   UNL     1      -0.519   1.428  -4.159  0.00  0.00    +0.178 C 
ATOM     11  N   UNL     1      -1.892   0.914  -4.251  0.00  0.00    -0.330 N 
ATOM     12  H   UNL     1       0.698  -0.799  -6.539  0.00  0.00    +0.155 HD
ATOM     13  H   UNL     1      -2.744   1.585  -4.065  0.00  0.00    +0.147 HD
ENDROOT
BRANCH   6  14
ATOM     14  C   UNL     1      -2.580  -4.513  -5.631  0.00  0.00    +0.244 C 
ATOM     15  O   UNL     1      -1.752  -5.072  -6.324  0.00  0.00    -0.270 OA
ATOM     16  N   UNL     1      -3.663  -5.188  -5.198  0.00  0.00    -0.311 N 
ATOM     17  H   UNL     1      -4.412  -4.682  -4.571  0.00  0.00    +0.149 HD
BRANCH  16  18
ATOM     18  C   UNL     1      -3.843  -6.595  -5.562  0.00  0.00    +0.109 C 
BRANCH  18  19
ATOM     19  C   UNL     1      -5.142  -7.119  -4.947  0.00  0.00    +0.049 C 
BRANCH  19  20
ATOM     20  C   UNL     1      -5.327  -8.567  -5.321  0.00  0.00    -0.072 C 
ATOM     21  C   UNL     1      -4.917  -9.467  -4.486  0.00  0.00    -0.028 C 
ATOM     22  C   UNL     1      -5.024 -10.945  -4.723  0.00  0.00    +0.027 C 
ATOM     23  C   UNL     1      -6.033 -11.229  -5.838  0.00  0.00    +0.004 C 
ATOM     24  C   UNL     1      -5.700 -10.329  -7.034  0.00  0.00    +0.005 C 
ATOM     25  C   UNL     1      -5.981  -8.876  -6.636  0.00  0.00    +0.030 C 
ENDBRANCH  19  20
ENDBRANCH  18  19
ENDBRANCH  16  18
ENDBRANCH   6  14
BRANCH  10  26
ATOM     26  C   UNL     1       0.097   1.007  -2.823  0.00  0.00    +0.198 C 
BRANCH  26  27
ATOM     27  S   UNL     1      -0.890   1.687  -1.462  0.00  0.00    -0.025 S 
ATOM     28  O   UNL     1      -2.177   1.084  -1.495  0.00  0.00    -0.174 OA
ATOM     29  O   UNL     1      -0.789   3.104  -1.497  0.00  0.00    -0.174 OA
BRANCH  27  30
ATOM     30  C   UNL     1      -0.013   1.086   0.008  0.00  0.00    +0.202 C 
BRANCH  30  31
ATOM     31  C   UNL     1      -0.718   1.572   1.248  0.00  0.00    -0.008 A 
ATOM     32  C   UNL     1      -1.719   0.808   1.817  0.00  0.00    +0.009 A 
ATOM     33  C   UNL     1      -2.367   1.252   2.954  0.00  0.00    +0.039 A 
ATOM     34  C   UNL     1      -2.014   2.464   3.523  0.00  0.00    +0.125 A 
ATOM     35  C   UNL     1      -1.011   3.229   2.953  0.00  0.00    +0.058 A 
ATOM     36  C   UNL     1      -0.359   2.780   1.819  0.00  0.00    +0.048 A 
ATOM     37 CL   UNL     1       0.903   3.735   1.107  0.00  0.00    -0.083 Cl
ATOM     38  F   UNL     1      -2.647   2.899   4.635  0.00  0.00    -0.205 F 
ENDBRANCH  30  31
ENDBRANCH  27  30
ENDBRANCH  26  27
ENDBRANCH  10  26
TORSDOF 8
