REMARK  Name = ZINC08846876
REMARK  14 active torsions:
REMARK  status: ('A' for Active; 'I' for Inactive)
REMARK    1  A    between atoms: C_1  and  C_2
REMARK    2  A    between atoms: C_2  and  C_3
REMARK    3  A    between atoms: C_3  and  C_4
REMARK    4  A    between atoms: C_4  and  C_5
REMARK    5  A    between atoms: C_8  and  N_11
REMARK    6  A    between atoms: C_13  and  C_18
REMARK    7  A    between atoms: C_18  and  O_20
REMARK    8  A    between atoms: O_20  and  C_21
REMARK    9  A    between atoms: C_21  and  C_22
REMARK   10  A    between atoms: N_24  and  C_25
REMARK   11  A    between atoms: C_26  and  C_36
REMARK   12  A    between atoms: C_31  and  C_35
REMARK   13  A    between atoms: C_36  and  O_38
REMARK   14  A    between atoms: O_38  and  C_39
REMARK                            x       y       z     vdW  Elec       q    Type
REMARK                         _______ _______ _______ _____ _____    ______ ____
ROOT
ATOM      1  O   UNL     1      -2.385  -0.307   0.540  0.00  0.00    -0.455 OA
ENDROOT
BRANCH   1   2
ATOM      2  C   UNL     1      -1.104  -0.573   0.839  0.00  0.00    +0.313 C 
ATOM      3  O   UNL     1      -0.838  -1.270   1.789  0.00  0.00    -0.250 OA
BRANCH   2   6
ATOM      4  N   UNL     1       2.205   0.880   0.339  0.00  0.00    -0.271 N 
ATOM      5  C   UNL     1       1.386  -0.308   0.606  0.00  0.00    +0.128 C 
ATOM      6  C   UNL     1       0.003  -0.001  -0.009  0.00  0.00    +0.124 C 
ATOM      7  C   UNL     1      -0.019   1.545   0.020  0.00  0.00    +0.112 C 
ATOM      8  C   UNL     1       1.442   1.937   0.013  0.00  0.00    +0.221 C 
ATOM      9  O   UNL     1       1.863   3.044  -0.249  0.00  0.00    -0.275 OA
BRANCH   4  13
ATOM     10  C   UNL     1       6.365   0.965   0.562  0.00  0.00    -0.047 A 
ATOM     11  C   UNL     1       5.676  -0.170   0.948  0.00  0.00    +0.005 A 
ATOM     12  C   UNL     1       4.297  -0.202   0.875  0.00  0.00    +0.024 A 
ATOM     13  C   UNL     1       3.602   0.909   0.414  0.00  0.00    +0.036 A 
ATOM     14  C   UNL     1       4.297   2.045   0.022  0.00  0.00    +0.024 A 
ATOM     15  C   UNL     1       5.676   2.072   0.103  0.00  0.00    +0.005 A 
BRANCH  10  16
ATOM     16  C   UNL     1       7.869   0.996   0.643  0.00  0.00    +0.035 C 
BRANCH  16  17
ATOM     17  C   UNL     1       8.461   0.499  -0.677  0.00  0.00    +0.004 C 
BRANCH  17  19
ATOM     18  C   UNL     1      10.580   0.033  -1.916  0.00  0.00    +0.004 C 
ATOM     19  C   UNL     1       9.988   0.530  -0.596  0.00  0.00    -0.003 C 
ENDBRANCH  17  19
ENDBRANCH  16  17
ENDBRANCH  10  16
ENDBRANCH   4  13
ENDBRANCH   2   6
ENDBRANCH   1   2
BRANCH   1  20
ATOM     20  C   UNL     1      -3.398  -0.890   1.401  0.00  0.00    +0.328 C 
BRANCH  20  21
ATOM     21  C   UNL     1      -4.765  -0.485   0.914  0.00  0.00    +0.255 C 
ATOM     22  O   UNL     1      -4.875   0.226  -0.062  0.00  0.00    -0.272 OA
ATOM     23  N   UNL     1      -5.866  -0.913   1.563  0.00  0.00    -0.277 N 
ATOM     24  H   UNL     1      -5.778  -1.482   2.345  0.00  0.00    +0.155 HD
BRANCH  23  25
ATOM     25  C   UNL     1      -7.124  -0.540   1.116  0.00  0.00    +0.086 A 
ATOM     26  C   UNL     1      -8.363  -0.876   1.645  0.00  0.00    +0.091 A 
ATOM     27  C   UNL     1      -9.542  -0.348   0.980  0.00  0.00    -0.021 A 
ATOM     28  C   UNL     1      -9.296   0.425  -0.100  0.00  0.00    -0.004 A 
ATOM     29  S   UNL     1      -7.531   0.463  -0.236  0.00  0.00    -0.077 S 
ATOM     30  C   UNL     1     -10.306   1.100  -0.976  0.00  0.00    +0.046 C 
ATOM     31  C   UNL     1     -11.658   1.093  -0.250  0.00  0.00    -0.009 C 
ATOM     32  C   UNL     1     -11.925  -0.317   0.284  0.00  0.00    +0.008 C 
ATOM     33  C   UNL     1     -10.969  -0.625   1.438  0.00  0.00    +0.037 C 
ATOM     34  C   UNL     1     -12.769   1.491  -1.224  0.00  0.00    +0.008 C 
BRANCH  26  35
ATOM     35  C   UNL     1      -8.477  -1.730   2.830  0.00  0.00    +0.342 C 
ATOM     36  O   UNL     1      -8.491  -1.232   3.939  0.00  0.00    -0.245 OA
BRANCH  35  37
ATOM     37  O   UNL     1      -8.566  -3.068   2.690  0.00  0.00    -0.464 OA
ATOM     38  C   UNL     1      -8.676  -3.852   3.907  0.00  0.00    +0.280 C 
ENDBRANCH  35  37
ENDBRANCH  26  35
ENDBRANCH  23  25
ENDBRANCH  20  21
ENDBRANCH   1  20
TORSDOF 11
