REMARK  Name = ZINC39599677
REMARK  6 active torsions:
REMARK  status: ('A' for Active; 'I' for Inactive)
REMARK    1  A    between atoms: C_3  and  C_8
REMARK    2  A    between atoms: C_12  and  C_21
REMARK    3  A    between atoms: N_23  and  C_24
REMARK    4  A    between atoms: C_24  and  C_25
REMARK    5  A    between atoms: C_28  and  O_31
REMARK    6  A    between atoms: O_31  and  C_32
REMARK                            x       y       z     vdW  Elec       q    Type
REMARK                         _______ _______ _______ _____ _____    ______ ____
ROOT
ATOM      1  C   UNL     1       3.655   2.161  -0.022  0.00  0.00    +0.247 C 
ATOM      2  O   UNL     1       3.642   3.372  -0.124  0.00  0.00    -0.270 OA
ATOM      3  N   UNL     1       4.829   1.504   0.065  0.00  0.00    -0.296 N 
ATOM      4  C   UNL     1       5.053   0.040   0.066  0.00  0.00    +0.121 C 
ATOM      5  C   UNL     1       6.328  -0.161  -0.784  0.00  0.00    +0.100 C 
ATOM      6  C   UNL     1       7.069   1.184  -0.702  0.00  0.00    -0.004 C 
ATOM      7  C   UNL     1       6.189   2.085   0.176  0.00  0.00    +0.115 C 
ATOM      8  C   UNL     1       8.439   0.994  -0.058  0.00  0.00    -0.010 C 
ATOM      9  C   UNL     1       9.180   2.334  -0.041  0.00  0.00    -0.082 C 
ATOM     10  N   UNL     1       9.328   2.831  -1.414  0.00  0.00    +0.379 N 
ATOM     11  C   UNL     1       8.006   3.100  -1.994  0.00  0.00    -0.082 C 
ATOM     12  C   UNL     1       7.215   1.792  -2.094  0.00  0.00    -0.010 C 
ATOM     13  H   UNL     1       9.869   3.683  -1.405  0.00  0.00    -0.086 HD
ATOM     14  H   UNL     1       9.804   2.139  -1.972  0.00  0.00    -0.086 HD
ENDROOT
BRANCH   1  17
ATOM     15  C   UNL     1       1.135  -0.546   0.636  0.00  0.00    +0.002 A 
ATOM     16  C   UNL     1       2.325   0.152   0.613  0.00  0.00    +0.013 A 
ATOM     17  C   UNL     1       2.383   1.407   0.005  0.00  0.00    +0.038 A 
ATOM     18  C   UNL     1       1.235   1.949  -0.575  0.00  0.00    +0.033 A 
ATOM     19  C   UNL     1       0.051   1.240  -0.545  0.00  0.00    +0.042 A 
ATOM     20  C   UNL     1       0.001  -0.005   0.060  0.00  0.00    +0.020 A 
ATOM     21 CL   UNL     1      -1.379   1.911  -1.266  0.00  0.00    -0.084 Cl
ENDBRANCH   1  17
BRANCH   5  22
ATOM     22  C   UNL     1       7.175  -1.266  -0.206  0.00  0.00    +0.218 C 
ATOM     23  O   UNL     1       7.091  -1.541   0.972  0.00  0.00    -0.275 OA
ATOM     24  N   UNL     1       8.024  -1.948  -0.999  0.00  0.00    -0.311 N 
ATOM     25  H   UNL     1       8.091  -1.728  -1.941  0.00  0.00    +0.149 HD
BRANCH  24  26
ATOM     26  C   UNL     1       8.848  -3.022  -0.438  0.00  0.00    +0.139 C 
BRANCH  26  27
ATOM     27  C   UNL     1       9.704  -3.619  -1.525  0.00  0.00    -0.030 A 
ATOM     28  C   UNL     1       9.228  -4.681  -2.272  0.00  0.00    +0.009 A 
ATOM     29  C   UNL     1      10.011  -5.231  -3.269  0.00  0.00    +0.046 A 
ATOM     30  C   UNL     1      11.275  -4.716  -3.520  0.00  0.00    +0.130 A 
ATOM     31  C   UNL     1      11.749  -3.651  -2.769  0.00  0.00    +0.046 A 
ATOM     32  C   UNL     1      10.960  -3.101  -1.776  0.00  0.00    +0.009 A 
BRANCH  30  33
ATOM     33  O   UNL     1      12.047  -5.256  -4.500  0.00  0.00    -0.406 OA
BRANCH  33  34
ATOM     34  C   UNL     1      13.337  -4.676  -4.702  0.00  0.00    +0.575 C 
ATOM     35  F   UNL     1      14.088  -4.787  -3.527  0.00  0.00    -0.133 F 
ATOM     36  F   UNL     1      13.992  -5.347  -5.740  0.00  0.00    -0.133 F 
ATOM     37  F   UNL     1      13.193  -3.325  -5.037  0.00  0.00    -0.133 F 
ENDBRANCH  33  34
ENDBRANCH  30  33
ENDBRANCH  26  27
ENDBRANCH  24  26
ENDBRANCH   5  22
TORSDOF 6
