REMARK  Name = ZINC09391512
REMARK  11 active torsions:
REMARK  status: ('A' for Active; 'I' for Inactive)
REMARK    1  A    between atoms: C_1  and  C_2
REMARK    2  A    between atoms: C_2  and  C_29
REMARK    3  A    between atoms: C_5  and  C_27
REMARK    4  A    between atoms: C_6  and  N_12
REMARK    5  A    between atoms: C_9  and  C_10
REMARK    6  A    between atoms: C_9  and  C_11
REMARK    7  A    between atoms: C_13  and  C_15
REMARK    8  A    between atoms: C_18  and  S_21
REMARK    9  A    between atoms: S_21  and  N_24
REMARK   10  A    between atoms: N_24  and  C_25
REMARK   11  A    between atoms: N_24  and  C_26
REMARK                            x       y       z     vdW  Elec       q    Type
REMARK                         _______ _______ _______ _____ _____    ______ ____
ROOT
ATOM      1  C   UNL     1      -0.013   1.086   0.008  0.00  0.00    -0.010 C 
ATOM      2  C   UNL     1      -0.729   1.579   1.268  0.00  0.00    -0.069 C 
ATOM      3  C   UNL     1      -2.139   0.981   1.315  0.00  0.00    +0.024 C 
ATOM      4  C   UNL     1      -2.975   1.643   0.230  0.00  0.00    -0.021 A 
ATOM      5  C   UNL     1      -4.116   1.045  -0.434  0.00  0.00    +0.084 A 
ATOM      6  C   UNL     1      -4.772   1.809  -1.391  0.00  0.00    +0.090 A 
ATOM      7  S   UNL     1      -3.877   3.292  -1.396  0.00  0.00    -0.078 S 
ATOM      8  C   UNL     1      -2.668   2.901  -0.165  0.00  0.00    -0.015 A 
ATOM      9  C   UNL     1      -1.546   3.747   0.343  0.00  0.00    -0.041 C 
ATOM     10  C   UNL     1      -2.154   4.998   1.009  0.00  0.00    -0.005 C 
ATOM     11  C   UNL     1      -0.677   4.214  -0.830  0.00  0.00    -0.005 C 
ATOM     12  C   UNL     1       0.048   1.047   2.488  0.00  0.00    -0.010 C 
ATOM     13  N   UNL     1      -0.717   3.061   1.374  0.00  0.00    +0.389 N 
ATOM     14  H   UNL     1       0.253   3.384   1.277  0.00  0.00    -0.084 HD
ATOM     15  H   UNL     1      -1.073   3.321   2.301  0.00  0.00    -0.084 HD
ENDROOT
BRANCH   6  16
ATOM     16  N   UNL     1      -5.877   1.466  -2.155  0.00  0.00    -0.275 N 
ATOM     17  C   UNL     1      -6.382   2.345  -3.043  0.00  0.00    +0.249 C 
ATOM     18  O   UNL     1      -5.869   3.440  -3.173  0.00  0.00    -0.270 OA
ATOM     19  H   UNL     1      -6.286   0.593  -2.052  0.00  0.00    +0.156 HD
BRANCH  17  20
ATOM     20  C   UNL     1      -7.559   1.980  -3.858  0.00  0.00    +0.037 A 
ATOM     21  C   UNL     1      -8.147   0.722  -3.715  0.00  0.00    +0.015 A 
ATOM     22  C   UNL     1      -9.249   0.388  -4.476  0.00  0.00    +0.029 A 
ATOM     23  C   UNL     1      -9.765   1.294  -5.386  0.00  0.00    +0.105 A 
ATOM     24  C   UNL     1      -9.183   2.540  -5.536  0.00  0.00    +0.029 A 
ATOM     25  C   UNL     1      -8.085   2.889  -4.778  0.00  0.00    +0.015 A 
BRANCH  23  26
ATOM     26  S   UNL     1     -11.168   0.858  -6.357  0.00  0.00    +0.060 S 
ATOM     27  O   UNL     1     -11.858  -0.158  -5.642  0.00  0.00    -0.153 OA
ATOM     28  O   UNL     1     -11.791   2.076  -6.742  0.00  0.00    -0.153 OA
BRANCH  26  29
ATOM     29  N   UNL     1     -10.603   0.156  -7.747  0.00  0.00    -0.183 NA
ATOM     30  C   UNL     1     -10.387  -1.292  -7.801  0.00  0.00    +0.131 C 
ATOM     31  C   UNL     1     -10.319   0.983  -8.922  0.00  0.00    +0.131 C 
ENDBRANCH  26  29
ENDBRANCH  23  26
ENDBRANCH  17  20
ENDBRANCH   6  16
BRANCH   5  32
ATOM     32  C   UNL     1      -4.560  -0.280  -0.121  0.00  0.00    +0.102 C 
ATOM     33  N   UNL     1      -4.912  -1.331   0.127  0.00  0.00    -0.191 NA
ENDBRANCH   5  32
TORSDOF 5
