REMARK  Name = ZINC39683881
REMARK  8 active torsions:
REMARK  status: ('A' for Active; 'I' for Inactive)
REMARK    1  A    between atoms: C_1  and  C_2
REMARK    2  A    between atoms: C_3  and  C_14
REMARK    3  A    between atoms: C_4  and  C_7
REMARK    4  A    between atoms: C_18  and  C_27
REMARK    5  A    between atoms: N_29  and  C_30
REMARK    6  A    between atoms: C_30  and  C_32
REMARK    7  A    between atoms: C_30  and  C_33
REMARK    8  A    between atoms: N_35  and  C_36
REMARK                            x       y       z     vdW  Elec       q    Type
REMARK                         _______ _______ _______ _____ _____    ______ ____
ROOT
ATOM      1  C   UNL     1      -2.663  -0.382  -0.021  0.00  0.00    +0.252 C 
ATOM      2  O   UNL     1      -3.259  -0.141  -1.054  0.00  0.00    -0.270 OA
ATOM      3  N   UNL     1      -3.261  -0.170   1.168  0.00  0.00    -0.296 N 
ATOM      4  C   UNL     1      -2.699  -0.395   2.520  0.00  0.00    +0.121 C 
ATOM      5  C   UNL     1      -3.208   0.798   3.358  0.00  0.00    +0.100 C 
ATOM      6  C   UNL     1      -4.477   1.275   2.631  0.00  0.00    -0.004 C 
ATOM      7  C   UNL     1      -4.628   0.346   1.418  0.00  0.00    +0.115 C 
ATOM      8  C   UNL     1      -5.690   1.151   3.548  0.00  0.00    -0.010 C 
ATOM      9  C   UNL     1      -6.929   1.685   2.823  0.00  0.00    -0.082 C 
ATOM     10  N   UNL     1      -6.713   3.088   2.452  0.00  0.00    +0.379 N 
ATOM     11  C   UNL     1      -5.603   3.189   1.497  0.00  0.00    -0.082 C 
ATOM     12  C   UNL     1      -4.308   2.719   2.166  0.00  0.00    -0.010 C 
ATOM     13  H   UNL     1      -7.553   3.456   2.029  0.00  0.00    -0.086 HD
ATOM     14  H   UNL     1      -6.494   3.624   3.278  0.00  0.00    -0.086 HD
ENDROOT
BRANCH   1  17
ATOM     15  C   UNL     1      -0.051   1.335  -0.051  0.00  0.00    +0.090 C 
ATOM     16  C   UNL     1      -0.137  -0.170  -0.084  0.00  0.00    +0.147 A 
ATOM     17  C   UNL     1      -1.286  -0.904  -0.071  0.00  0.00    +0.106 A 
ATOM     18  C   UNL     1      -0.886  -2.319  -0.115  0.00  0.00    +0.127 A 
ATOM     19  N   UNL     1       0.422  -2.343  -0.150  0.00  0.00    -0.077 NA
ATOM     20  O   UNL     1       0.898  -1.012  -0.136  0.00  0.00    -0.359 OA
BRANCH  18  21
ATOM     21  C   UNL     1      -1.792  -3.493  -0.119  0.00  0.00    +0.023 A 
ATOM     22  C   UNL     1      -3.173  -3.312  -0.084  0.00  0.00    +0.011 A 
ATOM     23  C   UNL     1      -4.011  -4.408  -0.087  0.00  0.00    +0.001 A 
ATOM     24  C   UNL     1      -3.483  -5.686  -0.126  0.00  0.00    +0.001 A 
ATOM     25  C   UNL     1      -2.114  -5.874  -0.160  0.00  0.00    +0.020 A 
ATOM     26  C   UNL     1      -1.265  -4.784  -0.163  0.00  0.00    +0.050 A 
ATOM     27 CL   UNL     1       0.455  -5.020  -0.214  0.00  0.00    -0.083 Cl
ENDBRANCH  18  21
ENDBRANCH   1  17
BRANCH   5  28
ATOM     28  C   UNL     1      -3.540   0.352   4.759  0.00  0.00    +0.219 C 
ATOM     29  O   UNL     1      -3.931  -0.778   4.959  0.00  0.00    -0.275 OA
ATOM     30  N   UNL     1      -3.402   1.210   5.790  0.00  0.00    -0.304 N 
ATOM     31  H   UNL     1      -3.090   2.114   5.630  0.00  0.00    +0.149 HD
BRANCH  30  32
ATOM     32  C   UNL     1      -3.725   0.776   7.151  0.00  0.00    +0.156 C 
ATOM     33  C   UNL     1      -2.511   0.074   7.764  0.00  0.00    +0.038 C 
BRANCH  32  34
ATOM     34  C   UNL     1      -4.086   1.976   7.988  0.00  0.00    +0.233 C 
ATOM     35  O   UNL     1      -4.076   3.084   7.496  0.00  0.00    -0.274 OA
ATOM     36  N   UNL     1      -4.422   1.817   9.284  0.00  0.00    -0.317 N 
ATOM     37  C   UNL     1      -4.773   2.984  10.098  0.00  0.00    +0.128 C 
ATOM     38  H   UNL     1      -4.430   0.931   9.678  0.00  0.00    +0.148 HD
ENDBRANCH  32  34
ENDBRANCH  30  32
ENDBRANCH   5  28
TORSDOF 5
