REMARK  Name = ZINC48605182
REMARK  10 active torsions:
REMARK  status: ('A' for Active; 'I' for Inactive)
REMARK    1  A    between atoms: C_1  and  C_2
REMARK    2  A    between atoms: C_2  and  C_27
REMARK    3  A    between atoms: C_4  and  N_10
REMARK    4  A    between atoms: C_6  and  C_8
REMARK    5  A    between atoms: C_6  and  C_9
REMARK    6  A    between atoms: C_11  and  C_13
REMARK    7  A    between atoms: N_15  and  C_16
REMARK    8  A    between atoms: C_21  and  C_22
REMARK    9  A    between atoms: C_22  and  C_23
REMARK   10  A    between atoms: N_25  and  C_26
REMARK                            x       y       z     vdW  Elec       q    Type
REMARK                         _______ _______ _______ _____ _____    ______ ____
ROOT
ATOM      1  N   UNL     1       2.625  -0.831  -2.616  0.00  0.00    -0.305 N 
ATOM      2  C   UNL     1       3.778  -0.344  -3.116  0.00  0.00    +0.300 C 
ATOM      3  O   UNL     1       4.386   0.515  -2.512  0.00  0.00    -0.265 OA
ATOM      4  H   UNL     1       2.139  -1.518  -3.099  0.00  0.00    +0.149 HD
ENDROOT
BRANCH   1   8
ATOM      5  C   UNL     1       0.005   1.501   0.047  0.00  0.00    -0.010 C 
ATOM      6  C   UNL     1       0.024  -0.031   0.028  0.00  0.00    -0.072 C 
ATOM      7  C   UNL     1       0.589  -0.523  -1.300  0.00  0.00    +0.009 C 
ATOM      8  C   UNL     1       2.104  -0.321  -1.342  0.00  0.00    +0.071 C 
ATOM      9  C   UNL     1       2.723  -1.115  -0.191  0.00  0.00    +0.009 C 
ATOM     10  C   UNL     1       2.174  -0.627   1.146  0.00  0.00    -0.072 C 
ATOM     11  N   UNL     1       0.723  -0.565   1.184  0.00  0.00    +0.386 N 
ATOM     12  C   UNL     1       2.799   0.726   1.500  0.00  0.00    -0.010 C 
ATOM     13  C   UNL     1       2.630  -1.634   2.227  0.00  0.00    -0.010 C 
ATOM     14  C   UNL     1      -1.446  -0.503   0.108  0.00  0.00    -0.010 C 
ATOM     15  H   UNL     1       0.447  -0.019   2.006  0.00  0.00    -0.084 HD
ATOM     16  H   UNL     1       0.367  -1.508   1.366  0.00  0.00    -0.084 HD
ENDBRANCH   1   8
BRANCH   2  17
ATOM     17  C   UNL     1       4.309  -0.863  -4.412  0.00  0.00    +0.303 C 
ATOM     18  O   UNL     1       3.701  -1.723  -5.016  0.00  0.00    -0.265 OA
ATOM     19  N   UNL     1       5.462  -0.376  -4.912  0.00  0.00    -0.277 N 
ATOM     20  H   UNL     1       5.906   0.366  -4.472  0.00  0.00    +0.155 HD
BRANCH  19  21
ATOM     21  C   UNL     1       6.018  -0.940  -6.063  0.00  0.00    +0.037 A 
ATOM     22  C   UNL     1       5.728  -2.256  -6.403  0.00  0.00    +0.023 A 
ATOM     23  C   UNL     1       6.279  -2.810  -7.542  0.00  0.00    +0.002 A 
ATOM     24  C   UNL     1       7.119  -2.057  -8.342  0.00  0.00    +0.000 A 
ATOM     25  C   UNL     1       7.409  -0.748  -8.006  0.00  0.00    +0.006 A 
ATOM     26  C   UNL     1       6.857  -0.185  -6.872  0.00  0.00    -0.017 A 
BRANCH  26  27
ATOM     27  C   UNL     1       7.168   1.244  -6.511  0.00  0.00    +0.132 C 
BRANCH  27  28
ATOM     28  C   UNL     1       8.318   1.277  -5.537  0.00  0.00    +0.217 C 
ATOM     29  O   UNL     1       8.833   0.241  -5.172  0.00  0.00    -0.275 OA
ATOM     30  N   UNL     1       8.773   2.457  -5.071  0.00  0.00    -0.318 N 
ATOM     31  C   UNL     1       9.891   2.488  -4.124  0.00  0.00    +0.128 C 
ATOM     32  H   UNL     1       8.361   3.285  -5.362  0.00  0.00    +0.148 HD
ENDBRANCH  27  28
ENDBRANCH  26  27
ENDBRANCH  19  21
ENDBRANCH   2  17
TORSDOF 5
