REMARK  Name = ZINC33699326
REMARK  9 active torsions:
REMARK  status: ('A' for Active; 'I' for Inactive)
REMARK    1  A    between atoms: C_1  and  C_2
REMARK    2  A    between atoms: C_2  and  C_4
REMARK    3  A    between atoms: C_7  and  N_10
REMARK    4  A    between atoms: C_15  and  C_34
REMARK    5  A    between atoms: C_18  and  C_23
REMARK    6  A    between atoms: C_18  and  C_31
REMARK    7  A    between atoms: C_23  and  C_24
REMARK    8  A    between atoms: C_27  and  O_30
REMARK    9  A    between atoms: C_39  and  O_40
REMARK                            x       y       z     vdW  Elec       q    Type
REMARK                         _______ _______ _______ _____ _____    ______ ____
ROOT
ATOM      1  N   UNL     1      -1.665   3.692  -3.472  0.00  0.00    -0.210 N 
ATOM      2  C   UNL     1      -1.173   2.975  -2.416  0.00  0.00    +0.229 C 
ATOM      3  O   UNL     1      -1.727   2.741  -1.364  0.00  0.00    -0.275 OA
ATOM      4  C   UNL     1       0.148   2.560  -2.830  0.00  0.00    +0.077 C 
ATOM      5  C   UNL     1       1.147   1.522  -2.508  0.00  0.00    -0.023 C 
ATOM      6  N   UNL     1       2.100   1.637  -3.666  0.00  0.00    +0.396 N 
ATOM      7  C   UNL     1       1.357   2.249  -4.808  0.00  0.00    +0.052 C 
ATOM      8  C   UNL     1      -0.105   2.279  -4.367  0.00  0.00    +0.086 C 
ATOM      9  C   UNL     1      -0.936   3.508  -4.613  0.00  0.00    +0.229 C 
ATOM     10  O   UNL     1      -0.955   4.192  -5.614  0.00  0.00    -0.275 OA
ATOM     11  H   UNL     1       2.951   2.272  -3.379  0.00  0.00    -0.083 HD
ATOM     12  H   UNL     1       2.465   0.636  -3.940  0.00  0.00    -0.083 HD
ENDROOT
BRANCH   1  16
ATOM     13  C   UNL     1      -5.034   6.137  -3.251  0.00  0.00    +0.017 A 
ATOM     14  C   UNL     1      -4.591   5.448  -2.115  0.00  0.00    +0.013 A 
ATOM     15  C   UNL     1      -3.478   4.642  -2.193  0.00  0.00    +0.024 A 
ATOM     16  C   UNL     1      -2.794   4.511  -3.398  0.00  0.00    +0.044 A 
ATOM     17  C   UNL     1      -3.227   5.199  -4.527  0.00  0.00    +0.024 A 
ATOM     18  C   UNL     1      -4.342   6.003  -4.461  0.00  0.00    +0.013 A 
BRANCH  13  20
ATOM     19  C   UNL     1      -6.696   7.740  -4.396  0.00  0.00    +0.091 C 
ATOM     20  C   UNL     1      -6.221   6.999  -3.173  0.00  0.00    +0.160 C 
ATOM     21  O   UNL     1      -6.819   7.114  -2.124  0.00  0.00    -0.292 OA
ENDBRANCH  13  20
ENDBRANCH   1  16
BRANCH   5  22
ATOM     22  C   UNL     1       1.842   1.830  -1.206  0.00  0.00    -0.019 A 
ATOM     23  C   UNL     1       1.762   3.098  -0.662  0.00  0.00    +0.005 A 
ATOM     24  C   UNL     1       2.399   3.380   0.531  0.00  0.00    +0.000 A 
ATOM     25  C   UNL     1       3.117   2.395   1.185  0.00  0.00    +0.004 A 
ATOM     26  C   UNL     1       3.196   1.125   0.648  0.00  0.00    +0.045 A 
ATOM     27  C   UNL     1       2.562   0.841  -0.553  0.00  0.00    +0.118 A 
BRANCH  27  28
ATOM     28  O   UNL     1       2.643  -0.407  -1.087  0.00  0.00    -0.507 OA
ATOM     29  H   UNL     1       3.214  -1.191  -0.568  0.00  0.00    +0.292 HD
ENDBRANCH  27  28
ENDBRANCH   5  22
BRANCH   7  30
ATOM     30  C   UNL     1       1.512   1.404  -6.046  0.00  0.00    +0.347 C 
ATOM     31  O   UNL     1       0.574   1.244  -6.790  0.00  0.00    -0.248 OA
ATOM     32  O   UNL     1       2.693   0.828  -6.322  0.00  0.00    -0.248 OA
ENDBRANCH   7  30
BRANCH   7  33
ATOM     33  C   UNL     1       1.862   3.670  -5.068  0.00  0.00    +0.035 C 
BRANCH  33  34
ATOM     34  C   UNL     1       3.304   3.619  -5.502  0.00  0.00    -0.048 A 
ATOM     35  C   UNL     1       4.312   3.688  -4.558  0.00  0.00    +0.007 A 
ATOM     36  C   UNL     1       5.634   3.636  -4.953  0.00  0.00    +0.045 A 
ATOM     37  C   UNL     1       5.952   3.527  -6.299  0.00  0.00    +0.117 A 
ATOM     38  C   UNL     1       4.939   3.464  -7.245  0.00  0.00    +0.045 A 
ATOM     39  C   UNL     1       3.617   3.510  -6.844  0.00  0.00    +0.007 A 
BRANCH  37  40
ATOM     40  O   UNL     1       7.252   3.482  -6.691  0.00  0.00    -0.507 OA
ATOM     41  H   UNL     1       7.502   3.395  -7.758  0.00  0.00    +0.292 HD
ENDBRANCH  37  40
ENDBRANCH  33  34
ENDBRANCH   7  33
TORSDOF 8
