REMARK  Name = ZINC39856358
REMARK  6 active torsions:
REMARK  status: ('A' for Active; 'I' for Inactive)
REMARK    1  A    between atoms: C_1  and  C_2
REMARK    2  A    between atoms: C_6  and  C_7
REMARK    3  A    between atoms: N_9  and  C_10
REMARK    4  A    between atoms: C_18  and  C_26
REMARK    5  A    between atoms: C_18  and  C_27
REMARK    6  A    between atoms: N_21  and  N_22
REMARK                            x       y       z     vdW  Elec       q    Type
REMARK                         _______ _______ _______ _____ _____    ______ ____
ROOT
ATOM      1  C   UNL     1      -0.014   1.502   0.010  0.00  0.00    +0.048 C 
ATOM      2  C   UNL     1      -0.004  -0.005   0.002  0.00  0.00    +0.009 A 
ATOM      3  C   UNL     1      -0.007  -0.839  -1.122  0.00  0.00    +0.042 A 
ATOM      4  C   UNL     1       0.005  -2.138  -0.672  0.00  0.00    +0.116 A 
ATOM      5  O   UNL     1       0.019  -2.112   0.658  0.00  0.00    -0.454 OA
ATOM      6  C   UNL     1       0.018  -0.831   1.091  0.00  0.00    +0.193 A 
ATOM      7  C   UNL     1      -0.000  -3.327  -1.599  0.00  0.00    +0.081 C 
ATOM      8  C   UNL     1      -0.528  -2.900  -2.971  0.00  0.00    -0.023 C 
ATOM      9  C   UNL     1       0.248  -1.688  -3.496  0.00  0.00    +0.064 C 
ATOM     10  C   UNL     1      -0.019  -0.513  -2.566  0.00  0.00    +0.071 C 
ATOM     11  N   UNL     1      -0.241   0.686  -3.007  0.00  0.00    -0.183 NA
ATOM     12  C   UNL     1      -0.373  -4.062  -3.955  0.00  0.00    +0.011 C 
ATOM     13  C   UNL     1      -2.009  -2.537  -2.851  0.00  0.00    +0.011 C 
ENDROOT
BRANCH  11  14
ATOM     14  N   UNL     1      -0.241   0.938  -4.385  0.00  0.00    -0.191 N 
ATOM     15  C   UNL     1      -0.472   2.184  -4.843  0.00  0.00    +0.317 C 
ATOM     16  O   UNL     1      -0.471   2.402  -6.039  0.00  0.00    -0.251 OA
ATOM     17  N   UNL     1      -0.703   3.189  -3.975  0.00  0.00    -0.312 N 
ATOM     18  H   UNL     1      -0.074   0.215  -5.010  0.00  0.00    +0.179 HD
ATOM     19  H   UNL     1      -0.704   3.015  -3.021  0.00  0.00    +0.147 HD
ATOM     20  H   UNL     1      -0.870   4.086  -4.305  0.00  0.00    +0.147 HD
ENDBRANCH  11  14
BRANCH   6  21
ATOM     21  C   UNL     1       0.033  -0.400   2.493  0.00  0.00    +0.284 C 
ATOM     22  O   UNL     1       0.027   0.786   2.765  0.00  0.00    -0.266 OA
ATOM     23  N   UNL     1       0.053  -1.318   3.480  0.00  0.00    -0.279 N 
ATOM     24  H   UNL     1      -0.010  -2.262   3.266  0.00  0.00    +0.155 HD
BRANCH  23  25
ATOM     25  C   UNL     1       0.165  -0.909   4.813  0.00  0.00    +0.034 A 
ATOM     26  C   UNL     1       0.886  -1.677   5.718  0.00  0.00    +0.024 A 
ATOM     27  C   UNL     1       0.996  -1.271   7.033  0.00  0.00    +0.016 A 
ATOM     28  C   UNL     1       0.387  -0.100   7.450  0.00  0.00    +0.013 A 
ATOM     29  C   UNL     1      -0.332   0.667   6.551  0.00  0.00    +0.016 A 
ATOM     30  C   UNL     1      -0.439   0.269   5.233  0.00  0.00    +0.024 A 
ATOM     31  I   UNL     1       0.555   0.512   9.446  0.00  0.00    -0.044 I 
ENDBRANCH  23  25
ENDBRANCH   6  21
TORSDOF 3
