REMARK  Name = ZINC36569253
REMARK  13 active torsions:
REMARK  status: ('A' for Active; 'I' for Inactive)
REMARK    1  A    between atoms: C_1  and  C_2
REMARK    2  A    between atoms: C_2  and  C_3
REMARK    3  A    between atoms: C_3  and  C_5
REMARK    4  A    between atoms: C_3  and  C_6
REMARK    5  A    between atoms: C_6  and  C_8
REMARK    6  A    between atoms: C_6  and  N_21
REMARK    7  A    between atoms: N_10  and  C_11
REMARK    8  A    between atoms: C_13  and  C_19
REMARK    9  A    between atoms: C_13  and  C_20
REMARK   10  A    between atoms: C_15  and  C_17
REMARK   11  A    between atoms: C_15  and  C_18
REMARK   12  A    between atoms: C_22  and  C_24
REMARK   13  A    between atoms: C_25  and  O_34
REMARK                            x       y       z     vdW  Elec       q    Type
REMARK                         _______ _______ _______ _____ _____    ______ ____
ROOT
ATOM      1  C   UNL     1      -0.165  -0.207  -2.708  0.00  0.00    +0.162 C 
ENDROOT
BRANCH   1   2
ATOM      2  C   UNL     1      -0.221   1.278  -2.964  0.00  0.00    +0.234 C 
ATOM      3  O   UNL     1       0.248   1.735  -3.985  0.00  0.00    -0.274 OA
ATOM      4  N   UNL     1      -0.790   2.097  -2.058  0.00  0.00    -0.311 N 
ATOM      5  H   UNL     1      -1.093   1.743  -1.207  0.00  0.00    +0.149 HD
BRANCH   4   6
ATOM      6  C   UNL     1      -0.953   3.525  -2.359  0.00  0.00    +0.070 C 
ATOM      7  C   UNL     1      -2.271   3.733  -3.108  0.00  0.00    +0.009 C 
ATOM      8  C   UNL     1      -2.461   5.217  -3.419  0.00  0.00    -0.072 C 
ATOM      9  N   UNL     1      -2.361   6.044  -2.226  0.00  0.00    +0.386 N 
ATOM     10  C   UNL     1      -1.250   5.795  -1.322  0.00  0.00    -0.072 C 
ATOM     11  C   UNL     1      -1.016   4.312  -1.051  0.00  0.00    +0.009 C 
ATOM     12  C   UNL     1       0.043   6.444  -1.822  0.00  0.00    -0.010 C 
ATOM     13  C   UNL     1      -1.594   6.459   0.032  0.00  0.00    -0.010 C 
ATOM     14  C   UNL     1      -1.485   5.658  -4.509  0.00  0.00    -0.010 C 
ATOM     15  C   UNL     1      -3.889   5.387  -3.987  0.00  0.00    -0.010 C 
ATOM     16  H   UNL     1      -2.327   7.024  -2.516  0.00  0.00    -0.084 HD
ATOM     17  H   UNL     1      -3.232   5.951  -1.697  0.00  0.00    -0.084 HD
ENDBRANCH   4   6
ENDBRANCH   1   2
BRANCH   1  18
ATOM     18  N   UNL     1       0.055  -0.912  -3.972  0.00  0.00    -0.299 N 
ATOM     19  C   UNL     1      -0.346  -2.192  -4.109  0.00  0.00    +0.264 C 
ATOM     20  O   UNL     1      -0.975  -2.732  -3.215  0.00  0.00    -0.269 OA
ATOM     21  H   UNL     1       0.490  -0.459  -4.711  0.00  0.00    +0.150 HD
BRANCH  19  22
ATOM     22  C   UNL     1      -0.039  -2.903  -5.283  0.00  0.00    +0.152 C 
ATOM     23  C   UNL     1      -0.532  -4.160  -5.469  0.00  0.00    +0.209 C 
ATOM     24  N   UNL     1      -0.237  -4.861  -6.617  0.00  0.00    -0.283 N 
ATOM     25  C   UNL     1       0.794  -4.417  -7.460  0.00  0.00    +0.055 A 
ATOM     26  C   UNL     1       1.302  -5.239  -8.450  0.00  0.00    +0.025 A 
ATOM     27  C   UNL     1       2.319  -4.782  -9.271  0.00  0.00    +0.002 A 
ATOM     28  C   UNL     1       2.829  -3.508  -9.105  0.00  0.00    +0.002 A 
ATOM     29  C   UNL     1       2.326  -2.680  -8.116  0.00  0.00    +0.025 A 
ATOM     30  C   UNL     1       1.310  -3.131  -7.292  0.00  0.00    +0.053 A 
ATOM     31  N   UNL     1       0.782  -2.311  -6.283  0.00  0.00    -0.305 N 
ATOM     32  H   UNL     1       0.975  -1.361  -6.265  0.00  0.00    +0.152 HD
ATOM     33  H   UNL     1      -0.740  -5.659  -6.843  0.00  0.00    +0.155 HD
BRANCH  23  34
ATOM     34  O   UNL     1      -1.315  -4.722  -4.522  0.00  0.00    -0.494 OA
ATOM     35  H   UNL     1      -1.618  -5.614  -4.740  0.00  0.00    +0.294 HD
ENDBRANCH  23  34
ENDBRANCH  19  22
ENDBRANCH   1  18
BRANCH   1  36
ATOM     36  C   UNL     1       0.982  -0.516  -1.744  0.00  0.00    +0.015 C 
ATOM     37  C   UNL     1       2.317  -0.199  -2.422  0.00  0.00    +0.010 C 
BRANCH  36  39
ATOM     38  C   UNL     1      -0.324  -2.281  -0.553  0.00  0.00    +0.004 C 
ATOM     39  C   UNL     1       0.943  -1.997  -1.363  0.00  0.00    +0.002 C 
ENDBRANCH  36  39
ENDBRANCH   1  36
TORSDOF 7
