REMARK  Name = ZINC16400355
REMARK  7 active torsions:
REMARK  status: ('A' for Active; 'I' for Inactive)
REMARK    1  A    between atoms: C_3  and  S_25
REMARK    2  A    between atoms: C_6  and  C_7
REMARK    3  A    between atoms: C_7  and  C_8
REMARK    4  A    between atoms: C_8  and  N_9
REMARK    5  A    between atoms: C_10  and  C_12
REMARK    6  A    between atoms: C_17  and  N_21
REMARK    7  A    between atoms: S_25  and  N_28
REMARK                            x       y       z     vdW  Elec       q    Type
REMARK                         _______ _______ _______ _____ _____    ______ ____
ROOT
ATOM      1  N   UNL     1       7.166   0.815  -0.065  0.00  0.00    -0.311 N 
ATOM      2  C   UNL     1       6.218  -0.143  -0.060  0.00  0.00    +0.252 C 
ATOM      3  O   UNL     1       6.539  -1.316  -0.070  0.00  0.00    -0.270 OA
ATOM      4  H   UNL     1       6.911   1.751  -0.057  0.00  0.00    +0.149 HD
ENDROOT
BRANCH   2   5
ATOM      5  C   UNL     1       4.798   0.230  -0.045  0.00  0.00    +0.093 A 
ATOM      6  C   UNL     1       3.708  -0.584  -0.038  0.00  0.00    +0.068 A 
ATOM      7  C   UNL     1       2.416  -0.026  -0.022  0.00  0.00    +0.008 A 
ATOM      8  C   UNL     1       1.168  -0.700  -0.013  0.00  0.00    +0.013 A 
ATOM      9  C   UNL     1       0.002  -0.004   0.002  0.00  0.00    +0.033 A 
ATOM     10  C   UNL     1      -0.017   1.385   0.010  0.00  0.00    +0.127 A 
ATOM     11  C   UNL     1       1.175   2.082   0.002  0.00  0.00    +0.048 A 
ATOM     12  C   UNL     1       2.367   1.388  -0.013  0.00  0.00    +0.024 A 
ATOM     13  S   UNL     1       4.077   1.862  -0.029  0.00  0.00    -0.082 S 
ATOM     14 CL   UNL     1       3.910  -2.308  -0.049  0.00  0.00    -0.082 Cl
BRANCH  10  15
ATOM     15  N   UNL     1      -1.306   2.114   0.020  0.00  0.00    +0.056 N 
ATOM     16  O   UNL     1      -2.355   1.495   0.021  0.00  0.00    -0.126 OA
ATOM     17  O   UNL     1      -1.317   3.332   0.026  0.00  0.00    -0.126 OA
ENDBRANCH  10  15
ENDBRANCH   2   5
BRANCH   1  18
ATOM     18  C   UNL     1       8.583   0.444  -0.080  0.00  0.00    +0.109 C 
BRANCH  18  19
ATOM     19  C   UNL     1       9.443   1.709  -0.082  0.00  0.00    +0.054 C 
BRANCH  19  25
ATOM     20  C   UNL     1      11.582   1.151   1.092  0.00  0.00    +0.005 A 
ATOM     21  C   UNL     1      12.918   0.795   1.077  0.00  0.00    +0.029 A 
ATOM     22  C   UNL     1      13.575   0.625  -0.128  0.00  0.00    +0.105 A 
ATOM     23  C   UNL     1      12.894   0.807  -1.317  0.00  0.00    +0.029 A 
ATOM     24  C   UNL     1      11.557   1.158  -1.302  0.00  0.00    +0.005 A 
ATOM     25  C   UNL     1      10.900   1.327  -0.098  0.00  0.00    -0.046 A 
BRANCH  22  26
ATOM     26  S   UNL     1      15.278   0.177  -0.146  0.00  0.00    +0.056 S 
ATOM     27  O   UNL     1      15.543  -0.465   1.093  0.00  0.00    -0.153 OA
ATOM     28  O   UNL     1      15.519  -0.453  -1.397  0.00  0.00    -0.153 OA
BRANCH  26  29
ATOM     29  N   UNL     1      16.154   1.582  -0.149  0.00  0.00    -0.204 NA
ATOM     30  H   UNL     1      17.032   1.607   0.263  0.00  0.00    +0.144 HD
ATOM     31  H   UNL     1      15.790   2.381  -0.561  0.00  0.00    +0.144 HD
ENDBRANCH  26  29
ENDBRANCH  22  26
ENDBRANCH  19  25
ENDBRANCH  18  19
ENDBRANCH   1  18
TORSDOF 7
