REMARK  Name = ZINC20617616
REMARK  6 active torsions:
REMARK  status: ('A' for Active; 'I' for Inactive)
REMARK    1  A    between atoms: C_1  and  C_2
REMARK    2  A    between atoms: C_6  and  C_16
REMARK    3  A    between atoms: N_8  and  C_9
REMARK    4  A    between atoms: N_18  and  C_19
REMARK    5  A    between atoms: C_30  and  C_33
REMARK    6  A    between atoms: C_33  and  O_34
REMARK                            x       y       z     vdW  Elec       q    Type
REMARK                         _______ _______ _______ _____ _____    ______ ____
ROOT
ATOM      1  C   UNL     1       1.331   1.609   0.105  0.00  0.00    +0.069 C 
ATOM      2  C   UNL     1       0.919   0.159   0.123  0.00  0.00    +0.081 A 
ATOM      3  C   UNL     1       0.548  -0.468  -1.059  0.00  0.00    +0.159 A 
ATOM      4  C   UNL     1       0.171  -1.823  -1.017  0.00  0.00    +0.027 A 
ATOM      5  C   UNL     1      -0.219  -2.505  -2.253  0.00  0.00    +0.030 A 
ATOM      6  C   UNL     1       0.057  -1.864  -3.441  0.00  0.00    +0.098 A 
ATOM      7  C   UNL     1       0.722  -0.548  -3.361  0.00  0.00    +0.212 A 
ATOM      8  N   UNL     1       1.468  -0.107  -4.350  0.00  0.00    -0.325 N 
ATOM      9  O   UNL     1       0.542   0.195  -2.239  0.00  0.00    -0.437 OA
ATOM     10  C   UNL     1       0.181  -2.484   0.218  0.00  0.00    +0.007 A 
ATOM     11  C   UNL     1       0.564  -1.777   1.339  0.00  0.00    +0.117 A 
ATOM     12  N   UNL     1       0.920  -0.508   1.259  0.00  0.00    -0.256 NA
ATOM     13  H   UNL     1       1.675  -0.690  -5.098  0.00  0.00    +0.169 HD
ENDROOT
BRANCH   8  14
ATOM     14  C   UNL     1       1.953   1.171  -4.324  0.00  0.00    +0.042 A 
ATOM     15  C   UNL     1       1.118   2.231  -3.961  0.00  0.00    +0.026 A 
ATOM     16  C   UNL     1       1.614   3.518  -3.936  0.00  0.00    +0.002 A 
ATOM     17  C   UNL     1       2.934   3.760  -4.272  0.00  0.00    +0.000 A 
ATOM     18  C   UNL     1       3.767   2.716  -4.633  0.00  0.00    +0.002 A 
ATOM     19  C   UNL     1       3.286   1.423  -4.656  0.00  0.00    +0.026 A 
ENDBRANCH   8  14
BRANCH   6  20
ATOM     20  C   UNL     1      -0.298  -2.467  -4.738  0.00  0.00    +0.253 C 
ATOM     21  O   UNL     1      -0.745  -3.597  -4.781  0.00  0.00    -0.270 OA
ATOM     22  N   UNL     1      -0.127  -1.766  -5.877  0.00  0.00    -0.282 N 
ATOM     23  H   UNL     1       0.273  -0.883  -5.847  0.00  0.00    +0.155 HD
BRANCH  22  24
ATOM     24  C   UNL     1      -0.524  -2.313  -7.100  0.00  0.00    +0.032 C 
ATOM     25  C   UNL     1      -0.488  -1.569  -8.199  0.00  0.00    +0.030 C 
ATOM     26  C   UNL     1      -0.893  -2.088  -9.552  0.00  0.00    +0.178 C 
ATOM     27  C   UNL     1      -1.839  -3.289  -9.433  0.00  0.00    +0.177 C 
ATOM     28  C   UNL     1      -1.574  -4.148  -8.251  0.00  0.00    +0.009 C 
ATOM     29  C   UNL     1      -0.977  -3.714  -7.166  0.00  0.00    +0.021 C 
ATOM     30  O   UNL     1      -3.145  -2.682  -9.376  0.00  0.00    -0.344 OA
ATOM     31  C   UNL     1      -3.022  -1.619 -10.352  0.00  0.00    +0.324 C 
ATOM     32  O   UNL     1      -1.693  -1.052 -10.177  0.00  0.00    -0.344 OA
ENDBRANCH  22  24
ENDBRANCH   6  20
BRANCH  10  33
ATOM     33  C   UNL     1      -0.218  -3.933   0.319  0.00  0.00    +0.193 C 
BRANCH  33  34
ATOM     34  O   UNL     1      -0.120  -4.360   1.680  0.00  0.00    -0.390 OA
ATOM     35  H   UNL     1      -0.362  -5.286   1.820  0.00  0.00    +0.210 HD
ENDBRANCH  33  34
ENDBRANCH  10  33
TORSDOF 5
