REMARK  Name = ZINC02539826
REMARK  9 active torsions:
REMARK  status: ('A' for Active; 'I' for Inactive)
REMARK    1  A    between atoms: C_1  and  O_2
REMARK    2  A    between atoms: O_2  and  C_3
REMARK    3  A    between atoms: C_3  and  C_5
REMARK    4  A    between atoms: C_6  and  C_7
REMARK    5  A    between atoms: N_9  and  C_10
REMARK    6  A    between atoms: C_14  and  O_35
REMARK    7  A    between atoms: C_21  and  O_34
REMARK    8  A    between atoms: C_30  and  C_31
REMARK    9  A    between atoms: C_30  and  N_63
REMARK                            x       y       z     vdW  Elec       q    Type
REMARK                         _______ _______ _______ _____ _____    ______ ____
ROOT
ATOM      1  C   UNL     1       3.311   2.566   2.010  0.00  0.00    +0.115 C 
ATOM      2  C   UNL     1       3.145   1.086   2.268  0.00  0.00    +0.029 C 
ATOM      3  C   UNL     1       2.133   0.457   1.312  0.00  0.00    +0.036 C 
ATOM      4  C   UNL     1       2.677   0.595  -0.106  0.00  0.00    +0.068 C 
ATOM      5  C   UNL     1       1.711  -0.003  -1.129  0.00  0.00    -0.031 C 
ATOM      6  C   UNL     1       0.316   0.599  -1.111  0.00  0.00    +0.023 C 
ATOM      7  C   UNL     1       0.298   2.045  -0.737  0.00  0.00    -0.041 A 
ATOM      8  C   UNL     1      -0.834   2.842  -0.700  0.00  0.00    +0.007 A 
ATOM      9  C   UNL     1      -0.721   4.189  -0.362  0.00  0.00    +0.049 A 
ATOM     10  C   UNL     1       0.475   4.788   0.027  0.00  0.00    +0.159 A 
ATOM     11  C   UNL     1       1.622   3.986   0.007  0.00  0.00    +0.166 A 
ATOM     12  C   UNL     1       1.475   2.664  -0.390  0.00  0.00    +0.013 A 
ATOM     13  C   UNL     1       2.861   2.064  -0.439  0.00  0.00    +0.064 C 
ATOM     14  C   UNL     1       3.575   2.948   0.567  0.00  0.00    +0.207 C 
ATOM     15  O   UNL     1       2.907   4.233   0.344  0.00  0.00    -0.482 OA
ATOM     16  C   UNL     1       3.460   2.206  -1.838  0.00  0.00    -0.001 C 
ATOM     17  C   UNL     1       2.511   1.535  -2.839  0.00  0.00    -0.077 C 
ATOM     18  N   UNL     1       2.336   0.130  -2.474  0.00  0.00    +0.384 N 
ATOM     19  H   UNL     1       3.256  -0.325  -2.456  0.00  0.00    -0.081 HD
ENDROOT
BRANCH   1  22
ATOM     20  C   UNL     1       2.175   4.344   3.229  0.00  0.00    +0.237 C 
ATOM     21  O   UNL     1       3.262   4.765   3.571  0.00  0.00    -0.271 OA
ATOM     22  N   UNL     1       2.091   3.249   2.448  0.00  0.00    -0.305 N 
ATOM     23  H   UNL     1       1.223   2.913   2.175  0.00  0.00    +0.149 HD
BRANCH  20  25
ATOM     24  C   UNL     1       1.028   6.123   4.448  0.00  0.00    +0.096 C 
ATOM     25  C   UNL     1       0.945   5.032   3.670  0.00  0.00    +0.074 C 
BRANCH  24  26
ATOM     26  C   UNL     1      -0.200   6.811   4.888  0.00  0.00    +0.332 C 
ATOM     27  O   UNL     1      -1.287   6.391   4.547  0.00  0.00    -0.246 OA
BRANCH  26  29
ATOM     28  C   UNL     1      -1.366   8.531   6.065  0.00  0.00    +0.280 C 
ATOM     29  O   UNL     1      -0.117   7.906   5.670  0.00  0.00    -0.465 OA
ENDBRANCH  26  29
ENDBRANCH  24  26
ENDBRANCH  20  25
ENDBRANCH   1  22
BRANCH  10  30
ATOM     30  O   UNL     1       0.526   6.092   0.409  0.00  0.00    -0.503 OA
ATOM     31  H   UNL     1       0.694   6.708  -0.317  0.00  0.00    +0.292 HD
ENDBRANCH  10  30
BRANCH   4  32
ATOM     32  O   UNL     1       3.937  -0.072  -0.198  0.00  0.00    -0.389 OA
ATOM     33  H   UNL     1       3.892  -1.023  -0.027  0.00  0.00    +0.210 HD
ENDBRANCH   4  32
BRANCH  18  34
ATOM     34  C   UNL     1       1.494  -0.529  -3.484  0.00  0.00    -0.075 C 
BRANCH  34  35
ATOM     35  C   UNL     1       2.096  -0.278  -4.867  0.00  0.00    -0.028 C 
ATOM     36  C   UNL     1       1.252   0.506  -5.874  0.00  0.00    +0.002 C 
ATOM     37  C   UNL     1       1.459  -0.999  -6.057  0.00  0.00    +0.002 C 
ENDBRANCH  34  35
ENDBRANCH  18  34
TORSDOF 8
