REMARK  Name = ZINC25261643
REMARK  8 active torsions:
REMARK  status: ('A' for Active; 'I' for Inactive)
REMARK    1  A    between atoms: C_4  and  C_7
REMARK    2  A    between atoms: C_7  and  C_8
REMARK    3  A    between atoms: C_8  and  C_10
REMARK    4  A    between atoms: C_8  and  N_34
REMARK    5  A    between atoms: N_12  and  N_13
REMARK    6  A    between atoms: C_14  and  C_16
REMARK    7  A    between atoms: N_25  and  C_27
REMARK    8  A    between atoms: C_27  and  C_28
REMARK                            x       y       z     vdW  Elec       q    Type
REMARK                         _______ _______ _______ _____ _____    ______ ____
ROOT
ATOM      1  N   UNL     1      -6.671   0.175   1.312  0.00  0.00    -0.229 N 
ATOM      2  C   UNL     1      -7.785   0.917   1.153  0.00  0.00    +0.281 C 
ATOM      3  O   UNL     1      -7.697   2.121   1.006  0.00  0.00    -0.267 OA
ATOM      4  H   UNL     1      -6.750  -0.914   1.446  0.00  0.00    +0.173 HD
ENDROOT
BRANCH   2   5
ATOM      5  C   UNL     1      -9.111   0.269   1.158  0.00  0.00    +0.155 A 
ATOM      6  C   UNL     1     -10.333   1.071   0.985  0.00  0.00    +0.020 A 
ATOM      7  C   UNL     1     -10.310   2.450   0.812  0.00  0.00    +0.011 A 
ATOM      8  C   UNL     1     -11.499   3.132   0.657  0.00  0.00    +0.001 A 
ATOM      9  C   UNL     1     -12.713   2.458   0.671  0.00  0.00    +0.001 A 
ATOM     10  C   UNL     1     -12.757   1.091   0.841  0.00  0.00    +0.014 A 
ATOM     11  C   UNL     1     -11.569   0.384   0.999  0.00  0.00    +0.050 A 
ATOM     12  C   UNL     1     -11.526  -1.073   1.186  0.00  0.00    +0.275 A 
ATOM     13  O   UNL     1     -12.551  -1.729   1.209  0.00  0.00    -0.266 OA
ATOM     14  N   UNL     1     -10.323  -1.666   1.332  0.00  0.00    -0.224 N 
ATOM     15  N   UNL     1      -9.214  -1.029   1.311  0.00  0.00    -0.163 NA
BRANCH  14  16
ATOM     16  C   UNL     1     -10.285  -3.119   1.518  0.00  0.00    +0.182 C 
BRANCH  16  17
ATOM     17  C   UNL     1     -10.190  -3.795   0.175  0.00  0.00    -0.026 A 
ATOM     18  C   UNL     1     -11.341  -4.150  -0.504  0.00  0.00    +0.005 A 
ATOM     19  C   UNL     1     -11.253  -4.766  -1.738  0.00  0.00    +0.000 A 
ATOM     20  C   UNL     1     -10.015  -5.037  -2.289  0.00  0.00    +0.000 A 
ATOM     21  C   UNL     1      -8.864  -4.686  -1.609  0.00  0.00    +0.000 A 
ATOM     22  C   UNL     1      -8.951  -4.066  -0.377  0.00  0.00    +0.005 A 
ENDBRANCH  16  17
ENDBRANCH  14  16
ENDBRANCH   2   5
BRANCH   1  25
ATOM     23  C   UNL     1      -4.299   0.049   1.467  0.00  0.00    +0.250 C 
ATOM     24  O   UNL     1      -4.386  -1.152   1.614  0.00  0.00    -0.272 OA
ATOM     25  N   UNL     1      -5.412   0.791   1.308  0.00  0.00    -0.233 N 
ATOM     26  H   UNL     1      -5.333   1.880   1.175  0.00  0.00    +0.173 HD
BRANCH  23  27
ATOM     27  C   UNL     1      -2.945   0.711   1.462  0.00  0.00    +0.166 C 
BRANCH  27  28
ATOM     28  N   UNL     1      -1.968  -0.170   2.108  0.00  0.00    -0.288 N 
ATOM     29  C   UNL     1      -1.732  -1.398   1.605  0.00  0.00    +0.298 C 
ATOM     30  O   UNL     1      -2.329  -1.774   0.615  0.00  0.00    -0.253 OA
ATOM     31  N   UNL     1      -0.834  -2.208   2.199  0.00  0.00    -0.313 N 
ATOM     32  H   UNL     1      -1.428   0.171   3.003  0.00  0.00    +0.151 HD
ATOM     33  H   UNL     1      -0.641  -3.210   1.788  0.00  0.00    +0.146 HD
ATOM     34  H   UNL     1      -0.293  -1.867   3.094  0.00  0.00    +0.146 HD
ENDBRANCH  27  28
BRANCH  27  35
ATOM     35  C   UNL     1      -2.514   0.980   0.019  0.00  0.00    +0.067 C 
BRANCH  35  39
ATOM     36  C   UNL     1       1.156   3.165   0.008  0.00  0.00    +0.000 A 
ATOM     37  C   UNL     1       1.175   1.783   0.000  0.00  0.00    +0.000 A 
ATOM     38  C   UNL     1      -0.013   1.076   0.008  0.00  0.00    +0.004 A 
ATOM     39  C   UNL     1      -1.219   1.751   0.017  0.00  0.00    -0.045 A 
ATOM     40  C   UNL     1      -1.238   3.133   0.030  0.00  0.00    +0.004 A 
ATOM     41  C   UNL     1      -0.050   3.840   0.022  0.00  0.00    +0.000 A 
ENDBRANCH  35  39
ENDBRANCH  27  35
ENDBRANCH  23  27
ENDBRANCH   1  25
TORSDOF 8
