REMARK  Name = ZINC58565284
REMARK  6 active torsions:
REMARK  status: ('A' for Active; 'I' for Inactive)
REMARK    1  A    between atoms: N_11  and  C_12
REMARK    2  A    between atoms: C_18  and  C_20
REMARK    3  A    between atoms: C_20  and  C_21
REMARK    4  A    between atoms: C_21  and  C_22
REMARK    5  A    between atoms: C_22  and  N_23
REMARK    6  A    between atoms: N_26  and  C_27
REMARK                            x       y       z     vdW  Elec       q    Type
REMARK                         _______ _______ _______ _____ _____    ______ ____
ROOT
ATOM      1  C   UNL     1       4.875  -0.586  -0.046  0.00  0.00    +0.095 C 
ATOM      2  C   UNL     1       5.513  -1.178  -1.306  0.00  0.00    +0.044 C 
ATOM      3  C   UNL     1       7.004  -0.827  -1.332  0.00  0.00    +0.110 C 
ATOM      4  N   UNL     1       7.618  -1.278  -0.076  0.00  0.00    -0.301 N 
ATOM      5  C   UNL     1       7.027  -0.841   1.196  0.00  0.00    +0.110 C 
ATOM      6  C   UNL     1       5.536  -1.192   1.194  0.00  0.00    +0.044 C 
ATOM      7  C   UNL     1       8.702  -2.078  -0.090  0.00  0.00    +0.216 C 
ATOM      8  O   UNL     1       9.180  -2.433  -1.147  0.00  0.00    -0.276 OA
ENDROOT
BRANCH   1  19
ATOM      9  C   UNL     1      -0.017   1.377   0.010  0.00  0.00    +0.002 A 
ATOM     10  C   UNL     1       1.169   2.091   0.002  0.00  0.00    +0.002 A 
ATOM     11  C   UNL     1       2.381   1.429  -0.013  0.00  0.00    +0.028 A 
ATOM     12  C   UNL     1       2.410   0.043  -0.021  0.00  0.00    +0.070 A 
ATOM     13  C   UNL     1       1.214  -0.678  -0.013  0.00  0.00    +0.067 A 
ATOM     14  C   UNL     1       0.002  -0.004   0.002  0.00  0.00    +0.028 A 
ATOM     15  N   UNL     1       1.557  -2.028  -0.023  0.00  0.00    -0.306 N 
ATOM     16  H   UNL     1       0.934  -2.772  -0.021  0.00  0.00    +0.170 HD
ATOM     17  C   UNL     1       2.900  -2.124  -0.036  0.00  0.00    +0.328 A 
ATOM     18  O   UNL     1       3.528  -3.166  -0.047  0.00  0.00    -0.247 OA
ATOM     19  N   UNL     1       3.443  -0.892  -0.035  0.00  0.00    -0.289 N 
ENDBRANCH   1  19
BRANCH   7  20
ATOM     20  C   UNL     1       9.321  -2.533   1.206  0.00  0.00    +0.097 C 
BRANCH  20  21
ATOM     21  C   UNL     1      10.528  -3.425   0.911  0.00  0.00    +0.028 C 
BRANCH  21  22
ATOM     22  C   UNL     1      11.156  -3.886   2.228  0.00  0.00    +0.106 C 
BRANCH  22  23
ATOM     23  N   UNL     1      12.312  -4.740   1.944  0.00  0.00    -0.299 N 
ATOM     24  C   UNL     1      13.027  -5.265   2.959  0.00  0.00    +0.300 C 
ATOM     25  O   UNL     1      12.712  -5.030   4.110  0.00  0.00    -0.253 OA
ATOM     26  N   UNL     1      14.091  -6.051   2.699  0.00  0.00    -0.297 N 
ATOM     27  H   UNL     1      12.564  -4.927   1.026  0.00  0.00    +0.150 HD
ATOM     28  H   UNL     1      14.342  -6.238   1.781  0.00  0.00    +0.151 HD
BRANCH  26  29
ATOM     29  C   UNL     1      14.867  -6.622   3.802  0.00  0.00    +0.074 C 
ATOM     30  C   UNL     1      15.915  -5.608   4.267  0.00  0.00    +0.022 C 
ATOM     31  C   UNL     1      16.726  -6.205   5.419  0.00  0.00    +0.002 C 
ATOM     32  C   UNL     1      17.425  -7.480   4.944  0.00  0.00    +0.000 C 
ATOM     33  C   UNL     1      16.378  -8.493   4.479  0.00  0.00    +0.002 C 
ATOM     34  C   UNL     1      15.567  -7.897   3.327  0.00  0.00    +0.022 C 
ENDBRANCH  26  29
ENDBRANCH  22  23
ENDBRANCH  21  22
ENDBRANCH  20  21
ENDBRANCH   7  20
TORSDOF 6
