REMARK  Name = ZINC09226976
REMARK  7 active torsions:
REMARK  status: ('A' for Active; 'I' for Inactive)
REMARK    1  A    between atoms: C_1  and  C_2
REMARK    2  A    between atoms: C_5  and  C_8
REMARK    3  A    between atoms: C_9  and  C_18
REMARK    4  A    between atoms: N_28  and  C_29
REMARK    5  A    between atoms: C_29  and  C_30
REMARK    6  A    between atoms: N_32  and  C_33
REMARK    7  A    between atoms: C_33  and  C_34
REMARK                            x       y       z     vdW  Elec       q    Type
REMARK                         _______ _______ _______ _____ _____    ______ ____
ROOT
ATOM      1  C   UNL     1       4.336  -1.777  -0.049  0.00  0.00    +0.141 C 
ATOM      2  C   UNL     1       4.158  -2.411   1.308  0.00  0.00    -0.010 A 
ATOM      3  C   UNL     1       4.627  -2.099   2.563  0.00  0.00    +0.006 A 
ATOM      4  C   UNL     1       4.283  -2.890   3.647  0.00  0.00    +0.000 A 
ATOM      5  C   UNL     1       3.470  -3.995   3.470  0.00  0.00    +0.001 A 
ATOM      6  C   UNL     1       2.994  -4.317   2.216  0.00  0.00    +0.013 A 
ATOM      7  C   UNL     1       3.336  -3.524   1.119  0.00  0.00    +0.042 A 
ATOM      8  C   UNL     1       2.992  -3.608  -0.313  0.00  0.00    +0.248 C 
ATOM      9  O   UNL     1       2.289  -4.466  -0.810  0.00  0.00    -0.270 OA
ATOM     10  N   UNL     1       3.569  -2.600  -0.990  0.00  0.00    -0.278 N 
ENDROOT
BRANCH   1  12
ATOM     11  C   UNL     1       4.531   0.774  -0.037  0.00  0.00    +0.053 A 
ATOM     12  C   UNL     1       3.800  -0.368  -0.036  0.00  0.00    +0.010 A 
ATOM     13  C   UNL     1       2.393   0.027  -0.021  0.00  0.00    +0.006 A 
ATOM     14  C   UNL     1       1.188  -0.682  -0.013  0.00  0.00    +0.010 A 
ATOM     15  C   UNL     1       0.002  -0.004   0.002  0.00  0.00    +0.001 A 
ATOM     16  C   UNL     1      -0.017   1.384   0.010  0.00  0.00    +0.002 A 
ATOM     17  C   UNL     1       1.158   2.103   0.002  0.00  0.00    +0.026 A 
ATOM     18  C   UNL     1       2.378   1.435  -0.013  0.00  0.00    +0.047 A 
ATOM     19  N   UNL     1       3.688   1.861  -0.023  0.00  0.00    -0.354 N 
ATOM     20  H   UNL     1       3.973   2.788  -0.021  0.00  0.00    +0.166 HD
BRANCH  11  25
ATOM     21  C   UNL     1      10.280   1.032  -0.090  0.00  0.00    +0.044 C 
ATOM     22  C   UNL     1       8.775   0.965  -0.076  0.00  0.00    -0.050 A 
ATOM     23  C   UNL     1       8.057   1.777   0.783  0.00  0.00    +0.004 A 
ATOM     24  C   UNL     1       6.678   1.720   0.800  0.00  0.00    +0.010 A 
ATOM     25  C   UNL     1       6.009   0.840  -0.051  0.00  0.00    -0.001 A 
ATOM     26  C   UNL     1       6.739   0.019  -0.911  0.00  0.00    +0.010 A 
ATOM     27  C   UNL     1       8.117   0.090  -0.923  0.00  0.00    +0.004 A 
ENDBRANCH  11  25
ENDBRANCH   1  12
BRANCH  10  28
ATOM     28  C   UNL     1       3.450  -2.362  -2.431  0.00  0.00    +0.204 C 
BRANCH  28  29
ATOM     29  C   UNL     1       4.556  -3.089  -3.152  0.00  0.00    +0.231 C 
ATOM     30  O   UNL     1       5.364  -3.741  -2.525  0.00  0.00    -0.274 OA
ATOM     31  N   UNL     1       4.648  -3.014  -4.495  0.00  0.00    -0.305 N 
ATOM     32  H   UNL     1       4.002  -2.493  -4.997  0.00  0.00    +0.149 HD
BRANCH  31  33
ATOM     33  C   UNL     1       5.723  -3.721  -5.196  0.00  0.00    +0.199 C 
BRANCH  33  34
ATOM     34  C   UNL     1       5.601  -3.476  -6.678  0.00  0.00    +0.228 C 
ATOM     35  O   UNL     1       4.705  -2.781  -7.107  0.00  0.00    -0.274 OA
ATOM     36  N   UNL     1       6.489  -4.031  -7.528  0.00  0.00    -0.328 N 
ATOM     37  H   UNL     1       7.205  -4.588  -7.185  0.00  0.00    +0.145 HD
ATOM     38  H   UNL     1       6.410  -3.874  -8.482  0.00  0.00    +0.145 HD
ENDBRANCH  33  34
ENDBRANCH  31  33
ENDBRANCH  28  29
ENDBRANCH  10  28
TORSDOF 6
