REMARK  Name = ZINC06149440
REMARK  13 active torsions:
REMARK  status: ('A' for Active; 'I' for Inactive)
REMARK    1  A    between atoms: C_1  and  C_2
REMARK    2  A    between atoms: C_2  and  C_3
REMARK    3  A    between atoms: C_3  and  C_4
REMARK    4  A    between atoms: C_3  and  C_5
REMARK    5  A    between atoms: C_3  and  N_6
REMARK    6  A    between atoms: C_7  and  C_11
REMARK    7  A    between atoms: C_11  and  C_13
REMARK    8  A    between atoms: C_11  and  N_69
REMARK    9  A    between atoms: C_17  and  C_25
REMARK   10  A    between atoms: C_26  and  C_27
REMARK   11  A    between atoms: C_26  and  N_69
REMARK   12  A    between atoms: C_33  and  C_34
REMARK   13  A    between atoms: C_33  and  N_69
REMARK                            x       y       z     vdW  Elec       q    Type
REMARK                         _______ _______ _______ _____ _____    ______ ____
ROOT
ATOM      1  C   UNL     1       6.321  -0.820  -3.221  0.00  0.00    +0.040 C 
ENDROOT
BRANCH   1   2
ATOM      2  C   UNL     1       7.094  -0.665  -4.505  0.00  0.00    +0.011 A 
ATOM      3  C   UNL     1       7.846  -1.694  -4.970  0.00  0.00    +0.017 A 
ATOM      4  C   UNL     1       8.581  -1.512  -6.223  0.00  0.00    -0.001 A 
ATOM      5  C   UNL     1       9.369  -2.538  -6.755  0.00  0.00    +0.013 A 
ATOM      6  C   UNL     1      10.048  -2.334  -7.923  0.00  0.00    -0.050 A 
ATOM      7  C   UNL     1       9.963  -1.118  -8.587  0.00  0.00    +0.005 A 
ATOM      8  C   UNL     1       9.191  -0.094  -8.082  0.00  0.00    +0.026 A 
ATOM      9  C   UNL     1       8.492  -0.278  -6.894  0.00  0.00    +0.049 A 
ATOM     10  N   UNL     1       7.714   0.731  -6.365  0.00  0.00    -0.322 N 
ATOM     11  H   UNL     1       7.651   1.607  -6.843  0.00  0.00    +0.169 HD
ATOM     12  C   UNL     1       7.038   0.553  -5.217  0.00  0.00    +0.251 A 
ATOM     13  O   UNL     1       6.360   1.466  -4.779  0.00  0.00    -0.268 OA
ATOM     14  C   UNL     1      10.897  -3.440  -8.495  0.00  0.00    +0.044 C 
ENDBRANCH   1   2
BRANCH   1  16
ATOM     15  N   UNL     1       7.634  -0.204  -1.123  0.00  0.00    -0.225 N 
ATOM     16  C   UNL     1       6.873   0.124  -2.185  0.00  0.00    +0.143 A 
ATOM     17  N   UNL     1       6.702   1.422  -2.139  0.00  0.00    -0.115 NA
ATOM     18  N   UNL     1       7.329   1.870  -1.106  0.00  0.00    -0.023 NA
ATOM     19  N   UNL     1       7.896   0.891  -0.492  0.00  0.00    -0.043 NA
BRANCH  15  20
ATOM     20  C   UNL     1       8.083  -1.549  -0.756  0.00  0.00    +0.061 C 
ATOM     21  C   UNL     1       6.868  -2.421  -0.431  0.00  0.00    +0.036 C 
ATOM     22  C   UNL     1       8.855  -2.165  -1.924  0.00  0.00    +0.036 C 
BRANCH  20  24
ATOM     23  C   UNL     1       9.462  -2.871   0.854  0.00  0.00    +0.006 C 
ATOM     24  C   UNL     1       8.993  -1.466   0.470  0.00  0.00    +0.026 C 
ENDBRANCH  20  24
ENDBRANCH  15  20
ENDBRANCH   1  16
BRANCH   1  25
ATOM     25  N   UNL     1       4.903  -0.482  -3.467  0.00  0.00    +0.395 N 
ATOM     26  H   UNL     1       4.832   0.520  -3.680  0.00  0.00    -0.079 HD
BRANCH  25  27
ATOM     27  C   UNL     1       4.098  -0.776  -2.263  0.00  0.00    -0.041 C 
BRANCH  27  28
ATOM     28  C   UNL     1       4.173   0.408  -1.334  0.00  0.00    -0.064 A 
ATOM     29  C   UNL     1       3.343   1.496  -1.533  0.00  0.00    +0.002 A 
ATOM     30  C   UNL     1       3.411   2.582  -0.680  0.00  0.00    +0.000 A 
ATOM     31  C   UNL     1       4.310   2.581   0.370  0.00  0.00    +0.000 A 
ATOM     32  C   UNL     1       5.139   1.493   0.569  0.00  0.00    +0.000 A 
ATOM     33  C   UNL     1       5.070   0.407  -0.283  0.00  0.00    +0.002 A 
ENDBRANCH  27  28
ENDBRANCH  25  27
BRANCH  25  34
ATOM     34  C   UNL     1       4.392  -1.255  -4.618  0.00  0.00    -0.034 C 
BRANCH  34  35
ATOM     35  C   UNL     1       3.142  -0.588  -5.131  0.00  0.00    -0.027 A 
ATOM     36  C   UNL     1       3.020   0.415  -6.036  0.00  0.00    +0.009 A 
ATOM     37  C   UNL     1       1.757   0.875  -6.360  0.00  0.00    +0.008 A 
ATOM     38  C   UNL     1       0.679   0.309  -5.763  0.00  0.00    +0.045 A 
ATOM     39  S   UNL     1       1.438  -0.917  -4.712  0.00  0.00    -0.103 S 
ENDBRANCH  34  35
ENDBRANCH  25  34
ENDBRANCH   1  25
TORSDOF 9
