REMARK  Name = ZINC39623188
REMARK  7 active torsions:
REMARK  status: ('A' for Active; 'I' for Inactive)
REMARK    1  A    between atoms: C_1  and  C_2
REMARK    2  A    between atoms: C_2  and  C_3
REMARK    3  A    between atoms: C_3  and  C_5
REMARK    4  A    between atoms: C_3  and  C_11
REMARK    5  A    between atoms: C_15  and  C_24
REMARK    6  A    between atoms: N_26  and  C_27
REMARK    7  A    between atoms: C_27  and  C_28
REMARK                            x       y       z     vdW  Elec       q    Type
REMARK                         _______ _______ _______ _____ _____    ______ ____
ROOT
ATOM      1  C   UNL     1       0.818  -1.742   1.015  0.00  0.00    +0.223 C 
ATOM      2  O   UNL     1       0.270  -2.351   1.909  0.00  0.00    -0.275 OA
ATOM      3  N   UNL     1       1.486  -2.410   0.054  0.00  0.00    -0.300 N 
ATOM      4  C   UNL     1       2.217  -1.846  -1.105  0.00  0.00    +0.121 C 
ATOM      5  C   UNL     1       3.483  -2.723  -1.232  0.00  0.00    +0.100 C 
ATOM      6  C   UNL     1       3.106  -4.055  -0.562  0.00  0.00    -0.004 C 
ATOM      7  C   UNL     1       1.659  -3.877  -0.079  0.00  0.00    +0.115 C 
ATOM      8  C   UNL     1       3.192  -5.197  -1.570  0.00  0.00    -0.010 C 
ATOM      9  C   UNL     1       2.869  -6.518  -0.866  0.00  0.00    -0.082 C 
ATOM     10  N   UNL     1       3.821  -6.735   0.231  0.00  0.00    +0.379 N 
ATOM     11  C   UNL     1       3.667  -5.682   1.242  0.00  0.00    -0.082 C 
ATOM     12  C   UNL     1       4.023  -4.326   0.627  0.00  0.00    -0.010 C 
ATOM     13  H   UNL     1       3.644  -7.634   0.654  0.00  0.00    -0.086 HD
ATOM     14  H   UNL     1       4.761  -6.716  -0.133  0.00  0.00    -0.086 HD
ENDROOT
BRANCH   5  15
ATOM     15  C   UNL     1       4.641  -2.080  -0.513  0.00  0.00    +0.218 C 
ATOM     16  O   UNL     1       4.441  -1.382   0.458  0.00  0.00    -0.275 OA
ATOM     17  N   UNL     1       5.900  -2.282  -0.950  0.00  0.00    -0.311 N 
ATOM     18  H   UNL     1       6.061  -2.840  -1.727  0.00  0.00    +0.149 HD
BRANCH  17  19
ATOM     19  C   UNL     1       7.027  -1.657  -0.252  0.00  0.00    +0.141 C 
BRANCH  19  20
ATOM     20  C   UNL     1       8.315  -2.038  -0.935  0.00  0.00    -0.012 A 
ATOM     21  C   UNL     1       9.101  -3.049  -0.414  0.00  0.00    +0.006 A 
ATOM     22  C   UNL     1      10.282  -3.398  -1.040  0.00  0.00    +0.000 A 
ATOM     23  C   UNL     1      10.679  -2.736  -2.188  0.00  0.00    +0.001 A 
ATOM     24  C   UNL     1       9.894  -1.725  -2.709  0.00  0.00    +0.020 A 
ATOM     25  C   UNL     1       8.708  -1.379  -2.086  0.00  0.00    +0.046 A 
ATOM     26 CL   UNL     1       7.719  -0.114  -2.744  0.00  0.00    -0.083 Cl
ENDBRANCH  19  20
ENDBRANCH  17  19
ENDBRANCH   5  15
BRANCH   1  27
ATOM     27  C   UNL     1       0.753  -0.236   0.979  0.00  0.00    +0.105 C 
BRANCH  27  28
ATOM     28  C   UNL     1      -0.046   0.260   2.156  0.00  0.00    -0.036 A 
ATOM     29  C   UNL     1      -1.362  -0.132   2.313  0.00  0.00    +0.004 A 
ATOM     30  C   UNL     1      -2.095   0.323   3.393  0.00  0.00    +0.000 A 
ATOM     31  C   UNL     1      -1.512   1.171   4.316  0.00  0.00    +0.000 A 
ATOM     32  C   UNL     1      -0.195   1.562   4.160  0.00  0.00    +0.000 A 
ATOM     33  C   UNL     1       0.539   1.103   3.082  0.00  0.00    +0.004 A 
ENDBRANCH  27  28
BRANCH  27  35
ATOM     34  C   UNL     1       0.126   1.740  -0.415  0.00  0.00    +0.005 C 
ATOM     35  C   UNL     1       0.081   0.214  -0.320  0.00  0.00    +0.014 C 
ENDBRANCH  27  35
ENDBRANCH   1  27
TORSDOF 6
