REMARK  Name = ZINC09512763
REMARK  12 active torsions:
REMARK  status: ('A' for Active; 'I' for Inactive)
REMARK    1  A    between atoms: C_1  and  C_2
REMARK    2  A    between atoms: C_2  and  C_4
REMARK    3  A    between atoms: C_2  and  N_46
REMARK    4  A    between atoms: C_7  and  S_10
REMARK    5  A    between atoms: S_10  and  N_13
REMARK    6  A    between atoms: C_14  and  C_15
REMARK    7  A    between atoms: C_14  and  N_46
REMARK    8  A    between atoms: C_15  and  C_17
REMARK    9  A    between atoms: C_15  and  O_27
REMARK   10  A    between atoms: C_17  and  O_18
REMARK   11  A    between atoms: O_18  and  C_19
REMARK   12  A    between atoms: C_22  and  C_25
REMARK                            x       y       z     vdW  Elec       q    Type
REMARK                         _______ _______ _______ _____ _____    ______ ____
ROOT
ATOM      1  N   UNL     1       0.002  -0.010   0.011  0.00  0.00    +0.385 N 
ATOM      2  H   UNL     1      -0.868  -0.360   0.431  0.00  0.00    -0.085 HD
ATOM      3  H   UNL     1       0.804  -0.338   0.561  0.00  0.00    -0.085 HD
ENDROOT
BRANCH   1   5
ATOM      4  C   UNL     1       1.417   1.994  -0.001  0.00  0.00    -0.009 C 
ATOM      5  C   UNL     1      -0.018   1.465   0.010  0.00  0.00    -0.044 C 
BRANCH   5   6
ATOM      6  C   UNL     1      -0.723   1.951   1.250  0.00  0.00    -0.062 A 
ATOM      7  C   UNL     1      -0.520   1.309   2.457  0.00  0.00    +0.004 A 
ATOM      8  C   UNL     1      -1.163   1.758   3.596  0.00  0.00    +0.029 A 
ATOM      9  C   UNL     1      -2.018   2.842   3.525  0.00  0.00    +0.105 A 
ATOM     10  C   UNL     1      -2.225   3.480   2.316  0.00  0.00    +0.029 A 
ATOM     11  C   UNL     1      -1.578   3.035   1.179  0.00  0.00    +0.004 A 
BRANCH   9  12
ATOM     12  S   UNL     1      -2.844   3.409   4.974  0.00  0.00    +0.056 S 
ATOM     13  O   UNL     1      -2.060   2.984   6.080  0.00  0.00    -0.153 OA
ATOM     14  O   UNL     1      -3.166   4.775   4.749  0.00  0.00    -0.153 OA
BRANCH  12  15
ATOM     15  N   UNL     1      -4.281   2.593   5.070  0.00  0.00    -0.204 NA
ATOM     16  H   UNL     1      -4.677   2.408   5.936  0.00  0.00    +0.144 HD
ATOM     17  H   UNL     1      -4.727   2.300   4.260  0.00  0.00    +0.144 HD
ENDBRANCH  12  15
ENDBRANCH   9  12
ENDBRANCH   5   6
ENDBRANCH   1   5
BRANCH   1  18
ATOM     18  C   UNL     1       0.116  -0.521  -1.368  0.00  0.00    -0.047 C 
BRANCH  18  19
ATOM     19  C   UNL     1       0.133  -2.051  -1.336  0.00  0.00    +0.135 C 
BRANCH  19  20
ATOM     20  O   UNL     1       1.249  -2.498  -0.564  0.00  0.00    -0.390 OA
ATOM     21  H   UNL     1       2.106  -2.210  -0.907  0.00  0.00    +0.210 HD
ENDBRANCH  19  20
BRANCH  19  22
ATOM     22  C   UNL     1       0.252  -2.590  -2.763  0.00  0.00    +0.258 C 
BRANCH  22  23
ATOM     23  O   UNL     1       0.151  -4.015  -2.744  0.00  0.00    -0.489 OA
BRANCH  23  24
ATOM     24  C   UNL     1       0.237  -4.655  -3.938  0.00  0.00    +0.121 A 
ATOM     25  C   UNL     1       0.409  -3.922  -5.106  0.00  0.00    +0.047 A 
ATOM     26  C   UNL     1       0.502  -4.568  -6.319  0.00  0.00    +0.022 A 
ATOM     27  C   UNL     1       0.413  -5.962  -6.375  0.00  0.00    +0.052 A 
ATOM     28  C   UNL     1       0.234  -6.695  -5.199  0.00  0.00    +0.022 A 
ATOM     29  C   UNL     1       0.147  -6.041  -3.989  0.00  0.00    +0.047 A 
BRANCH  27  30
ATOM     30  C   UNL     1       0.504  -6.637  -7.635  0.00  0.00    +0.099 C 
ATOM     31  N   UNL     1       0.577  -7.173  -8.634  0.00  0.00    -0.191 NA
ENDBRANCH  27  30
ENDBRANCH  23  24
ENDBRANCH  22  23
ENDBRANCH  19  22
ENDBRANCH  18  19
ENDBRANCH   1  18
TORSDOF 11
