REMARK  Name = ZINC14649914
REMARK  11 active torsions:
REMARK  status: ('A' for Active; 'I' for Inactive)
REMARK    1  A    between atoms: C_1  and  C_2
REMARK    2  A    between atoms: N_4  and  C_5
REMARK    3  A    between atoms: C_8  and  C_11
REMARK    4  A    between atoms: N_13  and  N_14
REMARK    5  A    between atoms: C_15  and  C_17
REMARK    6  A    between atoms: C_17  and  O_18
REMARK    7  A    between atoms: O_18  and  C_19
REMARK    8  A    between atoms: C_22  and  C_26
REMARK    9  A    between atoms: C_26  and  C_27
REMARK   10  A    between atoms: C_26  and  C_28
REMARK   11  A    between atoms: C_26  and  C_29
REMARK                            x       y       z     vdW  Elec       q    Type
REMARK                         _______ _______ _______ _____ _____    ______ ____
ROOT
ATOM      1  N   UNL     1       2.356   1.191   0.018  0.00  0.00    -0.231 N 
ATOM      2  C   UNL     1       3.517   1.877   0.007  0.00  0.00    +0.267 C 
ATOM      3  O   UNL     1       3.505   3.089   0.004  0.00  0.00    -0.271 OA
ATOM      4  H   UNL     1       2.366   0.221   0.021  0.00  0.00    +0.173 HD
ENDROOT
BRANCH   1   7
ATOM      5  C   UNL     1      -0.024   1.194   0.038  0.00  0.00    +0.260 C 
ATOM      6  O   UNL     1      -0.012  -0.022   0.041  0.00  0.00    -0.269 OA
ATOM      7  N   UNL     1       1.136   1.879   0.026  0.00  0.00    -0.230 N 
ATOM      8  H   UNL     1       1.126   2.849   0.024  0.00  0.00    +0.173 HD
BRANCH   5  12
ATOM      9  C   UNL     1      -3.723   3.281   0.045  0.00  0.00    +0.033 A 
ATOM     10  C   UNL     1      -3.711   1.889   0.049  0.00  0.00    +0.024 A 
ATOM     11  C   UNL     1      -2.514   1.210   0.046  0.00  0.00    +0.015 A 
ATOM     12  C   UNL     1      -1.310   1.919   0.040  0.00  0.00    +0.038 A 
ATOM     13  C   UNL     1      -1.325   3.317   0.043  0.00  0.00    +0.015 A 
ATOM     14  C   UNL     1      -2.526   3.990   0.040  0.00  0.00    +0.024 A 
BRANCH   9  18
ATOM     15  C   UNL     1      -7.277   4.253  -0.705  0.00  0.00    +0.109 C 
ATOM     16  C   UNL     1      -5.996   3.464  -0.621  0.00  0.00    +0.214 C 
ATOM     17  O   UNL     1      -5.917   2.377  -1.153  0.00  0.00    -0.276 OA
ATOM     18  N   UNL     1      -4.938   3.966   0.047  0.00  0.00    -0.286 N 
ATOM     19  H   UNL     1      -5.021   4.803   0.529  0.00  0.00    +0.155 HD
ENDBRANCH   9  18
ENDBRANCH   5  12
ENDBRANCH   1   7
BRANCH   2  20
ATOM     20  C   UNL     1       4.829   1.136  -0.002  0.00  0.00    +0.326 C 
BRANCH  20  21
ATOM     21  O   UNL     1       5.906   2.075  -0.013  0.00  0.00    -0.482 OA
BRANCH  21  22
ATOM     22  C   UNL     1       7.167   1.569  -0.022  0.00  0.00    +0.135 A 
ATOM     23  C   UNL     1       7.364   0.195  -0.020  0.00  0.00    +0.047 A 
ATOM     24  C   UNL     1       8.647  -0.318  -0.029  0.00  0.00    +0.008 A 
ATOM     25  C   UNL     1       9.734   0.536  -0.041  0.00  0.00    -0.041 A 
ATOM     26  C   UNL     1       9.541   1.905  -0.043  0.00  0.00    +0.023 A 
ATOM     27  C   UNL     1       8.260   2.424  -0.038  0.00  0.00    +0.060 A 
ATOM     28 BR   UNL     1       7.997   4.296  -0.048  0.00  0.00    -0.047 Br
BRANCH  25  29
ATOM     29  C   UNL     1      11.132  -0.026  -0.052  0.00  0.00    -0.013 C 
ATOM     30  C   UNL     1      11.325  -0.889  -1.301  0.00  0.00    +0.015 C 
ATOM     31  C   UNL     1      12.144   1.121  -0.064  0.00  0.00    +0.015 C 
ATOM     32  C   UNL     1      11.347  -0.883   1.197  0.00  0.00    +0.015 C 
ENDBRANCH  25  29
ENDBRANCH  21  22
ENDBRANCH  20  21
ENDBRANCH   2  20
TORSDOF 7
