REMARK  Name = ZINC13041099
REMARK  12 active torsions:
REMARK  status: ('A' for Active; 'I' for Inactive)
REMARK    1  A    between atoms: C_1  and  C_2
REMARK    2  A    between atoms: C_2  and  O_3
REMARK    3  A    between atoms: O_3  and  C_4
REMARK    4  A    between atoms: C_4  and  C_6
REMARK    5  A    between atoms: C_7  and  C_28
REMARK    6  A    between atoms: C_8  and  C_23
REMARK    7  A    between atoms: C_10  and  N_11
REMARK    8  A    between atoms: C_12  and  C_14
REMARK    9  A    between atoms: C_14  and  N_57
REMARK   10  A    between atoms: C_17  and  C_20
REMARK   11  A    between atoms: N_25  and  C_26
REMARK   12  A    between atoms: N_25  and  C_27
REMARK                            x       y       z     vdW  Elec       q    Type
REMARK                         _______ _______ _______ _____ _____    ______ ____
ROOT
ATOM      1  N   UNL     1      -1.340  -1.732  -3.251  0.00  0.00    -0.281 N 
ATOM      2  C   UNL     1      -2.098  -1.516  -4.344  0.00  0.00    +0.201 C 
ATOM      3  O   UNL     1      -3.141  -2.119  -4.487  0.00  0.00    -0.278 OA
ATOM      4  H   UNL     1      -0.506  -1.250  -3.137  0.00  0.00    +0.155 HD
ENDROOT
BRANCH   1   9
ATOM      5  C   UNL     1      -1.110  -3.000  -1.104  0.00  0.00    +0.091 A 
ATOM      6  C   UNL     1      -1.725  -3.950  -0.303  0.00  0.00    -0.015 A 
ATOM      7  C   UNL     1      -2.921  -4.462  -0.727  0.00  0.00    +0.079 A 
ATOM      8  S   UNL     1      -3.183  -3.614  -2.273  0.00  0.00    -0.068 S 
ATOM      9  C   UNL     1      -1.750  -2.640  -2.294  0.00  0.00    +0.087 A 
ATOM     10  C   UNL     1      -1.101  -4.400   0.993  0.00  0.00    +0.046 C 
BRANCH   7  11
ATOM     11  C   UNL     1      -3.771  -5.461  -0.077  0.00  0.00    +0.253 C 
ATOM     12  O   UNL     1      -4.016  -5.370   1.112  0.00  0.00    -0.269 OA
ATOM     13  N   UNL     1      -4.281  -6.482  -0.795  0.00  0.00    -0.303 N 
ATOM     14  C   UNL     1      -5.035  -7.543  -0.124  0.00  0.00    +0.132 C 
ATOM     15  C   UNL     1      -4.080  -6.529  -2.245  0.00  0.00    +0.132 C 
ENDBRANCH   7  11
BRANCH   5  16
ATOM     16  C   UNL     1       0.171  -2.397  -0.718  0.00  0.00    +0.342 C 
ATOM     17  O   UNL     1       0.189  -1.381  -0.051  0.00  0.00    -0.245 OA
BRANCH  16  18
ATOM     18  O   UNL     1       1.329  -2.970  -1.105  0.00  0.00    -0.461 OA
BRANCH  18  20
ATOM     19  C   UNL     1       3.758  -3.108  -1.216  0.00  0.00    +0.048 C 
ATOM     20  C   UNL     1       2.558  -2.320  -0.688  0.00  0.00    +0.229 C 
ENDBRANCH  18  20
ENDBRANCH  16  18
ENDBRANCH   5  16
ENDBRANCH   1   9
BRANCH   2  21
ATOM     21  C   UNL     1      -1.651  -0.526  -5.388  0.00  0.00    +0.019 C 
BRANCH  21  27
ATOM     22  C   UNL     1      -2.374   0.440  -7.487  0.00  0.00    -0.077 C 
ATOM     23  C   UNL     1      -3.281   0.220  -8.700  0.00  0.00    -0.006 C 
ATOM     24  C   UNL     1      -2.790  -1.002  -9.482  0.00  0.00    +0.071 C 
ATOM     25  C   UNL     1      -2.780  -2.221  -8.555  0.00  0.00    -0.006 C 
ATOM     26  C   UNL     1      -1.888  -1.929  -7.346  0.00  0.00    -0.077 C 
ATOM     27  N   UNL     1      -2.428  -0.758  -6.623  0.00  0.00    +0.385 N 
ATOM     28  H   UNL     1      -3.406  -0.944  -6.372  0.00  0.00    -0.081 HD
BRANCH  24  29
ATOM     29  C   UNL     1      -3.714  -1.261 -10.644  0.00  0.00    +0.213 C 
ATOM     30  O   UNL     1      -4.307  -2.316 -10.724  0.00  0.00    -0.276 OA
ATOM     31  N   UNL     1      -3.882  -0.319 -11.594  0.00  0.00    -0.329 N 
ATOM     32  H   UNL     1      -3.408   0.524 -11.530  0.00  0.00    +0.145 HD
ATOM     33  H   UNL     1      -4.476  -0.486 -12.342  0.00  0.00    +0.145 HD
ENDBRANCH  24  29
ENDBRANCH  21  27
ENDBRANCH   2  21
TORSDOF 8
