REMARK  Name = ZINC39694745
REMARK  8 active torsions:
REMARK  status: ('A' for Active; 'I' for Inactive)
REMARK    1  A    between atoms: C_1  and  C_2
REMARK    2  A    between atoms: C_4  and  C_36
REMARK    3  A    between atoms: C_6  and  C_8
REMARK    4  A    between atoms: C_8  and  N_9
REMARK    5  A    between atoms: C_10  and  C_12
REMARK    6  A    between atoms: C_23  and  C_25
REMARK    7  A    between atoms: C_28  and  O_31
REMARK    8  A    between atoms: O_31  and  C_32
REMARK                            x       y       z     vdW  Elec       q    Type
REMARK                         _______ _______ _______ _____ _____    ______ ____
ROOT
ATOM      1  C   UNL     1       3.810  -3.965   4.433  0.00  0.00    +0.100 C 
ATOM      2  C   UNL     1       4.226  -2.486   4.599  0.00  0.00    +0.121 C 
ATOM      3  N   UNL     1       4.037  -2.204   6.042  0.00  0.00    -0.296 N 
ATOM      4  C   UNL     1       4.499  -3.437   6.723  0.00  0.00    +0.115 C 
ATOM      5  C   UNL     1       3.994  -4.586   5.828  0.00  0.00    -0.004 C 
ATOM      6  C   UNL     1       5.027  -5.707   5.775  0.00  0.00    -0.010 C 
ATOM      7  C   UNL     1       5.150  -6.348   7.160  0.00  0.00    -0.082 C 
ATOM      8  N   UNL     1       3.845  -6.878   7.574  0.00  0.00    +0.379 N 
ATOM      9  C   UNL     1       2.880  -5.779   7.712  0.00  0.00    -0.082 C 
ATOM     10  C   UNL     1       2.662  -5.114   6.351  0.00  0.00    -0.010 C 
ATOM     11  C   UNL     1       3.553  -1.079   6.607  0.00  0.00    +0.247 C 
ATOM     12  O   UNL     1       3.096  -0.196   5.908  0.00  0.00    -0.270 OA
ATOM     13  H   UNL     1       3.512  -7.530   6.879  0.00  0.00    -0.086 HD
ATOM     14  H   UNL     1       3.941  -7.353   8.459  0.00  0.00    -0.086 HD
ENDROOT
BRANCH  11  15
ATOM     15  C   UNL     1       3.580  -0.921   8.074  0.00  0.00    +0.037 A 
ATOM     16  C   UNL     1       4.465  -1.680   8.845  0.00  0.00    +0.016 A 
ATOM     17  C   UNL     1       4.487  -1.529  10.213  0.00  0.00    +0.047 A 
ATOM     18  C   UNL     1       3.630  -0.623  10.828  0.00  0.00    +0.130 A 
ATOM     19  C   UNL     1       2.749   0.134  10.065  0.00  0.00    +0.047 A 
ATOM     20  C   UNL     1       2.725  -0.007   8.695  0.00  0.00    +0.016 A 
BRANCH  18  21
ATOM     21  O   UNL     1       3.654  -0.477  12.177  0.00  0.00    -0.406 OA
BRANCH  21  22
ATOM     22  C   UNL     1       2.748   0.471  12.744  0.00  0.00    +0.575 C 
ATOM     23  F   UNL     1       1.435   0.107  12.428  0.00  0.00    -0.133 F 
ATOM     24  F   UNL     1       2.905   0.493  14.134  0.00  0.00    -0.133 F 
ATOM     25  F   UNL     1       3.017   1.742  12.224  0.00  0.00    -0.133 F 
ENDBRANCH  21  22
ENDBRANCH  18  21
ENDBRANCH  11  15
BRANCH   1  27
ATOM     26  N   UNL     1       1.930  -5.154   3.351  0.00  0.00    -0.311 N 
ATOM     27  C   UNL     1       2.369  -4.059   4.003  0.00  0.00    +0.218 C 
ATOM     28  O   UNL     1       1.604  -3.149   4.242  0.00  0.00    -0.275 OA
ATOM     29  H   UNL     1       2.542  -5.882   3.159  0.00  0.00    +0.149 HD
BRANCH  26  30
ATOM     30  C   UNL     1       0.529  -5.245   2.932  0.00  0.00    +0.139 C 
BRANCH  30  36
ATOM     31  C   UNL     1       0.449  -7.954  -1.275  0.00  0.00    +0.044 C 
ATOM     32  C   UNL     1       0.261  -7.854   0.217  0.00  0.00    -0.050 A 
ATOM     33  C   UNL     1      -0.123  -8.968   0.941  0.00  0.00    +0.006 A 
ATOM     34  C   UNL     1      -0.296  -8.877   2.309  0.00  0.00    -0.050 A 
ATOM     35  C   UNL     1      -0.085  -7.672   2.954  0.00  0.00    +0.008 A 
ATOM     36  C   UNL     1       0.300  -6.559   2.230  0.00  0.00    -0.030 A 
ATOM     37  C   UNL     1       0.477  -6.651   0.862  0.00  0.00    +0.008 A 
ATOM     38  C   UNL     1      -0.715 -10.090   3.098  0.00  0.00    +0.044 C 
ENDBRANCH  30  36
ENDBRANCH  26  30
ENDBRANCH   1  27
TORSDOF 6
