REMARK  Name = ZINC39677151
REMARK  5 active torsions:
REMARK  status: ('A' for Active; 'I' for Inactive)
REMARK    1  A    between atoms: C_1  and  C_2
REMARK    2  A    between atoms: C_6  and  C_7
REMARK    3  A    between atoms: C_7  and  N_8
REMARK    4  A    between atoms: C_9  and  C_11
REMARK    5  A    between atoms: C_22  and  C_24
REMARK                            x       y       z     vdW  Elec       q    Type
REMARK                         _______ _______ _______ _____ _____    ______ ____
ROOT
ATOM      1  C   UNL     1      -3.661   0.580   4.758  0.00  0.00    +0.100 C 
ATOM      2  C   UNL     1      -4.093  -0.901   4.668  0.00  0.00    +0.121 C 
ATOM      3  N   UNL     1      -3.881  -1.435   6.034  0.00  0.00    -0.296 N 
ATOM      4  C   UNL     1      -4.316  -0.337   6.931  0.00  0.00    +0.115 C 
ATOM      5  C   UNL     1      -3.812   0.947   6.243  0.00  0.00    -0.004 C 
ATOM      6  C   UNL     1      -4.832   2.070   6.409  0.00  0.00    -0.010 C 
ATOM      7  C   UNL     1      -4.922   2.457   7.888  0.00  0.00    -0.082 C 
ATOM      8  N   UNL     1      -3.603   2.893   8.363  0.00  0.00    +0.379 N 
ATOM      9  C   UNL     1      -2.651   1.779   8.287  0.00  0.00    -0.082 C 
ATOM     10  C   UNL     1      -2.465   1.363   6.825  0.00  0.00    -0.010 C 
ATOM     11  C   UNL     1      -3.403  -2.646   6.383  0.00  0.00    +0.247 C 
ATOM     12  O   UNL     1      -2.969  -3.396   5.530  0.00  0.00    -0.270 OA
ATOM     13  H   UNL     1      -3.275   3.654   7.788  0.00  0.00    -0.086 HD
ATOM     14  H   UNL     1      -3.678   3.205   9.319  0.00  0.00    -0.086 HD
ENDROOT
BRANCH  11  15
ATOM     15  C   UNL     1      -3.404  -3.061   7.801  0.00  0.00    +0.037 A 
ATOM     16  C   UNL     1      -4.283  -2.442   8.708  0.00  0.00    +0.013 A 
ATOM     17  C   UNL     1      -4.303  -2.805  10.016  0.00  0.00    +0.009 A 
ATOM     18  C   UNL     1      -3.438  -3.813  10.480  0.00  0.00    -0.018 A 
ATOM     19  C   UNL     1      -3.442  -4.207  11.828  0.00  0.00    +0.008 A 
ATOM     20  C   UNL     1      -2.593  -5.186  12.248  0.00  0.00    +0.001 A 
ATOM     21  C   UNL     1      -1.718  -5.807  11.359  0.00  0.00    +0.001 A 
ATOM     22  C   UNL     1      -1.686  -5.452  10.045  0.00  0.00    +0.008 A 
ATOM     23  C   UNL     1      -2.548  -4.445   9.575  0.00  0.00    -0.017 A 
ATOM     24  C   UNL     1      -2.545  -4.060   8.226  0.00  0.00    +0.021 A 
ENDBRANCH  11  15
BRANCH   1  26
ATOM     25  N   UNL     1      -1.788   1.922   3.857  0.00  0.00    -0.310 N 
ATOM     26  C   UNL     1      -2.226   0.736   4.322  0.00  0.00    +0.218 C 
ATOM     27  O   UNL     1      -1.466  -0.207   4.391  0.00  0.00    -0.275 OA
ATOM     28  H   UNL     1      -2.396   2.676   3.802  0.00  0.00    +0.149 HD
BRANCH  25  29
ATOM     29  C   UNL     1      -0.394   2.073   3.434  0.00  0.00    +0.147 C 
BRANCH  29  35
ATOM     30  C   UNL     1       0.509   4.458   5.146  0.00  0.00    +0.044 C 
ATOM     31  C   UNL     1       0.234   4.569   3.669  0.00  0.00    -0.039 A 
ATOM     32  C   UNL     1       0.388   5.778   3.015  0.00  0.00    +0.011 A 
ATOM     33  C   UNL     1       0.133   5.843   1.686  0.00  0.00    +0.046 A 
ATOM     34  S   UNL     1      -0.342   4.162   1.317  0.00  0.00    -0.100 S 
ATOM     35  C   UNL     1      -0.163   3.485   2.959  0.00  0.00    +0.010 A 
ENDBRANCH  29  35
ENDBRANCH  25  29
ENDBRANCH   1  26
TORSDOF 4
