REMARK  Name = ZINC59458896
REMARK  10 active torsions:
REMARK  status: ('A' for Active; 'I' for Inactive)
REMARK    1  A    between atoms: C_3  and  O_33
REMARK    2  A    between atoms: C_4  and  O_32
REMARK    3  A    between atoms: C_5  and  C_7
REMARK    4  A    between atoms: N_8  and  C_9
REMARK    5  A    between atoms: C_12  and  O_15
REMARK    6  A    between atoms: O_15  and  C_16
REMARK    7  A    between atoms: C_19  and  N_22
REMARK    8  A    between atoms: C_23  and  C_24
REMARK    9  A    between atoms: C_25  and  O_31
REMARK   10  A    between atoms: C_26  and  O_30
REMARK                            x       y       z     vdW  Elec       q    Type
REMARK                         _______ _______ _______ _____ _____    ______ ____
ROOT
ATOM      1  O   UNL     1       2.482  -8.287  -0.070  0.00  0.00    -0.456 OA
ENDROOT
BRANCH   1   5
ATOM      2  C   UNL     1       2.357  -4.159  -0.092  0.00  0.00    +0.064 A 
ATOM      3  C   UNL     1       2.949  -4.836   0.977  0.00  0.00    +0.031 A 
ATOM      4  C   UNL     1       2.989  -6.214   0.980  0.00  0.00    +0.048 A 
ATOM      5  C   UNL     1       2.440  -6.929  -0.077  0.00  0.00    +0.129 A 
ATOM      6  C   UNL     1       1.850  -6.259  -1.141  0.00  0.00    +0.048 A 
ATOM      7  C   UNL     1       1.802  -4.882  -1.150  0.00  0.00    +0.031 A 
BRANCH   2   9
ATOM      8  C   UNL     1       1.975  -2.144   0.980  0.00  0.00    +0.123 C 
ATOM      9  N   UNL     1       2.315  -2.791  -0.099  0.00  0.00    -0.255 NA
BRANCH   8  14
ATOM     10  C   UNL     1       1.524   1.402   2.117  0.00  0.00    +0.004 A 
ATOM     11  C   UNL     1       1.843   2.102   0.965  0.00  0.00    +0.049 A 
ATOM     12  C   UNL     1       2.207   1.425  -0.187  0.00  0.00    +0.159 A 
ATOM     13  C   UNL     1       2.253   0.035  -0.193  0.00  0.00    +0.167 A 
ATOM     14  C   UNL     1       1.930  -0.674   0.973  0.00  0.00    +0.038 A 
ATOM     15  C   UNL     1       1.565   0.025   2.129  0.00  0.00    +0.013 A 
BRANCH  13  16
ATOM     16  O   UNL     1       2.608  -0.632  -1.321  0.00  0.00    -0.503 OA
ATOM     17  H   UNL     1       3.558  -0.798  -1.397  0.00  0.00    +0.292 HD
ENDBRANCH  13  16
BRANCH  12  18
ATOM     18  O   UNL     1       2.519   2.119  -1.314  0.00  0.00    -0.503 OA
ATOM     19  H   UNL     1       3.455   2.348  -1.389  0.00  0.00    +0.292 HD
ENDBRANCH  12  18
ENDBRANCH   8  14
ENDBRANCH   2   9
ENDBRANCH   1   5
BRANCH   1  20
ATOM     20  C   UNL     1       3.258  -8.906  -0.997  0.00  0.00    +0.129 A 
ATOM     21  C   UNL     1       3.228 -10.290  -1.113  0.00  0.00    +0.048 A 
ATOM     22  C   UNL     1       4.014 -10.922  -2.052  0.00  0.00    +0.031 A 
ATOM     23  C   UNL     1       4.843 -10.169  -2.888  0.00  0.00    +0.064 A 
ATOM     24  C   UNL     1       4.870  -8.778  -2.768  0.00  0.00    +0.031 A 
ATOM     25  C   UNL     1       4.076  -8.153  -1.830  0.00  0.00    +0.048 A 
BRANCH  23  26
ATOM     26  N   UNL     1       5.625 -10.793  -3.821  0.00  0.00    -0.255 NA
ATOM     27  C   UNL     1       5.690 -10.324  -5.036  0.00  0.00    +0.123 C 
BRANCH  27  28
ATOM     28  C   UNL     1       6.531 -10.995  -6.039  0.00  0.00    +0.038 A 
ATOM     29  C   UNL     1       7.260 -12.141  -5.694  0.00  0.00    +0.167 A 
ATOM     30  C   UNL     1       8.051 -12.767  -6.651  0.00  0.00    +0.159 A 
ATOM     31  C   UNL     1       8.116 -12.256  -7.938  0.00  0.00    +0.049 A 
ATOM     32  C   UNL     1       7.396 -11.123  -8.279  0.00  0.00    +0.004 A 
ATOM     33  C   UNL     1       6.603 -10.495  -7.344  0.00  0.00    +0.013 A 
BRANCH  30  34
ATOM     34  O   UNL     1       8.761 -13.879  -6.324  0.00  0.00    -0.503 OA
ATOM     35  H   UNL     1       8.282 -14.707  -6.465  0.00  0.00    +0.292 HD
ENDBRANCH  30  34
BRANCH  29  36
ATOM     36  O   UNL     1       7.194 -12.638  -4.432  0.00  0.00    -0.503 OA
ATOM     37  H   UNL     1       6.490 -13.288  -4.301  0.00  0.00    +0.292 HD
ENDBRANCH  29  36
ENDBRANCH  27  28
ENDBRANCH  23  26
ENDBRANCH   1  20
TORSDOF 10
