REMARK  Name = ZINC41992435
REMARK  5 active torsions:
REMARK  status: ('A' for Active; 'I' for Inactive)
REMARK    1  A    between atoms: C_1  and  C_2
REMARK    2  A    between atoms: C_2  and  C_3
REMARK    3  A    between atoms: C_2  and  C_10
REMARK    4  A    between atoms: C_2  and  S_13
REMARK    5  A    between atoms: S_13  and  C_14
REMARK                            x       y       z     vdW  Elec       q    Type
REMARK                         _______ _______ _______ _____ _____    ______ ____
ROOT
ATOM      1  C   UNL     1      -0.019   1.526   0.010  0.00  0.00    +0.040 C 
ATOM      2  C   UNL     1       0.002  -0.004   0.002  0.00  0.00    +0.147 C 
ENDROOT
BRANCH   2   3
ATOM      3  C   UNL     1       0.731  -0.503   1.223  0.00  0.00    -0.020 A 
ATOM      4  C   UNL     1       1.248   0.397   2.135  0.00  0.00    +0.007 A 
ATOM      5  C   UNL     1       1.916  -0.060   3.255  0.00  0.00    +0.020 A 
ATOM      6  C   UNL     1       2.068  -1.419   3.463  0.00  0.00    +0.041 A 
ATOM      7  C   UNL     1       1.551  -2.320   2.549  0.00  0.00    +0.020 A 
ATOM      8  C   UNL     1       0.878  -1.862   1.433  0.00  0.00    +0.007 A 
ATOM      9 CL   UNL     1       2.908  -1.994   4.869  0.00  0.00    -0.084 Cl
ENDBRANCH   2   3
BRANCH   2  10
ATOM     10  C   UNL     1      -1.412  -0.526   0.013  0.00  0.00    +0.376 C 
ATOM     11  O   UNL     1      -1.810  -1.227  -0.902  0.00  0.00    -0.244 OA
ATOM     12  O   UNL     1      -2.158  -0.246   0.936  0.00  0.00    -0.244 OA
ENDBRANCH   2  10
BRANCH   2  13
ATOM     13  S   UNL     1       0.851  -0.589  -1.490  0.00  0.00    -0.062 S 
BRANCH  13  14
ATOM     14  C   UNL     1      -0.109   0.069  -2.813  0.00  0.00    +0.211 A 
ATOM     15  N   UNL     1       0.137  -0.108  -4.116  0.00  0.00    -0.188 NA
ATOM     16  C   UNL     1      -0.775   0.519  -4.828  0.00  0.00    +0.209 A 
ATOM     17  N   UNL     1      -1.632   1.117  -3.974  0.00  0.00    -0.246 N 
ATOM     18  H   UNL     1      -2.407   1.651  -4.209  0.00  0.00    +0.192 HD
ATOM     19  N   UNL     1      -1.185   0.807  -2.680  0.00  0.00    -0.144 NA
ATOM     20  N   UNL     1      -0.842   0.559  -6.209  0.00  0.00    -0.328 N 
ATOM     21  H   UNL     1      -0.176   0.096  -6.741  0.00  0.00    +0.145 HD
ATOM     22  H   UNL     1      -1.556   1.051  -6.645  0.00  0.00    +0.145 HD
ENDBRANCH  13  14
ENDBRANCH   2  13
TORSDOF 4
