REMARK  Name = ZINC33708617
REMARK  8 active torsions:
REMARK  status: ('A' for Active; 'I' for Inactive)
REMARK    1  A    between atoms: C_4  and  O_40
REMARK    2  A    between atoms: C_5  and  C_7
REMARK    3  A    between atoms: N_15  and  C_18
REMARK    4  A    between atoms: C_22  and  N_24
REMARK    5  A    between atoms: C_27  and  C_29
REMARK    6  A    between atoms: C_27  and  C_37
REMARK    7  A    between atoms: C_29  and  C_30
REMARK    8  A    between atoms: C_33  and  O_36
REMARK                            x       y       z     vdW  Elec       q    Type
REMARK                         _______ _______ _______ _____ _____    ______ ____
ROOT
ATOM      1  C   UNL     1      -1.331   2.114   0.020  0.00  0.00    -0.023 C 
ATOM      2  C   UNL     1      -1.688   2.601  -1.381  0.00  0.00    +0.077 C 
ATOM      3  C   UNL     1      -3.221   2.856  -1.113  0.00  0.00    +0.086 C 
ATOM      4  C   UNL     1      -3.569   3.710  -2.234  0.00  0.00    +0.229 C 
ATOM      5  O   UNL     1      -4.627   3.744  -2.824  0.00  0.00    -0.275 OA
ATOM      6  N   UNL     1      -2.443   4.453  -2.490  0.00  0.00    -0.210 N 
ATOM      7  C   UNL     1      -1.339   3.983  -1.835  0.00  0.00    +0.229 C 
ATOM      8  O   UNL     1      -0.292   4.567  -1.657  0.00  0.00    -0.275 OA
ATOM      9  C   UNL     1      -3.654   1.620  -0.446  0.00  0.00    +0.052 C 
ATOM     10  N   UNL     1      -2.459   1.181   0.348  0.00  0.00    +0.396 N 
ATOM     11  H   UNL     1      -2.175   0.153   0.079  0.00  0.00    -0.083 HD
ATOM     12  H   UNL     1      -2.675   1.232   1.426  0.00  0.00    -0.083 HD
ENDROOT
BRANCH   1  17
ATOM     13  C   UNL     1       1.215  -0.664  -0.210  0.00  0.00    +0.000 A 
ATOM     14  C   UNL     1       2.399   0.026  -0.021  0.00  0.00    +0.004 A 
ATOM     15  C   UNL     1       2.378   1.392   0.184  0.00  0.00    +0.045 A 
ATOM     16  C   UNL     1       1.169   2.072   0.199  0.00  0.00    +0.118 A 
ATOM     17  C   UNL     1      -0.017   1.377   0.010  0.00  0.00    -0.019 A 
ATOM     18  C   UNL     1       0.009   0.011  -0.194  0.00  0.00    +0.005 A 
BRANCH  16  19
ATOM     19  O   UNL     1       1.147   3.416   0.399  0.00  0.00    -0.507 OA
ATOM     20  H   UNL     1       0.187   3.954   0.411  0.00  0.00    +0.292 HD
ENDBRANCH  16  19
ENDBRANCH   1  17
BRANCH   6  21
ATOM     21  C   UNL     1      -2.427   5.573  -3.334  0.00  0.00    +0.046 A 
ATOM     22  C   UNL     1      -3.593   5.986  -3.963  0.00  0.00    +0.024 A 
ATOM     23  C   UNL     1      -3.575   7.090  -4.793  0.00  0.00    +0.004 A 
ATOM     24  C   UNL     1      -2.396   7.783  -4.997  0.00  0.00    +0.033 A 
ATOM     25  C   UNL     1      -1.232   7.374  -4.372  0.00  0.00    +0.128 A 
ATOM     26  C   UNL     1      -1.246   6.274  -3.537  0.00  0.00    +0.056 A 
BRANCH  25  27
ATOM     27  N   UNL     1       0.027   8.119  -4.593  0.00  0.00    +0.056 N 
ATOM     28  O   UNL     1       0.039   9.092  -5.326  0.00  0.00    -0.126 OA
ATOM     29  O   UNL     1       1.052   7.759  -4.043  0.00  0.00    -0.126 OA
ENDBRANCH  25  27
ENDBRANCH   6  21
BRANCH   9  30
ATOM     30  C   UNL     1      -4.024   0.574  -1.466  0.00  0.00    +0.347 C 
ATOM     31  O   UNL     1      -4.377   0.907  -2.572  0.00  0.00    -0.248 OA
ATOM     32  O   UNL     1      -3.960  -0.728  -1.145  0.00  0.00    -0.248 OA
ENDBRANCH   9  30
BRANCH   9  33
ATOM     33  C   UNL     1      -4.838   1.901   0.482  0.00  0.00    +0.035 C 
BRANCH  33  34
ATOM     34  C   UNL     1      -5.185   0.649   1.246  0.00  0.00    -0.048 A 
ATOM     35  C   UNL     1      -6.107  -0.242   0.728  0.00  0.00    +0.007 A 
ATOM     36  C   UNL     1      -6.423  -1.393   1.423  0.00  0.00    +0.045 A 
ATOM     37  C   UNL     1      -5.823  -1.649   2.647  0.00  0.00    +0.117 A 
ATOM     38  C   UNL     1      -4.903  -0.751   3.168  0.00  0.00    +0.045 A 
ATOM     39  C   UNL     1      -4.586   0.396   2.466  0.00  0.00    +0.007 A 
BRANCH  37  40
ATOM     40  O   UNL     1      -6.137  -2.778   3.336  0.00  0.00    -0.507 OA
ATOM     41  H   UNL     1      -5.660  -2.981   4.306  0.00  0.00    +0.292 HD
ENDBRANCH  37  40
ENDBRANCH  33  34
ENDBRANCH   9  33
TORSDOF 8
