REMARK  Name = ZINC32841120
REMARK  7 active torsions:
REMARK  status: ('A' for Active; 'I' for Inactive)
REMARK    1  A    between atoms: C_3  and  S_21
REMARK    2  A    between atoms: C_6  and  O_7
REMARK    3  A    between atoms: O_7  and  C_8
REMARK    4  A    between atoms: C_8  and  C_9
REMARK    5  A    between atoms: C_9  and  S_10
REMARK    6  A    between atoms: S_10  and  C_11
REMARK    7  A    between atoms: S_21  and  N_24
REMARK                            x       y       z     vdW  Elec       q    Type
REMARK                         _______ _______ _______ _____ _____    ______ ____
ROOT
ATOM      1  C   UNL     1      -2.076  -3.564   0.004  0.00  0.00    +0.240 C 
ENDROOT
BRANCH   1   2
ATOM      2  O   UNL     1      -1.583  -4.906  -0.009  0.00  0.00    -0.491 OA
BRANCH   2   8
ATOM      3  C   UNL     1      -3.860  -5.596   0.016  0.00  0.00    +0.047 A 
ATOM      4  C   UNL     1      -4.797  -6.610   0.014  0.00  0.00    +0.032 A 
ATOM      5  C   UNL     1      -4.388  -7.931   0.003  0.00  0.00    +0.105 A 
ATOM      6  C   UNL     1      -3.040  -8.239  -0.012  0.00  0.00    +0.032 A 
ATOM      7  C   UNL     1      -2.099  -7.228  -0.016  0.00  0.00    +0.047 A 
ATOM      8  C   UNL     1      -2.507  -5.902  -0.005  0.00  0.00    +0.121 A 
BRANCH   5   9
ATOM      9  S   UNL     1      -5.586  -9.223   0.008  0.00  0.00    +0.056 S 
ATOM     10  O   UNL     1      -6.781  -8.671  -0.528  0.00  0.00    -0.153 OA
ATOM     11  O   UNL     1      -4.955 -10.365  -0.555  0.00  0.00    -0.153 OA
BRANCH   9  12
ATOM     12  N   UNL     1      -5.903  -9.591   1.591  0.00  0.00    -0.204 NA
ATOM     13  H   UNL     1      -6.650 -10.397   1.638  0.00  0.00    +0.144 HD
ATOM     14  H   UNL     1      -6.294  -8.699   2.103  0.00  0.00    +0.144 HD
ENDBRANCH   9  12
ENDBRANCH   5   9
ENDBRANCH   2   8
ENDBRANCH   1   2
BRANCH   1  15
ATOM     15  C   UNL     1      -0.897  -2.588  -0.003  0.00  0.00    +0.118 C 
BRANCH  15  16
ATOM     16  S   UNL     1      -1.521  -0.889   0.012  0.00  0.00    -0.083 S 
BRANCH  16  17
ATOM     17  C   UNL     1       0.002  -0.004   0.002  0.00  0.00    +0.191 A 
ATOM     18  N   UNL     1      -0.016   1.324   0.009  0.00  0.00    -0.207 NA
ATOM     19  C   UNL     1       1.094   2.042   0.003  0.00  0.00    +0.129 A 
ATOM     20  C   UNL     1       2.353   1.378  -0.013  0.00  0.00    +0.047 A 
ATOM     21  C   UNL     1       3.695   1.935  -0.023  0.00  0.00    +0.021 A 
ATOM     22  C   UNL     1       4.748   1.106  -0.037  0.00  0.00    +0.048 A 
ATOM     23  S   UNL     1       4.003  -0.514  -0.039  0.00  0.00    -0.077 S 
ATOM     24  C   UNL     1       2.296  -0.032  -0.020  0.00  0.00    +0.114 A 
ATOM     25  N   UNL     1       1.145  -0.676  -0.013  0.00  0.00    -0.215 NA
ATOM     26  N   UNL     1       1.033   3.423   0.010  0.00  0.00    -0.343 N 
ATOM     27  H   UNL     1       1.960   4.015   0.004  0.00  0.00    +0.144 HD
ATOM     28  H   UNL     1       0.057   3.930   0.022  0.00  0.00    +0.144 HD
ENDBRANCH  16  17
ENDBRANCH  15  16
ENDBRANCH   1  15
TORSDOF 7
