REMARK  Name = ZINC12212490
REMARK  7 active torsions:
REMARK  status: ('A' for Active; 'I' for Inactive)
REMARK    1  A    between atoms: C_1  and  C_2
REMARK    2  A    between atoms: C_3  and  C_7
REMARK    3  A    between atoms: C_7  and  N_52
REMARK    4  A    between atoms: C_8  and  N_52
REMARK    5  A    between atoms: N_19  and  C_22
REMARK    6  A    between atoms: C_22  and  C_23
REMARK    7  A    between atoms: C_23  and  C_24
REMARK                            x       y       z     vdW  Elec       q    Type
REMARK                         _______ _______ _______ _____ _____    ______ ____
ROOT
ATOM      1  C   UNL     1       2.417   1.463   0.363  0.00  0.00    -0.066 C 
ATOM      2  C   UNL     1       2.433   0.185  -0.482  0.00  0.00    -0.011 C 
ATOM      3  C   UNL     1       1.327  -0.761  -0.015  0.00  0.00    +0.035 C 
ATOM      4  C   UNL     1       0.002  -0.004   0.002  0.00  0.00    -0.023 A 
ATOM      5  C   UNL     1      -0.016   1.350   0.009  0.00  0.00    -0.006 A 
ATOM      6  S   UNL     1      -1.736   1.791   0.036  0.00  0.00    -0.073 S 
ATOM      7  C   UNL     1      -2.424   0.166   0.028  0.00  0.00    +0.116 A 
ATOM      8  C   UNL     1      -1.287  -0.673   0.011  0.00  0.00    +0.076 A 
ATOM      9  C   UNL     1      -1.521  -2.089   0.004  0.00  0.00    +0.262 A 
ATOM     10  O   UNL     1      -0.609  -2.897  -0.010  0.00  0.00    -0.267 OA
ATOM     11  N   UNL     1      -2.821  -2.469   0.015  0.00  0.00    -0.298 N 
ATOM     12  C   UNL     1      -3.849  -1.587   0.032  0.00  0.00    +0.203 A 
ATOM     13  N   UNL     1      -3.675  -0.284   0.038  0.00  0.00    -0.230 NA
ATOM     14  C   UNL     1       1.163   2.273   0.003  0.00  0.00    +0.027 C 
ENDROOT
BRANCH   1  15
ATOM     15  N   UNL     1       3.623   2.259   0.066  0.00  0.00    +0.385 N 
ATOM     16  H   UNL     1       4.410   1.625  -0.118  0.00  0.00    -0.085 HD
ATOM     17  H   UNL     1       3.450   2.840  -0.762  0.00  0.00    -0.085 HD
BRANCH  15  18
ATOM     18  C   UNL     1       3.955   3.129   1.210  0.00  0.00    -0.020 C 
BRANCH  18  21
ATOM     19  C   UNL     1       3.974   5.957  -0.178  0.00  0.00    +0.071 C 
ATOM     20  C   UNL     1       5.198   5.193   0.259  0.00  0.00    +0.103 A 
ATOM     21  C   UNL     1       5.189   3.929   0.879  0.00  0.00    +0.090 A 
ATOM     22  N   UNL     1       6.411   3.561   1.127  0.00  0.00    -0.056 NA
ATOM     23  O   UNL     1       7.267   4.591   0.659  0.00  0.00    -0.242 OA
ATOM     24  N   UNL     1       6.425   5.599   0.122  0.00  0.00    -0.054 NA
ENDBRANCH  18  21
ENDBRANCH  15  18
ENDBRANCH   1  15
BRANCH  11  25
ATOM     25  C   UNL     1      -3.129  -3.901   0.007  0.00  0.00    +0.131 C 
BRANCH  25  26
ATOM     26  C   UNL     1      -3.251  -4.389  -1.438  0.00  0.00    +0.058 C 
BRANCH  26  27
ATOM     27  C   UNL     1      -3.569  -5.862  -1.445  0.00  0.00    -0.027 A 
ATOM     28  C   UNL     1      -2.550  -6.788  -1.573  0.00  0.00    +0.005 A 
ATOM     29  C   UNL     1      -2.841  -8.139  -1.575  0.00  0.00    +0.000 A 
ATOM     30  C   UNL     1      -4.151  -8.566  -1.460  0.00  0.00    +0.001 A 
ATOM     31  C   UNL     1      -5.171  -7.641  -1.338  0.00  0.00    +0.020 A 
ATOM     32  C   UNL     1      -4.880  -6.288  -1.331  0.00  0.00    +0.044 A 
ATOM     33 CL   UNL     1      -6.160  -5.125  -1.178  0.00  0.00    -0.083 Cl
ENDBRANCH  26  27
ENDBRANCH  25  26
ENDBRANCH  11  25
TORSDOF 6
