REMARK  Name = ZINC08817578
REMARK  11 active torsions:
REMARK  status: ('A' for Active; 'I' for Inactive)
REMARK    1  A    between atoms: C_1  and  C_2
REMARK    2  A    between atoms: C_2  and  O_3
REMARK    3  A    between atoms: O_3  and  C_4
REMARK    4  A    between atoms: C_4  and  C_6
REMARK    5  A    between atoms: C_7  and  C_26
REMARK    6  A    between atoms: C_13  and  O_25
REMARK    7  A    between atoms: C_14  and  C_17
REMARK    8  A    between atoms: C_17  and  N_62
REMARK    9  A    between atoms: C_22  and  C_24
REMARK   10  A    between atoms: C_29  and  O_32
REMARK   11  A    between atoms: O_32  and  C_33
REMARK                            x       y       z     vdW  Elec       q    Type
REMARK                         _______ _______ _______ _____ _____    ______ ____
ROOT
ATOM      1  C   UNL     1      -5.806   5.133   0.912  0.00  0.00    +0.223 A 
ATOM      2  C   UNL     1      -6.369   5.508   2.112  0.00  0.00    +0.079 A 
ATOM      3  C   UNL     1      -5.470   5.905   3.219  0.00  0.00    +0.201 A 
ATOM      4  O   UNL     1      -5.906   6.245   4.304  0.00  0.00    -0.286 OA
ATOM      5  C   UNL     1      -4.024   5.869   2.946  0.00  0.00    +0.065 A 
ATOM      6  C   UNL     1      -3.096   6.226   3.929  0.00  0.00    +0.019 A 
ATOM      7  C   UNL     1      -1.761   6.183   3.649  0.00  0.00    +0.046 A 
ATOM      8  C   UNL     1      -1.319   5.785   2.388  0.00  0.00    +0.122 A 
ATOM      9  C   UNL     1      -2.225   5.428   1.403  0.00  0.00    +0.020 A 
ATOM     10  C   UNL     1      -3.588   5.470   1.669  0.00  0.00    +0.144 A 
ATOM     11  O   UNL     1      -4.477   5.120   0.720  0.00  0.00    -0.447 OA
ENDROOT
BRANCH   2  12
ATOM     12  C   UNL     1      -7.837   5.512   2.291  0.00  0.00    -0.010 A 
ATOM     13  C   UNL     1      -8.553   4.315   2.231  0.00  0.00    +0.012 A 
ATOM     14  C   UNL     1      -9.920   4.323   2.403  0.00  0.00    +0.046 A 
ATOM     15  C   UNL     1     -10.587   5.521   2.626  0.00  0.00    +0.120 A 
ATOM     16  C   UNL     1      -9.879   6.715   2.681  0.00  0.00    +0.046 A 
ATOM     17  C   UNL     1      -8.511   6.715   2.514  0.00  0.00    +0.012 A 
BRANCH  15  18
ATOM     18  O   UNL     1     -11.935   5.526   2.789  0.00  0.00    -0.495 OA
ATOM     19  C   UNL     1     -12.601   4.263   2.721  0.00  0.00    +0.277 C 
ENDBRANCH  15  18
ENDBRANCH   2  12
BRANCH   1  20
ATOM     20  C   UNL     1      -6.691   4.735  -0.198  0.00  0.00    +0.376 C 
ATOM     21  O   UNL     1      -7.897   4.741  -0.046  0.00  0.00    -0.241 OA
BRANCH  20  22
ATOM     22  O   UNL     1      -6.163   4.365  -1.382  0.00  0.00    -0.459 OA
BRANCH  22  24
ATOM     23  C   UNL     1      -6.316   3.600  -3.689  0.00  0.00    +0.048 C 
ATOM     24  C   UNL     1      -7.095   3.986  -2.430  0.00  0.00    +0.229 C 
ENDBRANCH  22  24
ENDBRANCH  20  22
ENDBRANCH   1  20
BRANCH   8  25
ATOM     25  O   UNL     1       0.011   5.747   2.122  0.00  0.00    -0.506 OA
ATOM     26  H   UNL     1       0.365   6.575   1.770  0.00  0.00    +0.292 HD
ENDBRANCH   8  25
BRANCH   9  27
ATOM     27  C   UNL     1      -1.734   5.000   0.044  0.00  0.00    -0.035 C 
BRANCH  27  34
ATOM     28  C   UNL     1      -0.804   3.109   1.238  0.00  0.00    -0.078 C 
ATOM     29  C   UNL     1      -0.732   1.581   1.266  0.00  0.00    -0.019 C 
ATOM     30  C   UNL     1      -0.013   1.086   0.008  0.00  0.00    -0.003 C 
ATOM     31  C   UNL     1      -0.756   1.594  -1.230  0.00  0.00    -0.016 C 
ATOM     32  C   UNL     1      -0.826   3.122  -1.185  0.00  0.00    -0.071 C 
ATOM     33  C   UNL     1      -1.586   3.634  -2.411  0.00  0.00    -0.013 C 
ATOM     34  N   UNL     1      -1.552   3.533   0.035  0.00  0.00    +0.384 N 
ATOM     35  H   UNL     1      -2.475   3.083   0.041  0.00  0.00    -0.081 HD
ENDBRANCH  27  34
ENDBRANCH   9  27
TORSDOF 8
