REMARK  Name = ZINC13174191
REMARK  13 active torsions:
REMARK  status: ('A' for Active; 'I' for Inactive)
REMARK    1  A    between atoms: C_1  and  C_2
REMARK    2  A    between atoms: C_2  and  C_3
REMARK    3  A    between atoms: C_3  and  C_4
REMARK    4  A    between atoms: C_4  and  O_5
REMARK    5  A    between atoms: O_5  and  C_6
REMARK    6  A    between atoms: C_10  and  N_12
REMARK    7  A    between atoms: C_13  and  C_15
REMARK    8  A    between atoms: C_15  and  S_16
REMARK    9  A    between atoms: S_16  and  C_17
REMARK   10  A    between atoms: C_18  and  C_36
REMARK   11  A    between atoms: C_19  and  C_31
REMARK   12  A    between atoms: C_24  and  C_28
REMARK   13  A    between atoms: C_24  and  C_29
REMARK                            x       y       z     vdW  Elec       q    Type
REMARK                         _______ _______ _______ _____ _____    ______ ____
ROOT
ATOM      1  C   UNL     1       4.923 -10.429  -7.535  0.00  0.00    +0.112 C 
ATOM      2  C   UNL     1       5.170 -11.777  -7.736  0.00  0.00    +0.073 C 
ATOM      3  C   UNL     1       5.991 -12.159  -8.955  0.00  0.00    +0.104 C 
ATOM      4  C   UNL     1       6.454 -11.007  -9.828  0.00  0.00    +0.029 C 
ATOM      5  C   UNL     1       7.182 -11.251 -10.929  0.00  0.00    +0.162 C 
ATOM      6  C   UNL     1       7.659 -10.132 -11.816  0.00  0.00    +0.086 C 
ATOM      7  C   UNL     1       6.666  -8.968 -11.739  0.00  0.00    -0.023 C 
ATOM      8  C   UNL     1       6.534  -8.526 -10.279  0.00  0.00    +0.062 C 
ATOM      9  C   UNL     1       6.093  -9.703  -9.442  0.00  0.00    +0.051 C 
ATOM     10  N   UNL     1       5.374  -9.489  -8.368  0.00  0.00    -0.244 NA
ATOM     11  C   UNL     1       7.179  -7.801 -12.584  0.00  0.00    +0.011 C 
ATOM     12  C   UNL     1       5.302  -9.423 -12.262  0.00  0.00    +0.011 C 
ATOM     13  O   UNL     1       7.494 -12.524 -11.246  0.00  0.00    -0.292 OA
ENDROOT
BRANCH   3  14
ATOM     14  C   UNL     1       5.164 -13.087  -9.807  0.00  0.00    +0.002 A 
ATOM     15  C   UNL     1       5.427 -14.364 -10.180  0.00  0.00    +0.012 A 
ATOM     16  C   UNL     1       4.513 -15.031 -10.974  0.00  0.00    +0.008 A 
ATOM     17  C   UNL     1       3.382 -14.390 -11.356  0.00  0.00    +0.045 A 
ATOM     18  S   UNL     1       3.582 -12.794 -10.581  0.00  0.00    -0.101 S 
ENDBRANCH   3  14
BRANCH   2  19
ATOM     19  C   UNL     1       4.672 -12.769  -6.832  0.00  0.00    +0.098 C 
ATOM     20  N   UNL     1       4.277 -13.556  -6.115  0.00  0.00    -0.191 NA
ENDBRANCH   2  19
BRANCH   1  21
ATOM     21  S   UNL     1       3.974  -9.939  -6.134  0.00  0.00    -0.096 S 
BRANCH  21  22
ATOM     22  C   UNL     1       3.895  -8.132  -6.268  0.00  0.00    +0.172 C 
BRANCH  22  24
ATOM     23  N   UNL     1       2.909  -6.247  -5.006  0.00  0.00    -0.285 N 
ATOM     24  C   UNL     1       3.100  -7.577  -5.114  0.00  0.00    +0.227 C 
ATOM     25  O   UNL     1       2.633  -8.326  -4.283  0.00  0.00    -0.275 OA
ATOM     26  H   UNL     1       3.216  -5.654  -5.709  0.00  0.00    +0.155 HD
BRANCH  23  31
ATOM     27  C   UNL     1       0.832  -4.078  -2.878  0.00  0.00    +0.122 A 
ATOM     28  C   UNL     1       0.998  -4.689  -1.643  0.00  0.00    +0.046 A 
ATOM     29  C   UNL     1       1.795  -5.811  -1.527  0.00  0.00    +0.005 A 
ATOM     30  C   UNL     1       2.429  -6.329  -2.640  0.00  0.00    +0.023 A 
ATOM     31  C   UNL     1       2.266  -5.722  -3.879  0.00  0.00    +0.037 A 
ATOM     32  C   UNL     1       1.462  -4.598  -3.998  0.00  0.00    +0.069 A 
BRANCH  27  33
ATOM     33  O   UNL     1       0.047  -2.974  -2.991  0.00  0.00    -0.492 OA
BRANCH  33  34
ATOM     34  C   UNL     1      -0.571  -2.493  -1.796  0.00  0.00    +0.229 C 
BRANCH  34  35
ATOM     35  C   UNL     1      -1.408  -1.254  -2.118  0.00  0.00    +0.041 C 
BRANCH  35  37
ATOM     36  C   UNL     1      -2.907   0.501  -1.160  0.00  0.00    +0.004 C 
ATOM     37  C   UNL     1      -2.070  -0.738  -0.838  0.00  0.00    -0.000 C 
ENDBRANCH  35  37
ENDBRANCH  34  35
ENDBRANCH  33  34
ENDBRANCH  27  33
ENDBRANCH  23  31
ENDBRANCH  22  24
ENDBRANCH  21  22
ENDBRANCH   1  21
TORSDOF 10
