REMARK  Name = ZINC12491455
REMARK  13 active torsions:
REMARK  status: ('A' for Active; 'I' for Inactive)
REMARK    1  A    between atoms: C_1  and  C_2
REMARK    2  A    between atoms: C_2  and  C_3
REMARK    3  A    between atoms: C_3  and  C_4
REMARK    4  A    between atoms: C_3  and  C_5
REMARK    5  A    between atoms: C_3  and  N_6
REMARK    6  A    between atoms: C_7  and  C_9
REMARK    7  A    between atoms: C_9  and  C_11
REMARK    8  A    between atoms: C_9  and  N_18
REMARK    9  A    between atoms: N_18  and  C_19
REMARK   10  A    between atoms: C_26  and  C_28
REMARK   11  A    between atoms: C_28  and  C_29
REMARK   12  A    between atoms: C_29  and  C_30
REMARK   13  A    between atoms: C_35  and  C_38
REMARK                            x       y       z     vdW  Elec       q    Type
REMARK                         _______ _______ _______ _____ _____    ______ ____
ROOT
ATOM      1  N   UNL     1      -6.042  -3.092  -0.245  0.00  0.00    -0.255 N 
ATOM      2  C   UNL     1      -5.979  -1.746  -0.257  0.00  0.00    +0.221 C 
ATOM      3  O   UNL     1      -6.989  -1.092  -0.412  0.00  0.00    -0.275 OA
ENDROOT
BRANCH   1   4
ATOM      4  C   UNL     1      -4.896  -3.844   0.037  0.00  0.00    +0.040 A 
ATOM      5  C   UNL     1      -3.875  -3.934  -0.900  0.00  0.00    +0.024 A 
ATOM      6  C   UNL     1      -2.742  -4.672  -0.617  0.00  0.00    +0.005 A 
ATOM      7  C   UNL     1      -2.628  -5.331   0.593  0.00  0.00    +0.038 A 
ATOM      8  C   UNL     1      -3.647  -5.248   1.528  0.00  0.00    +0.125 A 
ATOM      9  C   UNL     1      -4.781  -4.505   1.252  0.00  0.00    +0.062 A 
ATOM     10  F   UNL     1      -3.533  -5.892   2.710  0.00  0.00    -0.205 F 
ENDBRANCH   1   4
BRANCH   1  11
ATOM     11  C   UNL     1      -7.310  -3.768  -0.528  0.00  0.00    +0.199 C 
BRANCH  11  12
ATOM     12  C   UNL     1      -7.641  -4.710   0.601  0.00  0.00    +0.000 A 
ATOM     13  C   UNL     1      -7.419  -6.066   0.457  0.00  0.00    +0.007 A 
ATOM     14  C   UNL     1      -7.722  -6.930   1.492  0.00  0.00    +0.000 A 
ATOM     15  C   UNL     1      -8.246  -6.438   2.673  0.00  0.00    +0.001 A 
ATOM     16  C   UNL     1      -8.468  -5.082   2.818  0.00  0.00    +0.020 A 
ATOM     17  C   UNL     1      -8.160  -4.216   1.784  0.00  0.00    +0.046 A 
ATOM     18 CL   UNL     1      -8.431  -2.511   1.968  0.00  0.00    -0.083 Cl
ENDBRANCH  11  12
BRANCH  11  20
ATOM     19  N   UNL     1      -8.290  -5.057  -2.398  0.00  0.00    -0.308 N 
ATOM     20  C   UNL     1      -7.189  -4.547  -1.813  0.00  0.00    +0.239 C 
ATOM     21  O   UNL     1      -6.100  -4.714  -2.320  0.00  0.00    -0.273 OA
ATOM     22  H   UNL     1      -9.168  -4.864  -2.032  0.00  0.00    +0.149 HD
BRANCH  19  23
ATOM     23  C   UNL     1      -8.162  -5.904  -3.587  0.00  0.00    +0.029 C 
ATOM     24  C   UNL     1      -7.482  -5.113  -4.706  0.00  0.00    +0.031 C 
ATOM     25  C   UNL     1      -7.320  -7.135  -3.248  0.00  0.00    +0.031 C 
BRANCH  23  27
ATOM     26  C   UNL     1      -9.418  -7.233  -5.290  0.00  0.00    +0.006 C 
ATOM     27  C   UNL     1      -9.552  -6.349  -4.048  0.00  0.00    +0.022 C 
ENDBRANCH  23  27
ENDBRANCH  19  23
ENDBRANCH  11  20
ENDBRANCH   1  11
BRANCH   2  28
ATOM     28  C   UNL     1      -4.653  -1.052  -0.078  0.00  0.00    +0.105 C 
BRANCH  28  29
ATOM     29  C   UNL     1      -4.848   0.461  -0.200  0.00  0.00    +0.105 C 
BRANCH  29  30
ATOM     30  C   UNL     1      -3.522   1.154  -0.021  0.00  0.00    +0.219 C 
ATOM     31  O   UNL     1      -2.520   0.503   0.185  0.00  0.00    -0.275 OA
ATOM     32  N   UNL     1      -3.450   2.498  -0.088  0.00  0.00    -0.268 N 
ATOM     33  C   UNL     1      -2.223   3.140   0.077  0.00  0.00    +0.168 A 
ATOM     34  C   UNL     1      -0.966   2.526   0.323  0.00  0.00    +0.091 A 
ATOM     35  C   UNL     1      -0.104   3.566   0.399  0.00  0.00    +0.136 A 
ATOM     36  O   UNL     1      -0.829   4.679   0.215  0.00  0.00    -0.358 OA
ATOM     37  N   UNL     1      -1.999   4.428   0.042  0.00  0.00    -0.063 NA
ATOM     38  C   UNL     1       1.381   3.489   0.641  0.00  0.00    +0.089 C 
ATOM     39  H   UNL     1      -4.252   3.019  -0.253  0.00  0.00    +0.156 HD
ENDBRANCH  29  30
ENDBRANCH  28  29
ENDBRANCH   2  28
TORSDOF 9
