REMARK  Name = ZINC09128294
REMARK  10 active torsions:
REMARK  status: ('A' for Active; 'I' for Inactive)
REMARK    1  A    between atoms: C_1  and  C_2
REMARK    2  A    between atoms: C_6  and  C_35
REMARK    3  A    between atoms: C_7  and  N_8
REMARK    4  A    between atoms: C_9  and  C_11
REMARK    5  A    between atoms: C_11  and  N_12
REMARK    6  A    between atoms: C_13  and  C_15
REMARK    7  A    between atoms: C_15  and  C_17
REMARK    8  A    between atoms: C_15  and  O_18
REMARK    9  A    between atoms: O_18  and  C_19
REMARK   10  A    between atoms: C_19  and  C_21
REMARK                            x       y       z     vdW  Elec       q    Type
REMARK                         _______ _______ _______ _____ _____    ______ ____
ROOT
ATOM      1  C   UNL     1      -4.304   1.303  -2.680  0.00  0.00    +0.258 C 
ATOM      2  C   UNL     1      -3.721   1.364  -4.093  0.00  0.00    +0.062 C 
ENDROOT
BRANCH   1   4
ATOM      3  N   UNL     1      -2.104   1.524  -1.571  0.00  0.00    -0.304 N 
ATOM      4  C   UNL     1      -3.363   1.982  -1.718  0.00  0.00    +0.254 C 
ATOM      5  O   UNL     1      -3.738   2.941  -1.077  0.00  0.00    -0.272 OA
ATOM      6  H   UNL     1      -1.804   0.757  -2.084  0.00  0.00    +0.149 HD
BRANCH   3   7
ATOM      7  C   UNL     1      -1.189   2.184  -0.637  0.00  0.00    +0.200 C 
BRANCH   7   9
ATOM      8  N   UNL     1       1.151   1.923   0.120  0.00  0.00    -0.284 N 
ATOM      9  C   UNL     1       0.145   1.483  -0.661  0.00  0.00    +0.234 C 
ATOM     10  O   UNL     1       0.315   0.527  -1.387  0.00  0.00    -0.274 OA
ATOM     11  H   UNL     1       1.033   2.719   0.662  0.00  0.00    +0.155 HD
BRANCH   8  18
ATOM     12  C   UNL     1       1.093  -0.874   0.642  0.00  0.00    +0.045 C 
ATOM     13  C   UNL     1       2.384  -0.135   0.402  0.00  0.00    -0.029 A 
ATOM     14  C   UNL     1       3.586  -0.816   0.426  0.00  0.00    +0.005 A 
ATOM     15  C   UNL     1       4.771  -0.138   0.211  0.00  0.00    +0.001 A 
ATOM     16  C   UNL     1       4.758   1.224  -0.033  0.00  0.00    +0.005 A 
ATOM     17  C   UNL     1       3.560   1.909  -0.064  0.00  0.00    -0.029 A 
ATOM     18  C   UNL     1       2.367   1.231   0.151  0.00  0.00    +0.039 A 
ATOM     19  C   UNL     1       3.546   3.393  -0.331  0.00  0.00    +0.045 C 
ENDBRANCH   8  18
ENDBRANCH   7   9
ENDBRANCH   3   7
ENDBRANCH   1   4
BRANCH   1  20
ATOM     20  O   UNL     1      -5.590   1.978  -2.657  0.00  0.00    -0.452 OA
BRANCH  20  21
ATOM     21  C   UNL     1      -6.675   1.232  -2.916  0.00  0.00    +0.320 C 
ATOM     22  O   UNL     1      -6.554   0.054  -3.155  0.00  0.00    -0.250 OA
BRANCH  21  23
ATOM     23  C   UNL     1      -8.043   1.864  -2.910  0.00  0.00    +0.165 C 
ATOM     24  C   UNL     1      -8.310   2.457  -1.553  0.00  0.00    +0.013 A 
ATOM     25  C   UNL     1      -7.728   3.666  -1.215  0.00  0.00    +0.008 A 
ATOM     26  C   UNL     1      -7.961   4.227   0.026  0.00  0.00    +0.001 A 
ATOM     27  C   UNL     1      -8.776   3.579   0.936  0.00  0.00    +0.004 A 
ATOM     28  C   UNL     1      -9.358   2.375   0.604  0.00  0.00    +0.046 A 
ATOM     29  C   UNL     1      -9.128   1.808  -0.644  0.00  0.00    +0.133 A 
ATOM     30  O   UNL     1      -9.710   0.624  -0.951  0.00  0.00    -0.455 OA
ATOM     31  C   UNL     1      -9.854   0.253  -2.246  0.00  0.00    +0.133 A 
ATOM     32  C   UNL     1      -9.073   0.819  -3.241  0.00  0.00    +0.013 A 
ATOM     33  C   UNL     1      -9.240   0.423  -4.556  0.00  0.00    +0.008 A 
ATOM     34  C   UNL     1     -10.181  -0.536  -4.880  0.00  0.00    +0.001 A 
ATOM     35  C   UNL     1     -10.961  -1.102  -3.889  0.00  0.00    +0.004 A 
ATOM     36  C   UNL     1     -10.800  -0.710  -2.576  0.00  0.00    +0.046 A 
ENDBRANCH  21  23
ENDBRANCH  20  21
ENDBRANCH   1  20
TORSDOF 7
