REMARK  Name = ZINC38705034
REMARK  13 active torsions:
REMARK  status: ('A' for Active; 'I' for Inactive)
REMARK    1  A    between atoms: C_1  and  C_2
REMARK    2  A    between atoms: C_2  and  O_3
REMARK    3  A    between atoms: O_3  and  C_4
REMARK    4  A    between atoms: C_6  and  C_11
REMARK    5  A    between atoms: C_9  and  O_10
REMARK    6  A    between atoms: C_14  and  C_26
REMARK    7  A    between atoms: N_21  and  C_22
REMARK    8  A    between atoms: C_22  and  C_23
REMARK    9  A    between atoms: C_23  and  O_24
REMARK   10  A    between atoms: O_24  and  C_25
REMARK   11  A    between atoms: C_27  and  C_34
REMARK   12  A    between atoms: C_29  and  C_33
REMARK   13  A    between atoms: C_31  and  O_32
REMARK                            x       y       z     vdW  Elec       q    Type
REMARK                         _______ _______ _______ _____ _____    ______ ____
ROOT
ATOM      1  C   UNL     1       0.727  -4.853   0.151  0.00  0.00    +0.141 C 
ATOM      2  C   UNL     1       0.866  -5.270  -1.287  0.00  0.00    +0.035 A 
ATOM      3  C   UNL     1       1.079  -4.879  -2.614  0.00  0.00    +0.102 A 
ATOM      4  N   UNL     1       1.056  -5.969  -3.355  0.00  0.00    -0.173 NA
ATOM      5  N   UNL     1       0.849  -7.010  -2.628  0.00  0.00    -0.272 N 
ATOM      6  H   UNL     1       0.794  -7.919  -2.961  0.00  0.00    +0.189 HD
ATOM      7  C   UNL     1       0.721  -6.644  -1.319  0.00  0.00    +0.126 A 
ATOM      8  C   UNL     1       0.493  -7.120   0.050  0.00  0.00    +0.266 C 
ATOM      9  O   UNL     1       0.326  -8.284   0.362  0.00  0.00    -0.268 OA
ATOM     10  N   UNL     1       0.495  -6.087   0.913  0.00  0.00    -0.283 N 
ENDROOT
BRANCH   3  11
ATOM     11  C   UNL     1       1.292  -3.492  -3.097  0.00  0.00    +0.047 A 
ATOM     12  C   UNL     1       0.557  -3.007  -4.176  0.00  0.00    -0.037 A 
ATOM     13  C   UNL     1       0.758  -1.717  -4.622  0.00  0.00    +0.007 A 
ATOM     14  C   UNL     1       1.688  -0.902  -4.001  0.00  0.00    -0.047 A 
ATOM     15  C   UNL     1       2.423  -1.374  -2.930  0.00  0.00    +0.049 A 
ATOM     16  C   UNL     1       2.227  -2.665  -2.468  0.00  0.00    +0.127 A 
ATOM     17  C   UNL     1       1.901   0.505  -4.495  0.00  0.00    +0.044 C 
ATOM     18  C   UNL     1      -0.457  -3.891  -4.856  0.00  0.00    +0.044 C 
BRANCH  16  19
ATOM     19  O   UNL     1       2.944  -3.128  -1.411  0.00  0.00    -0.506 OA
ATOM     20  H   UNL     1       3.812  -3.481  -1.649  0.00  0.00    +0.292 HD
ENDBRANCH  16  19
ENDBRANCH   3  11
BRANCH   1  23
ATOM     21  C   UNL     1      -1.306  -1.729   0.769  0.00  0.00    +0.162 A 
ATOM     22  C   UNL     1      -0.230  -2.590   0.624  0.00  0.00    +0.055 A 
ATOM     23  C   UNL     1      -0.445  -3.918   0.308  0.00  0.00    -0.019 A 
ATOM     24  C   UNL     1      -1.733  -4.391   0.137  0.00  0.00    +0.009 A 
ATOM     25  C   UNL     1      -2.811  -3.538   0.280  0.00  0.00    +0.049 A 
ATOM     26  C   UNL     1      -2.602  -2.207   0.602  0.00  0.00    +0.158 A 
BRANCH  26  27
ATOM     27  O   UNL     1      -3.662  -1.367   0.749  0.00  0.00    -0.503 OA
ATOM     28  H   UNL     1      -3.931  -0.926  -0.069  0.00  0.00    +0.292 HD
ENDBRANCH  26  27
BRANCH  21  29
ATOM     29  O   UNL     1      -1.096  -0.422   1.079  0.00  0.00    -0.489 OA
BRANCH  29  31
ATOM     30  C   UNL     1       0.297   1.488   1.580  0.00  0.00    +0.048 C 
ATOM     31  C   UNL     1       0.261  -0.002   1.235  0.00  0.00    +0.226 C 
ENDBRANCH  29  31
ENDBRANCH  21  29
ENDBRANCH   1  23
BRANCH  10  32
ATOM     32  C   UNL     1       0.300  -6.176   2.363  0.00  0.00    +0.137 C 
BRANCH  32  33
ATOM     33  C   UNL     1      -1.197  -6.194   2.675  0.00  0.00    +0.178 C 
BRANCH  33  34
ATOM     34  O   UNL     1      -1.779  -7.390   2.153  0.00  0.00    -0.381 OA
ATOM     35  C   UNL     1      -3.183  -7.506   2.392  0.00  0.00    +0.194 C 
ENDBRANCH  33  34
ENDBRANCH  32  33
ENDBRANCH  10  32
TORSDOF 9
