REMARK  Name = ZINC63686338
REMARK  9 active torsions:
REMARK  status: ('A' for Active; 'I' for Inactive)
REMARK    1  A    between atoms: C_1  and  C_2
REMARK    2  A    between atoms: C_9  and  C_13
REMARK    3  A    between atoms: C_13  and  S_14
REMARK    4  A    between atoms: S_14  and  C_15
REMARK    5  A    between atoms: C_19  and  C_28
REMARK    6  A    between atoms: N_21  and  C_22
REMARK    7  A    between atoms: C_28  and  C_29
REMARK    8  A    between atoms: C_29  and  C_30
REMARK    9  A    between atoms: C_29  and  C_31
REMARK                            x       y       z     vdW  Elec       q    Type
REMARK                         _______ _______ _______ _____ _____    ______ ____
ROOT
ATOM      1  C   UNL     1       1.336   1.444   6.386  0.00  0.00    +0.217 C 
ATOM      2  N   UNL     1       0.877   0.576   7.495  0.00  0.00    -0.226 NA
ATOM      3  N   UNL     1       0.419   1.517   8.530  0.00  0.00    -0.234 NA
ATOM      4  C   UNL     1      -0.222   2.599   7.738  0.00  0.00    +0.158 C 
ATOM      5  N   UNL     1       0.636   2.731   6.541  0.00  0.00    -0.288 N 
ATOM      6  H   UNL     1       0.125  -0.026   7.196  0.00  0.00    +0.143 HD
ATOM      7  H   UNL     1      -0.246   1.078   9.149  0.00  0.00    +0.143 HD
ENDROOT
BRANCH   5   8
ATOM      8  C   UNL     1       0.759   3.854   5.720  0.00  0.00    +0.033 A 
ATOM      9  C   UNL     1      -0.190   4.867   5.778  0.00  0.00    +0.023 A 
ATOM     10  C   UNL     1      -0.065   5.976   4.965  0.00  0.00    +0.002 A 
ATOM     11  C   UNL     1       1.004   6.078   4.092  0.00  0.00    +0.000 A 
ATOM     12  C   UNL     1       1.950   5.072   4.032  0.00  0.00    +0.002 A 
ATOM     13  C   UNL     1       1.834   3.963   4.847  0.00  0.00    +0.023 A 
ENDBRANCH   5   8
BRANCH   1  14
ATOM     14  S   UNL     1       0.908   0.692   4.792  0.00  0.00    -0.116 S 
BRANCH  14  15
ATOM     15  C   UNL     1      -0.893   0.497   4.867  0.00  0.00    +0.125 C 
BRANCH  15  24
ATOM     16  C   UNL     1      -1.507   2.370   0.189  0.00  0.00    +0.046 C 
ATOM     17  C   UNL     1      -1.933   0.926   0.126  0.00  0.00    -0.026 A 
ATOM     18  C   UNL     1      -2.372   0.385  -1.063  0.00  0.00    +0.005 A 
ATOM     19  C   UNL     1      -2.767  -0.943  -1.133  0.00  0.00    +0.001 A 
ATOM     20  C   UNL     1      -2.729  -1.740  -0.023  0.00  0.00    +0.014 A 
ATOM     21  C   UNL     1      -2.288  -1.212   1.190  0.00  0.00    +0.045 A 
ATOM     22  C   UNL     1      -1.881   0.132   1.267  0.00  0.00    +0.053 A 
ATOM     23  N   UNL     1      -1.442   0.640   2.469  0.00  0.00    -0.357 N 
ATOM     24  C   UNL     1      -1.386  -0.125   3.586  0.00  0.00    +0.030 A 
ATOM     25  C   UNL     1      -1.753  -1.423   3.595  0.00  0.00    +0.073 A 
ATOM     26  C   UNL     1      -2.230  -2.034   2.412  0.00  0.00    +0.190 A 
ATOM     27  O   UNL     1      -2.567  -3.206   2.399  0.00  0.00    -0.287 OA
ATOM     28  H   UNL     1      -1.165   1.569   2.518  0.00  0.00    +0.166 HD
ENDBRANCH  15  24
ENDBRANCH  14  15
ENDBRANCH   1  14
BRANCH   4  29
ATOM     29  C   UNL     1      -0.241   3.905   8.533  0.00  0.00    +0.042 C 
BRANCH  29  30
ATOM     30  C   UNL     1      -1.036   3.705   9.825  0.00  0.00    -0.014 C 
ATOM     31  C   UNL     1      -0.198   2.902  10.821  0.00  0.00    +0.007 C 
ATOM     32  C   UNL     1      -1.379   5.068  10.429  0.00  0.00    +0.007 C 
ENDBRANCH  29  30
ENDBRANCH   4  29
TORSDOF 6
