REMARK  Name = ZINC38008947
REMARK  5 active torsions:
REMARK  status: ('A' for Active; 'I' for Inactive)
REMARK    1  A    between atoms: C_1  and  C_2
REMARK    2  A    between atoms: C_8  and  N_10
REMARK    3  A    between atoms: N_10  and  S_11
REMARK    4  A    between atoms: S_11  and  C_14
REMARK    5  A    between atoms: N_20  and  N_21
REMARK                            x       y       z     vdW  Elec       q    Type
REMARK                         _______ _______ _______ _____ _____    ______ ____
ROOT
ATOM      1  S   UNL     1       2.864   0.392   2.655  0.00  0.00    +0.059 S 
ATOM      2  O   UNL     1       4.176   0.820   2.319  0.00  0.00    -0.153 OA
ATOM      3  O   UNL     1       1.955   1.214   3.375  0.00  0.00    -0.153 OA
ENDROOT
BRANCH   1   4
ATOM      4  C   UNL     1       3.041  -1.095   3.582  0.00  0.00    +0.110 A 
ATOM      5  C   UNL     1       2.045  -1.509   4.457  0.00  0.00    +0.048 A 
ATOM      6  C   UNL     1       2.214  -2.680   5.169  0.00  0.00    +0.115 A 
ATOM      7  N   UNL     1       3.306  -3.407   5.027  0.00  0.00    -0.239 NA
ATOM      8  C   UNL     1       4.277  -3.046   4.202  0.00  0.00    +0.134 A 
ATOM      9  C   UNL     1       4.171  -1.881   3.450  0.00  0.00    +0.073 A 
ATOM     10  N   UNL     1       5.411  -3.842   4.084  0.00  0.00    -0.267 N 
ATOM     11  H   UNL     1       6.125  -3.582   3.481  0.00  0.00    +0.167 HD
BRANCH  10  12
ATOM     12  N   UNL     1       5.519  -4.990   4.815  0.00  0.00    -0.255 NA
ATOM     13  H   UNL     1       4.735  -5.602   4.646  0.00  0.00    +0.140 HD
ATOM     14  H   UNL     1       6.392  -5.460   4.625  0.00  0.00    +0.140 HD
ENDBRANCH  10  12
ENDBRANCH   1   4
BRANCH   1  15
ATOM     15  N   UNL     1       2.116  -0.004   1.231  0.00  0.00    -0.187 NA
ATOM     16  H   UNL     1       2.589   0.100   0.390  0.00  0.00    +0.148 HD
BRANCH  15  23
ATOM     17  C   UNL     1      -0.019   1.526   0.010  0.00  0.00    +0.009 C 
ATOM     18  C   UNL     1       0.002  -0.004   0.002  0.00  0.00    +0.005 C 
ATOM     19  C   UNL     1      -1.433  -0.534   0.013  0.00  0.00    +0.005 C 
ATOM     20  C   UNL     1      -1.413  -2.063   0.004  0.00  0.00    +0.000 C 
ATOM     21  C   UNL     1      -0.673  -2.570   1.244  0.00  0.00    +0.002 C 
ATOM     22  C   UNL     1       0.763  -2.041   1.233  0.00  0.00    +0.020 C 
ATOM     23  C   UNL     1       0.742  -0.511   1.242  0.00  0.00    +0.079 C 
ENDBRANCH  15  23
ENDBRANCH   1  15
TORSDOF 4
