REMARK  Name = ZINC09086613
REMARK  8 active torsions:
REMARK  status: ('A' for Active; 'I' for Inactive)
REMARK    1  A    between atoms: C_4  and  C_7
REMARK    2  A    between atoms: N_9  and  C_10
REMARK    3  A    between atoms: C_10  and  C_11
REMARK    4  A    between atoms: C_11  and  C_12
REMARK    5  A    between atoms: N_14  and  N_15
REMARK    6  A    between atoms: N_15  and  C_16
REMARK    7  A    between atoms: C_19  and  N_29
REMARK    8  A    between atoms: C_21  and  N_26
REMARK                            x       y       z     vdW  Elec       q    Type
REMARK                         _______ _______ _______ _____ _____    ______ ____
ROOT
ATOM      1  N   UNL     1       7.305  -7.013  -0.107  0.00  0.00    -0.259 N 
ATOM      2  H   UNL     1       8.128  -6.506  -0.026  0.00  0.00    +0.170 HD
ENDROOT
BRANCH   1   3
ATOM      3  C   UNL     1       7.330  -8.345  -0.013  0.00  0.00    +0.116 C 
ATOM      4  C   UNL     1       6.223  -9.228   0.009  0.00  0.00    +0.028 A 
ATOM      5  C   UNL     1       4.838  -9.031  -0.052  0.00  0.00    +0.044 A 
ATOM      6  C   UNL     1       3.990 -10.120  -0.006  0.00  0.00    +0.129 A 
ATOM      7  C   UNL     1       4.503 -11.403   0.101  0.00  0.00    +0.067 A 
ATOM      8  C   UNL     1       5.871 -11.619   0.163  0.00  0.00    +0.150 A 
ATOM      9  C   UNL     1       6.751 -10.541   0.119  0.00  0.00    +0.074 A 
ATOM     10  N   UNL     1       8.113 -10.482   0.162  0.00  0.00    -0.278 N 
ATOM     11  C   UNL     1       8.540  -9.234   0.084  0.00  0.00    +0.264 C 
ATOM     12  O   UNL     1       9.702  -8.870   0.094  0.00  0.00    -0.268 OA
ATOM     13  H   UNL     1       8.693 -11.256   0.236  0.00  0.00    +0.155 HD
BRANCH   8  14
ATOM     14  N   UNL     1       6.397 -12.998   0.277  0.00  0.00    +0.058 N 
ATOM     15  O   UNL     1       5.633 -13.935   0.316  0.00  0.00    -0.126 OA
ATOM     16  O   UNL     1       7.589 -13.188   0.332  0.00  0.00    -0.126 OA
ENDBRANCH   8  14
BRANCH   6  17
ATOM     17  N   UNL     1       2.525  -9.916  -0.070  0.00  0.00    +0.057 N 
ATOM     18  O   UNL     1       2.074  -8.798  -0.163  0.00  0.00    -0.126 OA
ATOM     19  O   UNL     1       1.780 -10.867  -0.030  0.00  0.00    -0.126 OA
ENDBRANCH   6  17
ENDBRANCH   1   3
BRANCH   1  22
ATOM     20  C   UNL     1       6.046  -5.002  -0.295  0.00  0.00    +0.231 C 
ATOM     21  O   UNL     1       7.057  -4.365  -0.086  0.00  0.00    -0.274 OA
ATOM     22  N   UNL     1       6.091  -6.348  -0.321  0.00  0.00    -0.236 N 
ATOM     23  H   UNL     1       5.282  -6.857  -0.488  0.00  0.00    +0.173 HD
BRANCH  20  24
ATOM     24  C   UNL     1       4.740  -4.287  -0.525  0.00  0.00    +0.116 C 
BRANCH  24  25
ATOM     25  C   UNL     1       4.964  -2.775  -0.444  0.00  0.00    +0.114 C 
BRANCH  25  28
ATOM     26  C   UNL     1       3.650  -0.733  -0.642  0.00  0.00    +0.244 C 
ATOM     27  O   UNL     1       4.663  -0.096  -0.433  0.00  0.00    -0.270 OA
ATOM     28  N   UNL     1       3.694  -2.080  -0.668  0.00  0.00    -0.311 N 
ATOM     29  H   UNL     1       2.886  -2.589  -0.835  0.00  0.00    +0.149 HD
BRANCH  26  33
ATOM     30  C   UNL     1      -0.032   1.282  -1.293  0.00  0.00    +0.000 A 
ATOM     31  C   UNL     1       1.119   2.011  -1.054  0.00  0.00    +0.001 A 
ATOM     32  C   UNL     1       2.318   1.363  -0.842  0.00  0.00    +0.013 A 
ATOM     33  C   UNL     1       2.368  -0.032  -0.868  0.00  0.00    +0.037 A 
ATOM     34  C   UNL     1       1.203  -0.761  -1.109  0.00  0.00    +0.013 A 
ATOM     35  C   UNL     1       0.010  -0.100  -1.320  0.00  0.00    +0.001 A 
ENDBRANCH  26  33
ENDBRANCH  25  28
ENDBRANCH  24  25
ENDBRANCH  20  24
ENDBRANCH   1  22
TORSDOF 8
