REMARK  Name = ZINC03296710
REMARK  7 active torsions:
REMARK  status: ('A' for Active; 'I' for Inactive)
REMARK    1  A    between atoms: C_2  and  C_3
REMARK    2  A    between atoms: C_2  and  N_9
REMARK    3  A    between atoms: N_9  and  N_10
REMARK    4  A    between atoms: C_11  and  C_13
REMARK    5  A    between atoms: C_17  and  S_19
REMARK    6  A    between atoms: S_19  and  N_22
REMARK    7  A    between atoms: N_22  and  C_23
REMARK                            x       y       z     vdW  Elec       q    Type
REMARK                         _______ _______ _______ _____ _____    ______ ____
ROOT
ATOM      1  C   UNL     1      -1.038   2.334  -0.104  0.00  0.00    +0.040 A 
ATOM      2  C   UNL     1      -0.766   0.968  -0.013  0.00  0.00    +0.014 A 
ATOM      3  C   UNL     1       0.538   0.533   0.093  0.00  0.00    +0.023 A 
ATOM      4  C   UNL     1       1.578   1.448   0.097  0.00  0.00    +0.068 A 
ATOM      5  C   UNL     1       1.315   2.804   0.002  0.00  0.00    +0.127 A 
ATOM      6  C   UNL     1       0.014   3.252  -0.099  0.00  0.00    +0.043 A 
ATOM      7 CL   UNL     1       3.218   0.893   0.224  0.00  0.00    -0.082 Cl
ENDROOT
BRANCH   1   9
ATOM      8  N   UNL     1      -3.448   1.919  -0.217  0.00  0.00    -0.232 N 
ATOM      9  C   UNL     1      -2.434   2.807  -0.212  0.00  0.00    +0.260 C 
ATOM     10  O   UNL     1      -2.668   3.997  -0.295  0.00  0.00    -0.269 OA
ATOM     11  H   UNL     1      -3.261   0.969  -0.150  0.00  0.00    +0.173 HD
BRANCH   8  12
ATOM     12  N   UNL     1      -4.771   2.367  -0.319  0.00  0.00    -0.264 N 
ATOM     13  H   UNL     1      -4.958   3.316  -0.385  0.00  0.00    +0.170 HD
BRANCH  12  15
ATOM     14  C   UNL     1      -5.564   0.142  -0.232  0.00  0.00    +0.035 C 
ATOM     15  C   UNL     1      -5.821   1.447  -0.324  0.00  0.00    +0.045 C 
BRANCH  15  16
ATOM     16  C   UNL     1      -7.220   1.921  -0.431  0.00  0.00    -0.000 A 
ATOM     17  C   UNL     1      -7.511   3.286  -0.523  0.00  0.00    +0.029 A 
ATOM     18  C   UNL     1      -8.829   3.683  -0.625  0.00  0.00    +0.111 A 
ATOM     19  N   UNL     1      -9.806   2.796  -0.629  0.00  0.00    -0.263 NA
ATOM     20  C   UNL     1      -9.574   1.500  -0.540  0.00  0.00    +0.111 A 
ATOM     21  C   UNL     1      -8.287   1.016  -0.439  0.00  0.00    +0.029 A 
ENDBRANCH  15  16
ENDBRANCH  12  15
ENDBRANCH   8  12
ENDBRANCH   1   9
BRANCH   5  22
ATOM     22  S   UNL     1       2.644   3.961   0.009  0.00  0.00    +0.074 S 
ATOM     23  O   UNL     1       3.576   3.514  -0.966  0.00  0.00    -0.150 OA
ATOM     24  O   UNL     1       2.057   5.254  -0.034  0.00  0.00    -0.150 OA
BRANCH  22  25
ATOM     25  N   UNL     1       3.397   3.832   1.478  0.00  0.00    -0.215 N 
ATOM     26  H   UNL     1       4.298   3.475   1.532  0.00  0.00    +0.174 HD
BRANCH  25  27
ATOM     27  C   UNL     1       2.736   4.237   2.640  0.00  0.00    +0.066 A 
ATOM     28  C   UNL     1       1.366   4.050   2.763  0.00  0.00    +0.026 A 
ATOM     29  C   UNL     1       0.716   4.447   3.915  0.00  0.00    +0.002 A 
ATOM     30  C   UNL     1       1.426   5.040   4.942  0.00  0.00    +0.002 A 
ATOM     31  C   UNL     1       2.790   5.234   4.822  0.00  0.00    +0.022 A 
ATOM     32  C   UNL     1       3.448   4.834   3.674  0.00  0.00    +0.063 A 
ATOM     33 CL   UNL     1       5.160   5.078   3.524  0.00  0.00    -0.082 Cl
ENDBRANCH  25  27
ENDBRANCH  22  25
ENDBRANCH   5  22
TORSDOF 7
