REMARK  Name = ZINC21537207
REMARK  5 active torsions:
REMARK  status: ('A' for Active; 'I' for Inactive)
REMARK    1  A    between atoms: C_1  and  C_2
REMARK    2  A    between atoms: C_8  and  C_10
REMARK    3  A    between atoms: C_10  and  S_11
REMARK    4  A    between atoms: S_11  and  C_12
REMARK    5  A    between atoms: C_14  and  C_23
REMARK                            x       y       z     vdW  Elec       q    Type
REMARK                         _______ _______ _______ _____ _____    ______ ____
ROOT
ATOM      1  C   UNL     1       0.129  -9.040  -0.339  0.00  0.00    +0.192 A 
ATOM      2  N   UNL     1       0.131  -9.204   0.975  0.00  0.00    -0.202 NA
ATOM      3  C   UNL     1       0.150 -10.427   1.511  0.00  0.00    +0.166 A 
ATOM      4  N   UNL     1       0.168 -11.511   0.746  0.00  0.00    -0.208 NA
ATOM      5  C   UNL     1       0.167 -11.393  -0.585  0.00  0.00    +0.162 A 
ATOM      6  N   UNL     1       0.141 -10.136  -1.153  0.00  0.00    -0.210 N 
ATOM      7  N   UNL     1       0.139 -10.293  -2.542  0.00  0.00    -0.256 N 
ATOM      8  H   UNL     1       0.127  -9.574  -3.194  0.00  0.00    +0.191 HD
ATOM      9  C   UNL     1       0.157 -11.610  -2.823  0.00  0.00    +0.267 A 
ATOM     10  O   UNL     1       0.161 -12.101  -3.940  0.00  0.00    -0.266 OA
ATOM     11  C   UNL     1       0.184 -12.318  -1.621  0.00  0.00    +0.119 A 
ENDROOT
BRANCH   3  12
ATOM     12  C   UNL     1       0.151 -10.575   2.984  0.00  0.00    +0.038 A 
ATOM     13  C   UNL     1       0.127  -9.445   3.802  0.00  0.00    +0.013 A 
ATOM     14  C   UNL     1       0.127  -9.590   5.174  0.00  0.00    +0.001 A 
ATOM     15  C   UNL     1       0.153 -10.853   5.740  0.00  0.00    +0.001 A 
ATOM     16  C   UNL     1       0.178 -11.977   4.936  0.00  0.00    +0.021 A 
ATOM     17  C   UNL     1       0.171 -11.847   3.561  0.00  0.00    +0.052 A 
ATOM     18 CL   UNL     1       0.195 -13.260   2.552  0.00  0.00    -0.083 Cl
ENDBRANCH   3  12
BRANCH   1  19
ATOM     19  S   UNL     1       0.103  -7.420  -1.031  0.00  0.00    -0.077 S 
BRANCH  19  20
ATOM     20  C   UNL     1       0.093  -6.325   0.415  0.00  0.00    +0.173 C 
BRANCH  20  28
ATOM     21  C   UNL     1      -0.018   1.503   0.010  0.00  0.00    +0.075 C 
ATOM     22  C   UNL     1       0.002  -0.004   0.002  0.00  0.00    +0.101 A 
ATOM     23  N   UNL     1       0.010  -0.844  -1.014  0.00  0.00    -0.145 NA
ATOM     24  N   UNL     1       0.028  -2.086  -0.784  0.00  0.00    -0.126 NA
ATOM     25  C   UNL     1       0.040  -2.568   0.443  0.00  0.00    +0.188 A 
ATOM     26  S   UNL     1       0.031  -1.158   1.367  0.00  0.00    -0.036 S 
ATOM     27  N   UNL     1       0.060  -3.893   0.865  0.00  0.00    -0.263 N 
ATOM     28  C   UNL     1       0.071  -4.889  -0.043  0.00  0.00    +0.229 C 
ATOM     29  O   UNL     1       0.063  -4.630  -1.227  0.00  0.00    -0.275 OA
ATOM     30  H   UNL     1       0.067  -4.100   1.813  0.00  0.00    +0.157 HD
ENDBRANCH  20  28
ENDBRANCH  19  20
ENDBRANCH   1  19
TORSDOF 4
