REMARK  Name = ZINC63136758
REMARK  8 active torsions:
REMARK  status: ('A' for Active; 'I' for Inactive)
REMARK    1  A    between atoms: C_1  and  C_2
REMARK    2  A    between atoms: C_4  and  C_15
REMARK    3  A    between atoms: C_5  and  C_8
REMARK    4  A    between atoms: N_17  and  C_18
REMARK    5  A    between atoms: C_18  and  C_19
REMARK    6  A    between atoms: C_19  and  C_20
REMARK    7  A    between atoms: C_23  and  O_29
REMARK    8  A    between atoms: O_29  and  C_30
REMARK                            x       y       z     vdW  Elec       q    Type
REMARK                         _______ _______ _______ _____ _____    ______ ____
ROOT
ATOM      1  C   UNL     1       0.508  -0.318  -2.599  0.00  0.00    +0.245 C 
ATOM      2  O   UNL     1       1.276  -0.728  -3.451  0.00  0.00    -0.270 OA
ATOM      3  N   UNL     1      -0.615   0.333  -2.960  0.00  0.00    -0.311 N 
ATOM      4  H   UNL     1      -1.227   0.659  -2.282  0.00  0.00    +0.149 HD
ENDROOT
BRANCH   1   7
ATOM      5  C   UNL     1       0.007   1.540  -0.075  0.00  0.00    +0.046 C 
ATOM      6  C   UNL     1       0.008   0.010  -0.059  0.00  0.00    +0.182 C 
ATOM      7  C   UNL     1       0.793  -0.526  -1.234  0.00  0.00    +0.071 C 
ATOM      8  C   UNL     1       1.829  -1.249  -0.724  0.00  0.00    +0.081 C 
ATOM      9  N   UNL     1       1.795  -1.236   0.645  0.00  0.00    -0.264 N 
ATOM     10  O   UNL     1       0.692  -0.475   1.105  0.00  0.00    -0.266 OA
ATOM     11  H   UNL     1       2.435  -1.686   1.218  0.00  0.00    +0.194 HD
BRANCH   8  12
ATOM     12  C   UNL     1       2.845  -1.950  -1.534  0.00  0.00    +0.019 A 
ATOM     13  C   UNL     1       3.642  -1.235  -2.432  0.00  0.00    +0.011 A 
ATOM     14  C   UNL     1       4.589  -1.896  -3.185  0.00  0.00    +0.001 A 
ATOM     15  C   UNL     1       4.753  -3.264  -3.053  0.00  0.00    +0.001 A 
ATOM     16  C   UNL     1       3.970  -3.979  -2.166  0.00  0.00    +0.020 A 
ATOM     17  C   UNL     1       3.020  -3.330  -1.401  0.00  0.00    +0.050 A 
ATOM     18 CL   UNL     1       2.041  -4.228  -0.283  0.00  0.00    -0.083 Cl
ENDBRANCH   8  12
ENDBRANCH   1   7
BRANCH   3  19
ATOM     19  C   UNL     1      -0.912   0.549  -4.379  0.00  0.00    +0.109 C 
BRANCH  19  20
ATOM     20  C   UNL     1      -2.234   1.306  -4.513  0.00  0.00    +0.052 C 
BRANCH  20  21
ATOM     21  C   UNL     1      -2.540   1.529  -5.972  0.00  0.00    -0.040 C 
ATOM     22  C   UNL     1      -3.321   0.761  -6.765  0.00  0.00    +0.002 A 
ATOM     23  C   UNL     1      -4.090  -0.464  -6.520  0.00  0.00    +0.055 A 
ATOM     24  C   UNL     1      -4.795  -1.023  -7.532  0.00  0.00    +0.121 A 
ATOM     25  C   UNL     1      -4.819  -0.470  -8.825  0.00  0.00    +0.047 A 
ATOM     26  C   UNL     1      -4.144   0.653  -9.148  0.00  0.00    +0.029 A 
ATOM     27  C   UNL     1      -3.347   1.342  -8.128  0.00  0.00    +0.043 A 
ATOM     28  N   UNL     1      -2.612   2.425  -8.174  0.00  0.00    -0.380 N 
ATOM     29  C   UNL     1      -2.040   2.659  -6.844  0.00  0.00    +0.144 C 
ATOM     30  H   UNL     1      -2.473   2.982  -8.956  0.00  0.00    +0.160 HD
BRANCH  24  31
ATOM     31  O   UNL     1      -5.503  -2.158  -7.290  0.00  0.00    -0.495 OA
ATOM     32  C   UNL     1      -6.232  -2.714  -8.386  0.00  0.00    +0.277 C 
ENDBRANCH  24  31
ENDBRANCH  20  21
ENDBRANCH  19  20
ENDBRANCH   3  19
TORSDOF 6
