REMARK  Name = ZINC38564011
REMARK  10 active torsions:
REMARK  status: ('A' for Active; 'I' for Inactive)
REMARK    1  A    between atoms: C_1  and  C_2
REMARK    2  A    between atoms: C_2  and  O_3
REMARK    3  A    between atoms: O_3  and  C_4
REMARK    4  A    between atoms: C_7  and  C_12
REMARK    5  A    between atoms: C_9  and  O_10
REMARK    6  A    between atoms: O_10  and  C_11
REMARK    7  A    between atoms: C_14  and  C_26
REMARK    8  A    between atoms: N_28  and  C_29
REMARK    9  A    between atoms: C_29  and  C_30
REMARK   10  A    between atoms: C_30  and  C_31
REMARK                            x       y       z     vdW  Elec       q    Type
REMARK                         _______ _______ _______ _____ _____    ______ ____
ROOT
ATOM      1  C   UNL     1       1.106  -6.007  -1.838  0.00  0.00    +0.076 C 
ATOM      2  N   UNL     1       1.629  -6.510  -2.935  0.00  0.00    -0.244 NA
ATOM      3  C   UNL     1       1.900  -7.810  -3.116  0.00  0.00    +0.126 C 
ATOM      4  C   UNL     1       1.916  -8.705  -2.043  0.00  0.00    +0.039 C 
ATOM      5  C   UNL     1       1.441  -8.215  -0.836  0.00  0.00    -0.008 C 
ATOM      6  C   UNL     1       1.569  -8.602   0.472  0.00  0.00    +0.004 A 
ATOM      7  C   UNL     1       2.024  -9.802   1.065  0.00  0.00    +0.010 A 
ATOM      8  C   UNL     1       2.070  -9.838   2.428  0.00  0.00    +0.001 A 
ATOM      9  C   UNL     1       1.696  -8.765   3.237  0.00  0.00    +0.002 A 
ATOM     10  C   UNL     1       1.226  -7.584   2.748  0.00  0.00    +0.026 A 
ATOM     11  C   UNL     1       1.125  -7.470   1.333  0.00  0.00    +0.044 A 
ATOM     12  N   UNL     1       0.658  -6.487   0.602  0.00  0.00    -0.372 N 
ATOM     13  C   UNL     1       0.635  -6.931  -0.771  0.00  0.00    +0.160 C 
ATOM     14  H   UNL     1       0.379  -5.617   0.926  0.00  0.00    +0.161 HD
ENDROOT
BRANCH   1  18
ATOM     15  C   UNL     1       0.782  -1.807  -1.347  0.00  0.00    +0.162 A 
ATOM     16  C   UNL     1       1.765  -2.335  -2.175  0.00  0.00    +0.050 A 
ATOM     17  C   UNL     1       1.875  -3.697  -2.338  0.00  0.00    +0.013 A 
ATOM     18  C   UNL     1       0.993  -4.556  -1.667  0.00  0.00    +0.002 A 
ATOM     19  C   UNL     1       0.002  -4.021  -0.831  0.00  0.00    +0.059 A 
ATOM     20  C   UNL     1      -0.096  -2.654  -0.670  0.00  0.00    +0.162 A 
BRANCH  20  21
ATOM     21  O   UNL     1      -1.052  -2.132   0.144  0.00  0.00    -0.491 OA
ATOM     22  C   UNL     1      -1.917  -3.058   0.805  0.00  0.00    +0.277 C 
ENDBRANCH  20  21
BRANCH  15  23
ATOM     23  O   UNL     1       0.680  -0.462  -1.191  0.00  0.00    -0.489 OA
BRANCH  23  25
ATOM     24  C   UNL     1       1.341   1.823  -1.613  0.00  0.00    +0.048 C 
ATOM     25  C   UNL     1       1.610   0.347  -1.913  0.00  0.00    +0.226 C 
ENDBRANCH  23  25
ENDBRANCH  15  23
ENDBRANCH   1  18
BRANCH   3  26
ATOM     26  C   UNL     1       2.186  -8.308  -4.480  0.00  0.00    +0.262 C 
ATOM     27  O   UNL     1       2.433  -9.485  -4.658  0.00  0.00    -0.269 OA
ATOM     28  N   UNL     1       2.174  -7.457  -5.525  0.00  0.00    -0.310 N 
ATOM     29  H   UNL     1       1.977  -6.518  -5.383  0.00  0.00    +0.149 HD
BRANCH  28  30
ATOM     30  C   UNL     1       2.458  -7.949  -6.875  0.00  0.00    +0.109 C 
BRANCH  30  31
ATOM     31  C   UNL     1       2.380  -6.789  -7.869  0.00  0.00    +0.054 C 
BRANCH  31  32
ATOM     32  C   UNL     1       2.671  -7.296  -9.258  0.00  0.00    -0.046 A 
ATOM     33  C   UNL     1       3.971  -7.314  -9.727  0.00  0.00    +0.005 A 
ATOM     34  C   UNL     1       4.240  -7.779 -11.001  0.00  0.00    +0.020 A 
ATOM     35  C   UNL     1       3.207  -8.226 -11.806  0.00  0.00    +0.041 A 
ATOM     36  C   UNL     1       1.906  -8.207 -11.335  0.00  0.00    +0.020 A 
ATOM     37  C   UNL     1       1.640  -7.747 -10.059  0.00  0.00    +0.005 A 
ATOM     38 CL   UNL     1       3.543  -8.809 -13.406  0.00  0.00    -0.084 Cl
ENDBRANCH  31  32
ENDBRANCH  30  31
ENDBRANCH  28  30
ENDBRANCH   3  26
TORSDOF 8
