REMARK  Name = ZINC39601914
REMARK  10 active torsions:
REMARK  status: ('A' for Active; 'I' for Inactive)
REMARK    1  A    between atoms: C_4  and  O_7
REMARK    2  A    between atoms: O_7  and  C_8
REMARK    3  A    between atoms: C_11  and  C_14
REMARK    4  A    between atoms: C_18  and  C_27
REMARK    5  A    between atoms: N_29  and  C_30
REMARK    6  A    between atoms: C_30  and  C_31
REMARK    7  A    between atoms: C_31  and  O_32
REMARK    8  A    between atoms: O_32  and  C_33
REMARK    9  A    between atoms: C_33  and  C_34
REMARK   10  A    between atoms: C_34  and  O_35
REMARK                            x       y       z     vdW  Elec       q    Type
REMARK                         _______ _______ _______ _____ _____    ______ ____
ROOT
ATOM      1  C   UNL     1       3.980  -5.509  -0.228  0.00  0.00    +0.248 C 
ATOM      2  O   UNL     1       5.008  -6.139  -0.068  0.00  0.00    -0.270 OA
ATOM      3  N   UNL     1       2.789  -6.138  -0.181  0.00  0.00    -0.296 N 
ATOM      4  C   UNL     1       1.439  -5.537  -0.287  0.00  0.00    +0.121 C 
ATOM      5  C   UNL     1       0.631  -6.539  -1.140  0.00  0.00    +0.100 C 
ATOM      6  C   UNL     1       1.353  -7.884  -0.954  0.00  0.00    -0.004 C 
ATOM      7  C   UNL     1       2.534  -7.590  -0.019  0.00  0.00    +0.115 C 
ATOM      8  C   UNL     1       1.866  -8.398  -2.296  0.00  0.00    -0.010 C 
ATOM      9  C   UNL     1       2.530  -9.763  -2.095  0.00  0.00    -0.082 C 
ATOM     10  N   UNL     1       1.556 -10.704  -1.527  0.00  0.00    +0.379 N 
ATOM     11  C   UNL     1       1.138 -10.249  -0.196  0.00  0.00    -0.082 C 
ATOM     12  C   UNL     1       0.415  -8.905  -0.317  0.00  0.00    -0.010 C 
ATOM     13  H   UNL     1       0.750 -10.757  -2.132  0.00  0.00    -0.086 HD
ATOM     14  H   UNL     1       1.978 -11.618  -1.452  0.00  0.00    -0.086 HD
ENDROOT
BRANCH   1  18
ATOM     15  C   UNL     1       4.066  -1.362  -0.899  0.00  0.00    +0.220 A 
ATOM     16  C   UNL     1       5.193  -2.107  -1.236  0.00  0.00    +0.068 A 
ATOM     17  C   UNL     1       5.188  -3.470  -1.025  0.00  0.00    +0.020 A 
ATOM     18  C   UNL     1       4.037  -4.054  -0.474  0.00  0.00    +0.055 A 
ATOM     19  C   UNL     1       2.948  -3.240  -0.162  0.00  0.00    +0.127 A 
ATOM     20  N   UNL     1       2.998  -1.942  -0.376  0.00  0.00    -0.220 NA
BRANCH  15  21
ATOM     21  O   UNL     1       4.066  -0.022  -1.105  0.00  0.00    -0.438 OA
BRANCH  21  25
ATOM     22  C   UNL     1       2.669   2.401   1.927  0.00  0.00    +0.000 A 
ATOM     23  C   UNL     1       2.996   2.950   0.701  0.00  0.00    +0.004 A 
ATOM     24  C   UNL     1       3.464   2.140  -0.316  0.00  0.00    +0.046 A 
ATOM     25  C   UNL     1       3.606   0.776  -0.106  0.00  0.00    +0.130 A 
ATOM     26  C   UNL     1       3.278   0.229   1.126  0.00  0.00    +0.046 A 
ATOM     27  C   UNL     1       2.810   1.042   2.140  0.00  0.00    +0.004 A 
ENDBRANCH  21  25
ENDBRANCH  15  21
ENDBRANCH   1  18
BRANCH   5  28
ATOM     28  C   UNL     1       0.647  -6.128  -2.590  0.00  0.00    +0.218 C 
ATOM     29  O   UNL     1       1.626  -5.584  -3.054  0.00  0.00    -0.275 OA
ATOM     30  N   UNL     1      -0.426  -6.364  -3.369  0.00  0.00    -0.313 N 
ATOM     31  H   UNL     1      -1.236  -6.732  -2.982  0.00  0.00    +0.149 HD
BRANCH  30  32
ATOM     32  C   UNL     1      -0.371  -6.065  -4.802  0.00  0.00    +0.132 C 
BRANCH  32  33
ATOM     33  C   UNL     1      -1.747  -6.306  -5.427  0.00  0.00    +0.178 C 
BRANCH  33  34
ATOM     34  O   UNL     1      -2.687  -5.380  -4.880  0.00  0.00    -0.376 OA
BRANCH  34  35
ATOM     35  C   UNL     1      -4.032  -5.591  -5.315  0.00  0.00    +0.187 C 
BRANCH  35  36
ATOM     36  C   UNL     1      -4.926  -4.476  -4.769  0.00  0.00    +0.184 C 
BRANCH  36  37
ATOM     37  O   UNL     1      -4.533  -3.227  -5.341  0.00  0.00    -0.393 OA
ATOM     38  H   UNL     1      -5.058  -2.474  -5.040  0.00  0.00    +0.209 HD
ENDBRANCH  36  37
ENDBRANCH  35  36
ENDBRANCH  34  35
ENDBRANCH  33  34
ENDBRANCH  32  33
ENDBRANCH  30  32
ENDBRANCH   5  28
TORSDOF 10
