REMARK  Name = ZINC08860990
REMARK  15 active torsions:
REMARK  status: ('A' for Active; 'I' for Inactive)
REMARK    1  A    between atoms: C_1  and  C_2
REMARK    2  A    between atoms: C_2  and  O_3
REMARK    3  A    between atoms: O_3  and  C_4
REMARK    4  A    between atoms: C_6  and  C_22
REMARK    5  A    between atoms: C_9  and  O_10
REMARK    6  A    between atoms: O_10  and  C_11
REMARK    7  A    between atoms: C_11  and  C_13
REMARK    8  A    between atoms: C_16  and  N_19
REMARK    9  A    between atoms: N_23  and  N_24
REMARK   10  A    between atoms: C_25  and  C_27
REMARK   11  A    between atoms: C_30  and  C_32
REMARK   12  A    between atoms: C_35  and  C_38
REMARK   13  A    between atoms: C_38  and  C_39
REMARK   14  A    between atoms: C_38  and  C_40
REMARK   15  A    between atoms: C_38  and  C_41
REMARK                            x       y       z     vdW  Elec       q    Type
REMARK                         _______ _______ _______ _____ _____    ______ ____
ROOT
ATOM      1  C   UNL     1      -0.857   3.599   2.668  0.00  0.00    +0.163 A 
ATOM      2  C   UNL     1      -1.792   2.920   3.427  0.00  0.00    +0.059 A 
ATOM      3  C   UNL     1      -2.128   3.388   4.700  0.00  0.00    -0.002 A 
ATOM      4  C   UNL     1      -1.516   4.541   5.200  0.00  0.00    +0.013 A 
ATOM      5  C   UNL     1      -0.584   5.213   4.438  0.00  0.00    +0.051 A 
ATOM      6  C   UNL     1      -0.247   4.744   3.175  0.00  0.00    +0.173 A 
ENDROOT
BRANCH   3   7
ATOM      7  C   UNL     1      -3.124   2.668   5.513  0.00  0.00    +0.138 C 
ATOM      8  N   UNL     1      -3.648   3.240   6.554  0.00  0.00    -0.188 NA
BRANCH   8   9
ATOM      9  N   UNL     1      -3.715   4.638   6.626  0.00  0.00    -0.207 N 
ATOM     10  C   UNL     1      -4.136   5.235   7.758  0.00  0.00    +0.236 C 
ATOM     11  O   UNL     1      -4.457   4.562   8.716  0.00  0.00    -0.274 OA
ATOM     12  H   UNL     1      -3.459   5.176   5.861  0.00  0.00    +0.177 HD
BRANCH  10  13
ATOM     13  C   UNL     1      -4.209   6.738   7.835  0.00  0.00    +0.085 C 
ATOM     14  C   UNL     1      -5.598   7.375   7.913  0.00  0.00    +0.022 C 
ATOM     15  C   UNL     1      -4.695   7.356   9.148  0.00  0.00    +0.032 C 
BRANCH  15  16
ATOM     16  C   UNL     1      -5.064   6.414  10.265  0.00  0.00    -0.044 A 
ATOM     17  C   UNL     1      -6.076   5.489  10.084  0.00  0.00    +0.004 A 
ATOM     18  C   UNL     1      -6.411   4.623  11.107  0.00  0.00    +0.004 A 
ATOM     19  C   UNL     1      -5.742   4.687  12.315  0.00  0.00    -0.042 A 
ATOM     20  C   UNL     1      -4.734   5.615  12.498  0.00  0.00    +0.004 A 
ATOM     21  C   UNL     1      -4.396   6.479  11.473  0.00  0.00    +0.004 A 
BRANCH  19  22
ATOM     22  C   UNL     1      -6.110   3.744  13.432  0.00  0.00    -0.013 C 
ATOM     23  C   UNL     1      -6.567   4.551  14.649  0.00  0.00    +0.015 C 
ATOM     24  C   UNL     1      -7.246   2.828  12.972  0.00  0.00    +0.015 C 
ATOM     25  C   UNL     1      -4.892   2.898  13.808  0.00  0.00    +0.015 C 
ENDBRANCH  19  22
ENDBRANCH  15  16
ENDBRANCH  10  13
ENDBRANCH   8   9
ENDBRANCH   3   7
BRANCH   1  26
ATOM     26  O   UNL     1      -0.528   3.145   1.429  0.00  0.00    -0.489 OA
BRANCH  26  28
ATOM     27  C   UNL     1      -0.692   1.608  -0.428  0.00  0.00    +0.048 C 
ATOM     28  C   UNL     1      -1.188   1.962   0.975  0.00  0.00    +0.226 C 
ENDBRANCH  26  28
ENDBRANCH   1  26
BRANCH   6  29
ATOM     29  O   UNL     1       0.676   5.407   2.430  0.00  0.00    -0.419 OA
BRANCH  29  30
ATOM     30  C   UNL     1       0.211   6.232   1.472  0.00  0.00    +0.345 C 
ATOM     31  O   UNL     1      -0.983   6.428   1.367  0.00  0.00    -0.245 OA
BRANCH  30  32
ATOM     32  C   UNL     1       1.154   6.898   0.550  0.00  0.00    +0.060 A 
ATOM     33  C   UNL     1       2.527   6.679   0.672  0.00  0.00    +0.017 A 
ATOM     34  C   UNL     1       3.401   7.301  -0.195  0.00  0.00    +0.033 A 
ATOM     35  C   UNL     1       2.920   8.147  -1.178  0.00  0.00    +0.126 A 
ATOM     36  C   UNL     1       1.561   8.373  -1.301  0.00  0.00    +0.033 A 
ATOM     37  C   UNL     1       0.675   7.754  -0.444  0.00  0.00    +0.017 A 
BRANCH  35  38
ATOM     38  N   UNL     1       3.864   8.815  -2.102  0.00  0.00    +0.056 N 
ATOM     39  O   UNL     1       3.444   9.560  -2.969  0.00  0.00    -0.126 OA
ATOM     40  O   UNL     1       5.062   8.618  -1.996  0.00  0.00    -0.126 OA
ENDBRANCH  35  38
ENDBRANCH  30  32
ENDBRANCH  29  30
ENDBRANCH   6  29
TORSDOF 11
