REMARK  Name = ZINC39981085
REMARK  8 active torsions:
REMARK  status: ('A' for Active; 'I' for Inactive)
REMARK    1  A    between atoms: C_1  and  C_2
REMARK    2  A    between atoms: C_2  and  C_3
REMARK    3  A    between atoms: C_15  and  S_17
REMARK    4  A    between atoms: S_17  and  C_18
REMARK    5  A    between atoms: C_18  and  C_19
REMARK    6  A    between atoms: N_21  and  C_22
REMARK    7  A    between atoms: C_25  and  N_28
REMARK    8  A    between atoms: C_29  and  C_31
REMARK                            x       y       z     vdW  Elec       q    Type
REMARK                         _______ _______ _______ _____ _____    ______ ____
ROOT
ATOM      1  S   UNL     1      -0.348  -4.879   7.511  0.00  0.00    -0.075 S 
ENDROOT
BRANCH   1  13
ATOM      2  C   UNL     1       0.621  -0.510   1.235  0.00  0.00    -0.047 A 
ATOM      3  C   UNL     1       2.005  -0.713   1.144  0.00  0.00    +0.005 A 
ATOM      4  C   UNL     1       2.732  -1.151   2.196  0.00  0.00    +0.026 A 
ATOM      5  C   UNL     1       2.057  -1.424   3.471  0.00  0.00    +0.046 A 
ATOM      6  N   UNL     1       2.503  -1.878   4.617  0.00  0.00    -0.358 N 
ATOM      7  C   UNL     1       1.424  -1.841   5.589  0.00  0.00    +0.252 C 
ATOM      8  C   UNL     1       0.164  -1.541   4.797  0.00  0.00    +0.117 C 
ATOM      9  C   UNL     1       0.588  -1.211   3.532  0.00  0.00    +0.025 A 
ATOM     10  C   UNL     1      -0.071  -0.740   2.374  0.00  0.00    +0.015 A 
ATOM     11  N   UNL     1      -1.053  -1.742   5.309  0.00  0.00    -0.147 NA
ATOM     12  N   UNL     1      -1.129  -2.660   6.225  0.00  0.00    -0.122 NA
ATOM     13  C   UNL     1      -0.058  -3.408   6.586  0.00  0.00    +0.208 C 
ATOM     14  N   UNL     1       1.185  -3.101   6.291  0.00  0.00    -0.227 NA
ATOM     15  H   UNL     1       3.406  -2.188   4.788  0.00  0.00    +0.162 HD
BRANCH   2  17
ATOM     16  C   UNL     1      -0.140   1.516   0.026  0.00  0.00    +0.009 C 
ATOM     17  C   UNL     1      -0.121  -0.013   0.022  0.00  0.00    +0.032 C 
ENDBRANCH   2  17
ENDBRANCH   1  13
BRANCH   1  18
ATOM     18  C   UNL     1       1.310  -5.563   7.780  0.00  0.00    +0.173 C 
BRANCH  18  19
ATOM     19  C   UNL     1       1.204  -6.842   8.570  0.00  0.00    +0.227 C 
ATOM     20  O   UNL     1       0.117  -7.252   8.918  0.00  0.00    -0.275 OA
ATOM     21  N   UNL     1       2.317  -7.530   8.891  0.00  0.00    -0.285 N 
ATOM     22  H   UNL     1       3.180  -7.240   8.557  0.00  0.00    +0.155 HD
BRANCH  21  23
ATOM     23  C   UNL     1       2.228  -8.665   9.707  0.00  0.00    +0.034 A 
ATOM     24  C   UNL     1       3.240  -8.948  10.616  0.00  0.00    +0.025 A 
ATOM     25  C   UNL     1       3.152 -10.067  11.420  0.00  0.00    +0.025 A 
ATOM     26  C   UNL     1       2.053 -10.909  11.321  0.00  0.00    +0.033 A 
ATOM     27  C   UNL     1       1.041 -10.626  10.412  0.00  0.00    +0.025 A 
ATOM     28  C   UNL     1       1.126  -9.504   9.612  0.00  0.00    +0.025 A 
BRANCH  26  29
ATOM     29  N   UNL     1       1.964 -12.044  12.137  0.00  0.00    -0.286 N 
ATOM     30  C   UNL     1       1.401 -13.173  11.662  0.00  0.00    +0.214 C 
ATOM     31  O   UNL     1       0.897 -13.181  10.559  0.00  0.00    -0.276 OA
ATOM     32  C   UNL     1       1.399 -14.424  12.501  0.00  0.00    +0.109 C 
ATOM     33  H   UNL     1       2.307 -12.018  13.043  0.00  0.00    +0.155 HD
ENDBRANCH  26  29
ENDBRANCH  21  23
ENDBRANCH  18  19
ENDBRANCH   1  18
TORSDOF 6
