REMARK  Name = ZINC28708519
REMARK  4 active torsions:
REMARK  status: ('A' for Active; 'I' for Inactive)
REMARK    1  A    between atoms: C_3  and  N_8
REMARK    2  A    between atoms: N_11  and  C_12
REMARK    3  A    between atoms: N_15  and  C_18
REMARK    4  A    between atoms: C_18  and  C_19
REMARK                            x       y       z     vdW  Elec       q    Type
REMARK                         _______ _______ _______ _____ _____    ______ ____
ROOT
ATOM      1  C   UNL     1       7.227   1.325   0.621  0.00  0.00    +0.071 C 
ATOM      2  C   UNL     1       7.202   1.292   2.151  0.00  0.00    +0.004 C 
ATOM      3  C   UNL     1       8.520   0.709   2.665  0.00  0.00    -0.077 C 
ATOM      4  N   UNL     1       9.639   1.544   2.211  0.00  0.00    +0.382 N 
ATOM      5  C   UNL     1       9.713   1.522   0.745  0.00  0.00    -0.077 C 
ATOM      6  C   UNL     1       8.440   2.137   0.157  0.00  0.00    +0.004 C 
ATOM      7  H   UNL     1       9.499   2.492   2.526  0.00  0.00    -0.081 HD
ENDROOT
BRANCH   1  11
ATOM      8  N   UNL     1       3.757   1.788  -0.504  0.00  0.00    -0.267 N 
ATOM      9  C   UNL     1       4.887   1.212  -0.048  0.00  0.00    +0.304 C 
ATOM     10  O   UNL     1       4.901   0.024   0.210  0.00  0.00    -0.252 OA
ATOM     11  N   UNL     1       6.000   1.952   0.124  0.00  0.00    -0.296 N 
ATOM     12  H   UNL     1       3.767   2.716  -0.787  0.00  0.00    +0.156 HD
ATOM     13  H   UNL     1       5.988   2.900  -0.082  0.00  0.00    +0.151 HD
BRANCH   8  16
ATOM     14  C   UNL     1       0.248   0.771  -0.086  0.00  0.00    +0.132 A 
ATOM     15  C   UNL     1       1.397   1.531   0.002  0.00  0.00    +0.082 A 
ATOM     16  C   UNL     1       2.574   1.050  -0.571  0.00  0.00    +0.075 A 
ATOM     17  C   UNL     1       2.538  -0.187  -1.214  0.00  0.00    +0.082 A 
ATOM     18  C   UNL     1       1.348  -0.885  -1.258  0.00  0.00    +0.132 A 
ATOM     19  N   UNL     1       0.255  -0.396  -0.703  0.00  0.00    -0.260 NA
ATOM     20 CL   UNL     1       3.969  -0.840  -1.947  0.00  0.00    -0.080 Cl
ATOM     21 CL   UNL     1       1.377   3.065   0.815  0.00  0.00    -0.080 Cl
ENDBRANCH   8  16
ENDBRANCH   1  11
BRANCH   4  22
ATOM     22  C   UNL     1      10.894   1.025   2.771  0.00  0.00    -0.048 C 
BRANCH  22  23
ATOM     23  C   UNL     1      12.022   1.964   2.428  0.00  0.00    -0.090 C 
ATOM     24  C   UNL     1      12.739   1.716   1.418  0.00  0.00    -0.029 C 
ATOM     25  C   UNL     1      13.063   0.308   0.993  0.00  0.00    +0.027 C 
ATOM     26  C   UNL     1      14.389   0.106   1.772  0.00  0.00    +0.004 C 
ATOM     27  C   UNL     1      14.173   0.426   3.267  0.00  0.00    +0.000 C 
ATOM     28  C   UNL     1      14.437   1.899   3.574  0.00  0.00    +0.000 C 
ATOM     29  C   UNL     1      13.254   2.549   4.322  0.00  0.00    +0.004 C 
ATOM     30  C   UNL     1      12.257   3.171   3.298  0.00  0.00    +0.028 C 
ENDBRANCH  22  23
ENDBRANCH   4  22
TORSDOF 4
