REMARK  Name = ZINC28313097
REMARK  6 active torsions:
REMARK  status: ('A' for Active; 'I' for Inactive)
REMARK    1  A    between atoms: C_10  and  N_11
REMARK    2  A    between atoms: C_12  and  C_14
REMARK    3  A    between atoms: C_14  and  N_25
REMARK    4  A    between atoms: C_15  and  C_16
REMARK    5  A    between atoms: C_20  and  N_22
REMARK    6  A    between atoms: C_26  and  C_28
REMARK                            x       y       z     vdW  Elec       q    Type
REMARK                         _______ _______ _______ _____ _____    ______ ____
ROOT
ATOM      1  C   UNL     1      -1.369   6.059   0.179  0.00  0.00    +0.097 C 
ATOM      2  C   UNL     1      -0.244   5.507  -0.332  0.00  0.00    +0.036 C 
ENDROOT
BRANCH   2   3
ATOM      3  C   UNL     1      -0.255   4.111  -0.794  0.00  0.00    -0.021 A 
ATOM      4  C   UNL     1      -1.423   3.557  -1.331  0.00  0.00    +0.008 A 
ATOM      5  C   UNL     1      -1.423   2.250  -1.769  0.00  0.00    +0.003 A 
ATOM      6  C   UNL     1      -0.276   1.482  -1.667  0.00  0.00    +0.033 A 
ATOM      7  C   UNL     1       0.883   2.022  -1.137  0.00  0.00    +0.127 A 
ATOM      8  C   UNL     1       0.901   3.330  -0.701  0.00  0.00    +0.040 A 
BRANCH   7   9
ATOM      9  N   UNL     1       2.106   1.194  -1.039  0.00  0.00    +0.056 N 
ATOM     10  O   UNL     1       2.092   0.039  -1.424  0.00  0.00    -0.126 OA
ATOM     11  O   UNL     1       3.126   1.668  -0.572  0.00  0.00    -0.126 OA
ENDBRANCH   7   9
ENDBRANCH   2   3
BRANCH   1  13
ATOM     12  N   UNL     1      -2.541   4.221   1.277  0.00  0.00    -0.280 N 
ATOM     13  C   UNL     1      -2.566   5.232   0.386  0.00  0.00    +0.262 C 
ATOM     14  O   UNL     1      -3.579   5.459  -0.248  0.00  0.00    -0.268 OA
ATOM     15  H   UNL     1      -1.659   4.075   1.918  0.00  0.00    +0.155 HD
BRANCH  12  25
ATOM     16  C   UNL     1      -4.185   0.999   4.797  0.00  0.00    +0.001 A 
ATOM     17  C   UNL     1      -3.086   1.852   4.708  0.00  0.00    +0.001 A 
ATOM     18  C   UNL     1      -2.890   2.628   3.607  0.00  0.00    +0.010 A 
ATOM     19  C   UNL     1      -3.802   2.567   2.541  0.00  0.00    +0.003 A 
ATOM     20  C   UNL     1      -4.921   1.704   2.632  0.00  0.00    -0.016 A 
ATOM     21  C   UNL     1      -5.091   0.917   3.785  0.00  0.00    +0.008 A 
ATOM     22  C   UNL     1      -5.838   1.644   1.569  0.00  0.00    +0.008 A 
ATOM     23  C   UNL     1      -5.648   2.418   0.464  0.00  0.00    +0.002 A 
ATOM     24  C   UNL     1      -4.555   3.273   0.365  0.00  0.00    +0.024 A 
ATOM     25  C   UNL     1      -3.633   3.361   1.387  0.00  0.00    +0.041 A 
ENDBRANCH  12  25
ENDBRANCH   1  13
BRANCH   1  26
ATOM     26  N   UNL     1      -1.393   7.417   0.511  0.00  0.00    -0.277 N 
ATOM     27  C   UNL     1      -2.491   7.953   1.080  0.00  0.00    +0.250 C 
ATOM     28  O   UNL     1      -3.424   7.239   1.391  0.00  0.00    -0.270 OA
ATOM     29  H   UNL     1      -0.515   8.048   0.309  0.00  0.00    +0.155 HD
BRANCH  27  30
ATOM     30  C   UNL     1      -2.561   9.408   1.324  0.00  0.00    +0.055 A 
ATOM     31  C   UNL     1      -1.488  10.231   0.973  0.00  0.00    +0.014 A 
ATOM     32  C   UNL     1      -1.562  11.589   1.200  0.00  0.00    +0.001 A 
ATOM     33  C   UNL     1      -2.691  12.137   1.784  0.00  0.00    +0.001 A 
ATOM     34  C   UNL     1      -3.755  11.329   2.139  0.00  0.00    +0.021 A 
ATOM     35  C   UNL     1      -3.698   9.967   1.913  0.00  0.00    +0.053 A 
ATOM     36 CL   UNL     1      -5.034   8.953   2.360  0.00  0.00    -0.083 Cl
ENDBRANCH  27  30
ENDBRANCH   1  26
TORSDOF 6
