REMARK  Name = ZINC20968944
REMARK  13 active torsions:
REMARK  status: ('A' for Active; 'I' for Inactive)
REMARK    1  A    between atoms: C_1  and  C_2
REMARK    2  A    between atoms: C_2  and  C_3
REMARK    3  A    between atoms: C_2  and  C_4
REMARK    4  A    between atoms: C_4  and  N_5
REMARK    5  A    between atoms: C_6  and  N_30
REMARK    6  A    between atoms: C_7  and  N_14
REMARK    7  A    between atoms: N_14  and  C_15
REMARK    8  A    between atoms: C_15  and  C_16
REMARK    9  A    between atoms: C_16  and  C_17
REMARK   10  A    between atoms: C_16  and  C_18
REMARK   11  A    between atoms: C_19  and  C_21
REMARK   12  A    between atoms: C_23  and  S_28
REMARK   13  A    between atoms: S_28  and  C_29
REMARK                            x       y       z     vdW  Elec       q    Type
REMARK                         _______ _______ _______ _____ _____    ______ ____
ROOT
ATOM      1  N   UNL     1       1.866   0.080   0.785  0.00  0.00    -0.280 N 
ATOM      2  C   UNL     1       1.552  -0.693   1.878  0.00  0.00    +0.127 A 
ATOM      3  C   UNL     1       0.770  -1.817   1.706  0.00  0.00    +0.140 A 
ATOM      4  C   UNL     1       0.315  -2.137   0.413  0.00  0.00    +0.277 A 
ATOM      5  O   UNL     1      -0.377  -3.124   0.233  0.00  0.00    -0.266 OA
ATOM      6  N   UNL     1       0.651  -1.345  -0.624  0.00  0.00    -0.273 N 
ATOM      7  H   UNL     1       0.304  -1.591  -1.639  0.00  0.00    +0.173 HD
ATOM      8  C   UNL     1       1.411  -0.251  -0.437  0.00  0.00    +0.331 A 
ATOM      9  O   UNL     1       1.694   0.449  -1.390  0.00  0.00    -0.246 OA
ENDROOT
BRANCH   3  10
ATOM     10  N   UNL     1       0.431  -2.630   2.808  0.00  0.00    -0.260 N 
ATOM     11  C   UNL     1      -0.266  -2.112   3.839  0.00  0.00    +0.252 C 
ATOM     12  O   UNL     1      -0.560  -2.814   4.787  0.00  0.00    -0.270 OA
BRANCH  11  13
ATOM     13  C   UNL     1      -0.671  -0.691   3.817  0.00  0.00    +0.057 A 
ATOM     14  C   UNL     1      -0.904  -0.048   2.600  0.00  0.00    +0.029 A 
ATOM     15  C   UNL     1      -1.285   1.285   2.588  0.00  0.00    +0.008 A 
ATOM     16  C   UNL     1      -1.434   1.977   3.785  0.00  0.00    +0.016 A 
ATOM     17  C   UNL     1      -1.204   1.341   4.990  0.00  0.00    +0.022 A 
ATOM     18  C   UNL     1      -0.829   0.012   5.014  0.00  0.00    +0.053 A 
ATOM     19 CL   UNL     1      -0.548  -0.784   6.531  0.00  0.00    -0.083 Cl
BRANCH  15  20
ATOM     20  S   UNL     1      -1.581   2.102   1.055  0.00  0.00    -0.129 S 
ATOM     21  C   UNL     1      -2.042   3.788   1.539  0.00  0.00    +0.090 C 
ENDBRANCH  15  20
ENDBRANCH  11  13
BRANCH  10  22
ATOM     22  C   UNL     1       0.835  -4.038   2.831  0.00  0.00    +0.117 C 
BRANCH  22  23
ATOM     23  C   UNL     1       2.272  -4.147   3.346  0.00  0.00    +0.001 C 
ATOM     24  C   UNL     1       2.341  -3.618   4.779  0.00  0.00    +0.009 C 
ATOM     25  C   UNL     1       2.712  -5.612   3.321  0.00  0.00    +0.009 C 
ENDBRANCH  22  23
ENDBRANCH  10  22
ENDBRANCH   3  10
BRANCH   2  26
ATOM     26  N   UNL     1       2.013  -0.351   3.127  0.00  0.00    -0.343 N 
ATOM     27  H   UNL     1       1.758  -0.974   3.997  0.00  0.00    +0.144 HD
ATOM     28  H   UNL     1       2.636   0.546   3.257  0.00  0.00    +0.144 HD
ENDBRANCH   2  26
BRANCH   1  29
ATOM     29  C   UNL     1       2.696   1.276   0.953  0.00  0.00    +0.131 C 
BRANCH  29  31
ATOM     30  C   UNL     1       5.028   2.166   0.842  0.00  0.00    +0.009 C 
ATOM     31  C   UNL     1       4.170   0.900   0.791  0.00  0.00    +0.003 C 
ATOM     32  C   UNL     1       4.584  -0.042   1.923  0.00  0.00    +0.009 C 
ENDBRANCH  29  31
ENDBRANCH   1  29
TORSDOF 8
