REMARK  Name = ZINC00938923
REMARK  8 active torsions:
REMARK  status: ('A' for Active; 'I' for Inactive)
REMARK    1  A    between atoms: C_1  and  C_2
REMARK    2  A    between atoms: C_6  and  N_9
REMARK    3  A    between atoms: C_7  and  C_8
REMARK    4  A    between atoms: C_10  and  C_12
REMARK    5  A    between atoms: C_12  and  S_13
REMARK    6  A    between atoms: S_13  and  C_14
REMARK    7  A    between atoms: C_17  and  C_20
REMARK    8  A    between atoms: N_18  and  N_19
REMARK                            x       y       z     vdW  Elec       q    Type
REMARK                         _______ _______ _______ _____ _____    ______ ____
ROOT
ATOM      1  C   UNL     1       1.905  -4.282  -0.397  0.00  0.00    +0.209 A 
ATOM      2  N   UNL     1       0.617  -4.200  -0.148  0.00  0.00    -0.121 NA
ATOM      3  N   UNL     1       0.248  -2.969  -0.132  0.00  0.00    -0.127 NA
ATOM      4  C   UNL     1       1.275  -2.190  -0.379  0.00  0.00    +0.183 A 
ATOM      5  N   UNL     1       2.368  -3.006  -0.552  0.00  0.00    -0.224 N 
ENDROOT
BRANCH   4   6
ATOM      6  C   UNL     1       1.260  -0.713  -0.450  0.00  0.00    +0.039 A 
ATOM      7  C   UNL     1       1.894  -0.057  -1.506  0.00  0.00    +0.013 A 
ATOM      8  C   UNL     1       1.877   1.321  -1.567  0.00  0.00    +0.001 A 
ATOM      9  C   UNL     1       1.234   2.053  -0.584  0.00  0.00    +0.001 A 
ATOM     10  C   UNL     1       0.604   1.410   0.465  0.00  0.00    +0.021 A 
ATOM     11  C   UNL     1       0.613   0.031   0.538  0.00  0.00    +0.052 A 
ATOM     12 CL   UNL     1      -0.179  -0.776   1.856  0.00  0.00    -0.083 Cl
ENDBRANCH   4   6
BRANCH   5  13
ATOM     13  N   UNL     1       3.651  -2.622  -0.824  0.00  0.00    -0.295 N 
ATOM     14  H   UNL     1       4.196  -2.557   0.023  0.00  0.00    +0.163 HD
ATOM     15  H   UNL     1       4.084  -3.248  -1.486  0.00  0.00    +0.163 HD
ENDBRANCH   5  13
BRANCH   1  16
ATOM     16  S   UNL     1       2.856  -5.761  -0.509  0.00  0.00    -0.075 S 
BRANCH  16  17
ATOM     17  C   UNL     1       1.565  -6.989  -0.193  0.00  0.00    +0.173 C 
BRANCH  17  19
ATOM     18  N   UNL     1       1.385  -9.451  -0.034  0.00  0.00    -0.285 N 
ATOM     19  C   UNL     1       2.164  -8.371  -0.241  0.00  0.00    +0.227 C 
ATOM     20  O   UNL     1       3.348  -8.511  -0.466  0.00  0.00    -0.275 OA
ATOM     21  H   UNL     1       0.427  -9.344   0.079  0.00  0.00    +0.155 HD
BRANCH  18  27
ATOM     22  C   UNL     1       1.278 -14.070   1.647  0.00  0.00    +0.044 C 
ATOM     23  C   UNL     1       1.926 -12.985   0.827  0.00  0.00    -0.046 A 
ATOM     24  C   UNL     1       3.088 -13.250   0.124  0.00  0.00    +0.004 A 
ATOM     25  C   UNL     1       3.686 -12.257  -0.629  0.00  0.00    +0.002 A 
ATOM     26  C   UNL     1       3.123 -10.996  -0.684  0.00  0.00    +0.023 A 
ATOM     27  C   UNL     1       1.957 -10.727   0.020  0.00  0.00    +0.037 A 
ATOM     28  C   UNL     1       1.363 -11.725   0.781  0.00  0.00    -0.026 A 
ATOM     29  C   UNL     1       0.100 -11.435   1.551  0.00  0.00    +0.046 C 
ENDBRANCH  18  27
ENDBRANCH  17  19
ENDBRANCH  16  17
ENDBRANCH   1  16
TORSDOF 6
