REMARK  Name = ZINC12883478
REMARK  5 active torsions:
REMARK  status: ('A' for Active; 'I' for Inactive)
REMARK    1  A    between atoms: C_1  and  C_2
REMARK    2  A    between atoms: C_17  and  C_19
REMARK    3  A    between atoms: C_19  and  C_20
REMARK    4  A    between atoms: N_25  and  C_28
REMARK    5  A    between atoms: C_28  and  C_29
REMARK                            x       y       z     vdW  Elec       q    Type
REMARK                         _______ _______ _______ _____ _____    ______ ____
ROOT
ATOM      1  C   UNL     1       2.956  12.911   2.663  0.00  0.00    +0.044 C 
ATOM      2  C   UNL     1       1.607  12.683   2.031  0.00  0.00    -0.049 A 
ATOM      3  C   UNL     1       0.882  11.544   2.333  0.00  0.00    +0.008 A 
ATOM      4  C   UNL     1      -0.350  11.336   1.755  0.00  0.00    -0.026 A 
ATOM      5  C   UNL     1      -0.881  12.264   0.865  0.00  0.00    +0.054 A 
ATOM      6  C   UNL     1      -0.145  13.409   0.565  0.00  0.00    +0.063 A 
ATOM      7  C   UNL     1       1.090  13.612   1.146  0.00  0.00    +0.025 A 
ATOM      8 CL   UNL     1      -0.784  14.582  -0.544  0.00  0.00    -0.082 Cl
ATOM      9  N   UNL     1      -2.134  11.839   0.415  0.00  0.00    -0.285 N 
ATOM     10  C   UNL     1      -2.493  10.658   0.954  0.00  0.00    +0.211 C 
ATOM     11  O   UNL     1      -3.523  10.052   0.748  0.00  0.00    -0.277 OA
ATOM     12  C   UNL     1      -1.369  10.238   1.861  0.00  0.00    +0.050 C 
ATOM     13  C   UNL     1      -0.783   8.885   1.437  0.00  0.00    +0.088 C 
ATOM     14  C   UNL     1      -0.398   8.192   2.774  0.00  0.00    +0.073 C 
ATOM     15  C   UNL     1      -0.772   9.210   3.872  0.00  0.00    -0.049 C 
ATOM     16  C   UNL     1      -1.336   7.008   2.837  0.00  0.00    +0.224 C 
ATOM     17  O   UNL     1      -1.380   6.196   3.735  0.00  0.00    -0.275 OA
ATOM     18  N   UNL     1      -2.109   6.995   1.744  0.00  0.00    -0.237 N 
ATOM     19  C   UNL     1      -1.884   8.002   0.893  0.00  0.00    +0.225 C 
ATOM     20  O   UNL     1      -2.471   8.180  -0.153  0.00  0.00    -0.275 OA
ATOM     21  H   UNL     1      -2.681  12.337  -0.212  0.00  0.00    +0.155 HD
ATOM     22  N   UNL     1      -1.783  10.062   3.236  0.00  0.00    +0.394 N 
ATOM     23  H   UNL     1      -2.703   9.608   3.275  0.00  0.00    -0.083 HD
ATOM     24  H   UNL     1      -1.829  10.971   3.712  0.00  0.00    -0.083 HD
ENDROOT
BRANCH  15  25
ATOM     25  C   UNL     1      -1.341   8.489   5.095  0.00  0.00    +0.080 C 
BRANCH  25  26
ATOM     26  C   UNL     1      -1.585   9.487   6.198  0.00  0.00    +0.209 C 
ATOM     27  O   UNL     1      -1.329  10.659   6.022  0.00  0.00    -0.276 OA
ATOM     28  N   UNL     1      -2.088   9.076   7.379  0.00  0.00    -0.329 N 
ATOM     29  H   UNL     1      -2.293   8.139   7.519  0.00  0.00    +0.145 HD
ATOM     30  H   UNL     1      -2.245   9.719   8.089  0.00  0.00    +0.145 HD
ENDBRANCH  25  26
ENDBRANCH  15  25
BRANCH  18  31
ATOM     31  C   UNL     1      -3.122   5.965   1.503  0.00  0.00    +0.151 C 
BRANCH  31  32
ATOM     32  C   UNL     1      -2.505   4.822   0.740  0.00  0.00    -0.026 A 
ATOM     33  C   UNL     1      -2.517   4.829  -0.643  0.00  0.00    +0.009 A 
ATOM     34  C   UNL     1      -1.951   3.783  -1.347  0.00  0.00    +0.050 A 
ATOM     35  C   UNL     1      -1.373   2.722  -0.668  0.00  0.00    +0.166 A 
ATOM     36  C   UNL     1      -1.361   2.715   0.724  0.00  0.00    +0.167 A 
ATOM     37  C   UNL     1      -1.929   3.768   1.424  0.00  0.00    +0.054 A 
ATOM     38  O   UNL     1      -0.738   1.576   1.151  0.00  0.00    -0.453 OA
ATOM     39  C   UNL     1      -0.013   1.086   0.008  0.00  0.00    +0.466 C 
ATOM     40  O   UNL     1      -0.760   1.588  -1.116  0.00  0.00    -0.453 OA
ENDBRANCH  31  32
ENDBRANCH  18  31
TORSDOF 4
