REMARK  Name = ZINC14459727
REMARK  10 active torsions:
REMARK  status: ('A' for Active; 'I' for Inactive)
REMARK    1  A    between atoms: C_1  and  C_2
REMARK    2  A    between atoms: C_2  and  O_3
REMARK    3  A    between atoms: O_3  and  C_4
REMARK    4  A    between atoms: C_7  and  N_10
REMARK    5  A    between atoms: N_10  and  S_11
REMARK    6  A    between atoms: S_11  and  C_14
REMARK    7  A    between atoms: C_27  and  C_30
REMARK    8  A    between atoms: C_34  and  O_37
REMARK    9  A    between atoms: C_35  and  O_36
REMARK   10  A    between atoms: O_37  and  C_38
REMARK                            x       y       z     vdW  Elec       q    Type
REMARK                         _______ _______ _______ _____ _____    ______ ____
ROOT
ATOM      1  C   UNL     1       0.210   0.279  -0.396  0.00  0.00    +0.109 A 
ATOM      2  C   UNL     1      -0.856  -0.424  -0.929  0.00  0.00    +0.030 A 
ATOM      3  C   UNL     1      -0.746  -1.786  -1.126  0.00  0.00    +0.025 A 
ATOM      4  C   UNL     1       0.430  -2.445  -0.790  0.00  0.00    +0.031 A 
ATOM      5  C   UNL     1       1.501  -1.744  -0.258  0.00  0.00    -0.018 A 
ATOM      6  C   UNL     1       1.381  -0.374  -0.069  0.00  0.00    +0.034 A 
ATOM      7  C   UNL     1       2.789  -2.409   0.112  0.00  0.00    +0.049 C 
ATOM      8  C   UNL     1       2.924  -2.554   1.609  0.00  0.00    -0.023 C 
ATOM      9  C   UNL     1       3.521  -3.683   1.903  0.00  0.00    -0.030 C 
ATOM     10  C   UNL     1       3.871  -4.444   0.639  0.00  0.00    +0.033 C 
ATOM     11  C   UNL     1       2.895  -3.851  -0.420  0.00  0.00    +0.029 C 
ATOM     12  C   UNL     1       1.553  -4.569  -0.256  0.00  0.00    +0.109 C 
ATOM     13  N   UNL     1       0.524  -3.826  -0.991  0.00  0.00    -0.336 N 
ATOM     14  H   UNL     1      -0.077  -4.281  -1.602  0.00  0.00    +0.147 HD
ENDROOT
BRANCH  12  15
ATOM     15  C   UNL     1       1.657  -5.967  -0.808  0.00  0.00    +0.018 A 
ATOM     16  C   UNL     1       1.720  -7.048   0.052  0.00  0.00    +0.009 A 
ATOM     17  C   UNL     1       1.811  -8.332  -0.451  0.00  0.00    +0.004 A 
ATOM     18  C   UNL     1       1.850  -8.541  -1.817  0.00  0.00    +0.049 A 
ATOM     19  C   UNL     1       1.793  -7.463  -2.685  0.00  0.00    +0.162 A 
ATOM     20  C   UNL     1       1.696  -6.170  -2.178  0.00  0.00    +0.163 A 
BRANCH  20  21
ATOM     21  O   UNL     1       1.639  -5.108  -3.026  0.00  0.00    -0.503 OA
ATOM     22  H   UNL     1       2.504  -4.741  -3.255  0.00  0.00    +0.292 HD
ENDBRANCH  20  21
BRANCH  19  23
ATOM     23  O   UNL     1       1.831  -7.666  -4.029  0.00  0.00    -0.491 OA
ATOM     24  C   UNL     1       1.931  -9.020  -4.477  0.00  0.00    +0.277 C 
ENDBRANCH  19  23
ENDBRANCH  12  15
BRANCH   1  25
ATOM     25  S   UNL     1       0.074   2.017  -0.142  0.00  0.00    +0.072 S 
ATOM     26  O   UNL     1       1.400   2.516  -0.028  0.00  0.00    -0.150 OA
ATOM     27  O   UNL     1      -0.840   2.500  -1.117  0.00  0.00    -0.150 OA
BRANCH  25  28
ATOM     28  N   UNL     1      -0.644   2.242   1.333  0.00  0.00    -0.216 N 
ATOM     29  H   UNL     1      -0.169   2.709   2.038  0.00  0.00    +0.174 HD
BRANCH  28  33
ATOM     30  C   UNL     1      -4.495   0.801   2.017  0.00  0.00    +0.121 A 
ATOM     31  C   UNL     1      -3.498   0.585   2.955  0.00  0.00    +0.047 A 
ATOM     32  C   UNL     1      -2.221   1.062   2.730  0.00  0.00    +0.028 A 
ATOM     33  C   UNL     1      -1.937   1.758   1.562  0.00  0.00    +0.048 A 
ATOM     34  C   UNL     1      -2.938   1.979   0.625  0.00  0.00    +0.028 A 
ATOM     35  C   UNL     1      -4.212   1.496   0.850  0.00  0.00    +0.047 A 
BRANCH  30  36
ATOM     36  O   UNL     1      -5.752   0.332   2.240  0.00  0.00    -0.492 OA
BRANCH  36  38
ATOM     37  C   UNL     1      -8.072  -0.009   1.655  0.00  0.00    +0.048 C 
ATOM     38  C   UNL     1      -6.730   0.591   1.230  0.00  0.00    +0.225 C 
ENDBRANCH  36  38
ENDBRANCH  30  36
ENDBRANCH  28  33
ENDBRANCH  25  28
ENDBRANCH   1  25
TORSDOF 8
