REMARK  Name = ZINC28308793
REMARK  12 active torsions:
REMARK  status: ('A' for Active; 'I' for Inactive)
REMARK    1  A    between atoms: C_1  and  C_2
REMARK    2  A    between atoms: C_2  and  N_3
REMARK    3  A    between atoms: N_3  and  C_4
REMARK    4  A    between atoms: N_3  and  C_6
REMARK    5  A    between atoms: C_4  and  C_5
REMARK    6  A    between atoms: C_9  and  C_12
REMARK    7  A    between atoms: C_13  and  C_14
REMARK    8  A    between atoms: C_13  and  N_25
REMARK    9  A    between atoms: N_16  and  C_17
REMARK   10  A    between atoms: C_20  and  C_24
REMARK   11  A    between atoms: C_22  and  C_23
REMARK   12  A    between atoms: C_26  and  C_28
REMARK                            x       y       z     vdW  Elec       q    Type
REMARK                         _______ _______ _______ _____ _____    ______ ____
ROOT
ATOM      1  C   UNL     1      -4.763   1.686   0.013  0.00  0.00    +0.036 C 
ATOM      2  C   UNL     1      -3.577   2.250   0.344  0.00  0.00    +0.097 C 
ENDROOT
BRANCH   1   6
ATOM      3  C   UNL     1      -5.106  -2.534  -0.239  0.00  0.00    +0.030 A 
ATOM      4  C   UNL     1      -6.153  -1.783   0.287  0.00  0.00    +0.024 A 
ATOM      5  C   UNL     1      -6.046  -0.413   0.370  0.00  0.00    +0.010 A 
ATOM      6  C   UNL     1      -4.882   0.224  -0.074  0.00  0.00    -0.023 A 
ATOM      7  C   UNL     1      -3.833  -0.535  -0.607  0.00  0.00    +0.010 A 
ATOM      8  C   UNL     1      -3.946  -1.905  -0.682  0.00  0.00    +0.024 A 
BRANCH   3   9
ATOM      9  N   UNL     1      -5.219  -3.920  -0.322  0.00  0.00    -0.330 N 
BRANCH   9  11
ATOM     10  C   UNL     1      -3.163  -5.114   0.252  0.00  0.00    +0.024 C 
ATOM     11  C   UNL     1      -4.117  -4.713  -0.874  0.00  0.00    +0.102 C 
ENDBRANCH   9  11
BRANCH   9  12
ATOM     12  C   UNL     1      -6.438  -4.585   0.144  0.00  0.00    +0.102 C 
ATOM     13  C   UNL     1      -7.434  -4.691  -1.012  0.00  0.00    +0.024 C 
ENDBRANCH   9  12
ENDBRANCH   3   9
ENDBRANCH   1   6
BRANCH   2  14
ATOM     14  C   UNL     1      -2.453   1.405   0.762  0.00  0.00    +0.262 C 
ATOM     15  O   UNL     1      -1.519   1.216   0.005  0.00  0.00    -0.268 OA
ATOM     16  N   UNL     1      -2.454   0.836   1.984  0.00  0.00    -0.280 N 
ATOM     17  H   UNL     1      -3.322   0.962   2.648  0.00  0.00    +0.155 HD
BRANCH  16  18
ATOM     18  C   UNL     1      -1.353   0.087   2.409  0.00  0.00    +0.037 A 
ATOM     19  C   UNL     1      -0.353  -0.252   1.506  0.00  0.00    +0.024 A 
ATOM     20  C   UNL     1       0.737  -0.988   1.930  0.00  0.00    +0.005 A 
ATOM     21  C   UNL     1       0.833  -1.386   3.251  0.00  0.00    -0.050 A 
ATOM     22  C   UNL     1      -0.161  -1.050   4.152  0.00  0.00    +0.008 A 
ATOM     23  C   UNL     1      -1.254  -0.315   3.734  0.00  0.00    -0.029 A 
ATOM     24  C   UNL     1      -2.336   0.051   4.717  0.00  0.00    +0.045 C 
ATOM     25  C   UNL     1       2.023  -2.188   3.709  0.00  0.00    +0.044 C 
ENDBRANCH  16  18
ENDBRANCH   2  14
BRANCH   2  26
ATOM     26  N   UNL     1      -3.424   3.640   0.288  0.00  0.00    -0.277 N 
ATOM     27  C   UNL     1      -2.235   4.200   0.589  0.00  0.00    +0.248 C 
ATOM     28  O   UNL     1      -1.272   3.495   0.818  0.00  0.00    -0.270 OA
ATOM     29  H   UNL     1      -4.273   4.276  -0.001  0.00  0.00    +0.155 HD
BRANCH  27  30
ATOM     30  C   UNL     1      -2.103   5.671   0.641  0.00  0.00    +0.037 A 
ATOM     31  C   UNL     1      -3.206   6.484   0.373  0.00  0.00    +0.014 A 
ATOM     32  C   UNL     1      -3.078   7.856   0.429  0.00  0.00    +0.016 A 
ATOM     33  C   UNL     1      -1.855   8.428   0.738  0.00  0.00    +0.018 A 
ATOM     34  C   UNL     1      -0.756   7.627   0.999  0.00  0.00    +0.016 A 
ATOM     35  C   UNL     1      -0.873   6.254   0.952  0.00  0.00    +0.014 A 
ATOM     36 BR   UNL     1      -1.686  10.310   0.804  0.00  0.00    -0.050 Br
ENDBRANCH  27  30
ENDBRANCH   2  26
TORSDOF 8
