REMARK  Name = ZINC36558374
REMARK  19 active torsions:
REMARK  status: ('A' for Active; 'I' for Inactive)
REMARK    1  A    between atoms: C_1  and  C_2
REMARK    2  A    between atoms: C_2  and  C_3
REMARK    3  A    between atoms: C_3  and  C_5
REMARK    4  A    between atoms: C_3  and  C_11
REMARK    5  A    between atoms: N_13  and  C_14
REMARK    6  A    between atoms: N_13  and  C_21
REMARK    7  A    between atoms: C_14  and  C_15
REMARK    8  A    between atoms: C_18  and  C_20
REMARK    9  A    between atoms: C_21  and  C_23
REMARK   10  A    between atoms: C_21  and  C_30
REMARK   11  A    between atoms: C_26  and  O_29
REMARK   12  A    between atoms: N_32  and  C_33
REMARK   13  A    between atoms: C_33  and  C_34
REMARK   14  A    between atoms: C_33  and  C_35
REMARK   15  A    between atoms: C_33  and  C_36
REMARK   16  A    between atoms: C_36  and  C_37
REMARK   17  A    between atoms: C_37  and  C_38
REMARK   18  A    between atoms: C_37  and  C_39
REMARK   19  A    between atoms: C_37  and  C_40
REMARK                            x       y       z     vdW  Elec       q    Type
REMARK                         _______ _______ _______ _____ _____    ______ ____
ROOT
ATOM      1  C   UNL     1      -1.563  -3.971  -1.049  0.00  0.00    +0.193 C 
ENDROOT
BRANCH   1   2
ATOM      2  C   UNL     1      -2.783  -4.226  -0.203  0.00  0.00    -0.018 A 
ATOM      3  C   UNL     1      -3.788  -3.279  -0.138  0.00  0.00    +0.009 A 
ATOM      4  C   UNL     1      -4.908  -3.509   0.637  0.00  0.00    +0.046 A 
ATOM      5  C   UNL     1      -5.024  -4.693   1.351  0.00  0.00    +0.117 A 
ATOM      6  C   UNL     1      -4.015  -5.643   1.284  0.00  0.00    +0.046 A 
ATOM      7  C   UNL     1      -2.899  -5.410   0.503  0.00  0.00    +0.009 A 
BRANCH   5   8
ATOM      8  O   UNL     1      -6.124  -4.923   2.115  0.00  0.00    -0.507 OA
ATOM      9  H   UNL     1      -6.844  -5.366   1.645  0.00  0.00    +0.292 HD
ENDBRANCH   5   8
ENDBRANCH   1   2
BRANCH   1  10
ATOM     10  C   UNL     1      -1.922  -4.117  -2.506  0.00  0.00    +0.239 C 
ATOM     11  O   UNL     1      -1.713  -3.204  -3.276  0.00  0.00    -0.273 OA
ATOM     12  N   UNL     1      -2.475  -5.263  -2.952  0.00  0.00    -0.308 N 
ATOM     13  H   UNL     1      -2.711  -5.964  -2.325  0.00  0.00    +0.149 HD
BRANCH  12  14
ATOM     14  C   UNL     1      -2.720  -5.448  -4.384  0.00  0.00    +0.030 C 
ATOM     15  C   UNL     1      -3.800  -4.469  -4.848  0.00  0.00    +0.031 C 
ATOM     16  C   UNL     1      -1.428  -5.187  -5.161  0.00  0.00    +0.031 C 
BRANCH  14  17
ATOM     17  C   UNL     1      -3.188  -6.882  -4.640  0.00  0.00    +0.031 C 
BRANCH  17  18
ATOM     18  C   UNL     1      -2.044  -7.853  -4.340  0.00  0.00    -0.036 C 
ATOM     19  C   UNL     1      -1.327  -7.417  -3.061  0.00  0.00    +0.010 C 
ATOM     20  C   UNL     1      -2.608  -9.263  -4.152  0.00  0.00    +0.010 C 
ATOM     21  C   UNL     1      -1.054  -7.851  -5.506  0.00  0.00    +0.010 C 
ENDBRANCH  17  18
ENDBRANCH  14  17
ENDBRANCH  12  14
ENDBRANCH   1  10
BRANCH   1  24
ATOM     22  C   UNL     1       0.083  -2.427  -0.131  0.00  0.00    +0.224 C 
ATOM     23  O   UNL     1       0.773  -3.380   0.166  0.00  0.00    -0.275 OA
ATOM     24  N   UNL     1      -1.071  -2.614  -0.801  0.00  0.00    -0.278 N 
BRANCH  22  25
ATOM     25  C   UNL     1       0.517  -1.035   0.250  0.00  0.00    +0.105 C 
BRANCH  25  26
ATOM     26  C   UNL     1       1.921  -1.078   0.794  0.00  0.00    -0.036 A 
ATOM     27  C   UNL     1       2.206  -1.839   1.913  0.00  0.00    +0.004 A 
ATOM     28  C   UNL     1       3.495  -1.878   2.412  0.00  0.00    +0.000 A 
ATOM     29  C   UNL     1       4.498  -1.156   1.793  0.00  0.00    +0.000 A 
ATOM     30  C   UNL     1       4.213  -0.395   0.674  0.00  0.00    +0.000 A 
ATOM     31  C   UNL     1       2.925  -0.360   0.172  0.00  0.00    +0.004 A 
ENDBRANCH  25  26
BRANCH  25  33
ATOM     32  C   UNL     1      -0.028   0.956   1.657  0.00  0.00    +0.005 C 
ATOM     33  C   UNL     1      -0.428  -0.481   1.319  0.00  0.00    +0.014 C 
ENDBRANCH  25  33
ENDBRANCH  22  25
BRANCH  24  34
ATOM     34  C   UNL     1      -1.834  -1.459  -1.282  0.00  0.00    +0.183 C 
BRANCH  34  35
ATOM     35  C   UNL     1      -1.002  -0.684  -2.271  0.00  0.00    +0.122 A 
ATOM     36  C   UNL     1      -0.878  -0.960  -3.581  0.00  0.00    +0.046 A 
ATOM     37  C   UNL     1      -0.009   0.015  -4.124  0.00  0.00    +0.045 A 
ATOM     38  C   UNL     1       0.345   0.828  -3.113  0.00  0.00    +0.102 A 
ATOM     39  O   UNL     1      -0.264   0.403  -1.994  0.00  0.00    -0.463 OA
ATOM     40  C   UNL     1       1.266   2.017  -3.219  0.00  0.00    +0.086 C 
ENDBRANCH  34  35
ENDBRANCH  24  34
ENDBRANCH   1  24
TORSDOF 12
