REMARK  Name = ZINC38650462
REMARK  11 active torsions:
REMARK  status: ('A' for Active; 'I' for Inactive)
REMARK    1  A    between atoms: C_1  and  C_2
REMARK    2  A    between atoms: C_2  and  O_3
REMARK    3  A    between atoms: O_3  and  C_4
REMARK    4  A    between atoms: C_9  and  C_10
REMARK    5  A    between atoms: C_15  and  O_24
REMARK    6  A    between atoms: C_19  and  N_23
REMARK    7  A    between atoms: C_20  and  C_21
REMARK    8  A    between atoms: O_24  and  C_25
REMARK    9  A    between atoms: C_25  and  C_27
REMARK   10  A    between atoms: C_27  and  O_28
REMARK   11  A    between atoms: O_28  and  C_29
REMARK                            x       y       z     vdW  Elec       q    Type
REMARK                         _______ _______ _______ _____ _____    ______ ____
ROOT
ATOM      1  C   UNL     1      -4.007  -1.550   0.059  0.00  0.00    +0.101 C 
ATOM      2  C   UNL     1      -4.831  -1.797  -1.176  0.00  0.00    +0.008 A 
ATOM      3  C   UNL     1      -4.463  -1.204  -2.371  0.00  0.00    +0.012 A 
ATOM      4  C   UNL     1      -5.207  -1.419  -3.514  0.00  0.00    +0.047 A 
ATOM      5  C   UNL     1      -6.329  -2.234  -3.467  0.00  0.00    +0.135 A 
ATOM      6  C   UNL     1      -6.701  -2.829  -2.273  0.00  0.00    +0.093 A 
ATOM      7  C   UNL     1      -5.951  -2.612  -1.124  0.00  0.00    +0.138 A 
ATOM      8  O   UNL     1      -6.329  -3.202   0.037  0.00  0.00    -0.441 OA
ATOM      9  C   UNL     1      -5.881  -2.722   1.209  0.00  0.00    +0.199 C 
ATOM     10  C   UNL     1      -4.785  -1.935   1.285  0.00  0.00    +0.098 C 
ENDROOT
BRANCH   1  16
ATOM     11  C   UNL     1      -1.508  -1.745   0.003  0.00  0.00    +0.125 A 
ATOM     12  C   UNL     1      -0.348  -2.505  -0.055  0.00  0.00    +0.046 A 
ATOM     13  C   UNL     1      -0.429  -3.882  -0.131  0.00  0.00    +0.004 A 
ATOM     14  C   UNL     1      -1.664  -4.503  -0.149  0.00  0.00    +0.001 A 
ATOM     15  C   UNL     1      -2.821  -3.749  -0.092  0.00  0.00    +0.008 A 
ATOM     16  C   UNL     1      -2.745  -2.372  -0.010  0.00  0.00    +0.007 A 
BRANCH  11  17
ATOM     17  O   UNL     1      -1.431  -0.391   0.079  0.00  0.00    -0.492 OA
BRANCH  17  19
ATOM     18  C   UNL     1      -0.237   1.709   0.176  0.00  0.00    +0.048 C 
ATOM     19  C   UNL     1      -0.123   0.185   0.087  0.00  0.00    +0.225 C 
ENDBRANCH  17  19
ENDBRANCH  11  17
ENDBRANCH   1  16
BRANCH   9  20
ATOM     20  N   UNL     1      -6.555  -3.042   2.361  0.00  0.00    -0.328 N 
ATOM     21  H   UNL     1      -7.343  -3.606   2.321  0.00  0.00    +0.145 HD
ATOM     22  H   UNL     1      -6.244  -2.703   3.215  0.00  0.00    +0.145 HD
ENDBRANCH   9  20
BRANCH  10  23
ATOM     23  C   UNL     1      -4.359  -1.458   2.566  0.00  0.00    +0.101 C 
ATOM     24  N   UNL     1      -4.020  -1.079   3.582  0.00  0.00    -0.191 NA
ENDBRANCH  10  23
BRANCH   5  25
ATOM     25  O   UNL     1      -7.063  -2.446  -4.591  0.00  0.00    -0.423 OA
BRANCH  25  26
ATOM     26  C   UNL     1      -8.293  -1.912  -4.652  0.00  0.00    +0.350 C 
ATOM     27  O   UNL     1      -8.678  -1.179  -3.771  0.00  0.00    -0.247 OA
BRANCH  26  28
ATOM     28  C   UNL     1      -9.195  -2.225  -5.818  0.00  0.00    +0.349 C 
BRANCH  28  29
ATOM     29  O   UNL     1     -10.440  -1.543  -5.654  0.00  0.00    -0.479 OA
BRANCH  29  30
ATOM     30  C   UNL     1     -11.373  -1.720  -6.627  0.00  0.00    +0.140 A 
ATOM     31  C   UNL     1     -11.098  -2.538  -7.713  0.00  0.00    +0.048 A 
ATOM     32  C   UNL     1     -12.047  -2.717  -8.700  0.00  0.00    +0.023 A 
ATOM     33  C   UNL     1     -13.273  -2.081  -8.607  0.00  0.00    +0.043 A 
ATOM     34  C   UNL     1     -13.550  -1.265  -7.525  0.00  0.00    +0.043 A 
ATOM     35  C   UNL     1     -12.605  -1.088  -6.532  0.00  0.00    +0.084 A 
ATOM     36 CL   UNL     1     -12.955  -0.069  -5.170  0.00  0.00    -0.080 Cl
ATOM     37 CL   UNL     1     -14.464  -2.308  -9.850  0.00  0.00    -0.083 Cl
ENDBRANCH  29  30
ENDBRANCH  28  29
ENDBRANCH  26  28
ENDBRANCH  25  26
ENDBRANCH   5  25
TORSDOF 10
