REMARK  Name = ZINC09542800
REMARK  7 active torsions:
REMARK  status: ('A' for Active; 'I' for Inactive)
REMARK    1  A    between atoms: C_1  and  O_2
REMARK    2  A    between atoms: O_2  and  C_3
REMARK    3  A    between atoms: C_3  and  C_5
REMARK    4  A    between atoms: C_8  and  C_11
REMARK    5  A    between atoms: C_13  and  C_25
REMARK    6  A    between atoms: C_16  and  C_18
REMARK    7  A    between atoms: C_30  and  O_31
REMARK                            x       y       z     vdW  Elec       q    Type
REMARK                         _______ _______ _______ _____ _____    ______ ____
ROOT
ATOM      1  C   UNL     1       4.816  -2.721  -0.793  0.00  0.00    +0.081 C 
ATOM      2  C   UNL     1       3.711  -0.715  -0.037  0.00  0.00    -0.028 C 
ATOM      3  C   UNL     1       4.229  -0.880   1.395  0.00  0.00    +0.044 C 
ATOM      4  C   UNL     1       5.355  -1.876   1.409  0.00  0.00    +0.040 C 
ATOM      5  N   UNL     1       5.592  -2.677   0.440  0.00  0.00    -0.299 NA
ATOM      6  N   UNL     1       3.515  -2.058  -0.617  0.00  0.00    +0.401 N 
ATOM      7  H   UNL     1       2.930  -2.619   0.014  0.00  0.00    -0.081 HD
ATOM      8  H   UNL     1       3.051  -1.971  -1.528  0.00  0.00    -0.081 HD
ENDROOT
BRANCH   4   9
ATOM      9  C   UNL     1       6.229  -1.932   2.597  0.00  0.00    -0.003 A 
ATOM     10  C   UNL     1       7.286  -2.843   2.648  0.00  0.00    +0.010 A 
ATOM     11  C   UNL     1       8.100  -2.891   3.761  0.00  0.00    +0.002 A 
ATOM     12  C   UNL     1       7.871  -2.038   4.826  0.00  0.00    +0.015 A 
ATOM     13  C   UNL     1       6.825  -1.132   4.783  0.00  0.00    +0.018 A 
ATOM     14  C   UNL     1       6.007  -1.071   3.673  0.00  0.00    +0.025 A 
ATOM     15 BR   UNL     1       6.522   0.030   6.244  0.00  0.00    -0.050 Br
ENDBRANCH   4   9
BRANCH   2  16
ATOM     16  C   UNL     1       2.397   0.023  -0.020  0.00  0.00    -0.018 A 
ATOM     17  C   UNL     1       1.208  -0.681  -0.013  0.00  0.00    +0.025 A 
ATOM     18  C   UNL     1       0.002  -0.004   0.002  0.00  0.00    +0.041 A 
ATOM     19  C   UNL     1      -0.017   1.380   0.010  0.00  0.00    +0.023 A 
ATOM     20  C   UNL     1       1.169   2.087   0.002  0.00  0.00    +0.047 A 
ATOM     21  C   UNL     1       2.380   1.410  -0.013  0.00  0.00    +0.119 A 
ATOM     22 CL   UNL     1      -1.490  -0.891   0.012  0.00  0.00    -0.084 Cl
BRANCH  21  23
ATOM     23  O   UNL     1       3.549   2.105  -0.020  0.00  0.00    -0.507 OA
ATOM     24  H   UNL     1       3.878   2.311  -0.905  0.00  0.00    +0.292 HD
ENDBRANCH  21  23
ENDBRANCH   2  16
BRANCH   1  28
ATOM     25  C   UNL     1       4.165  -6.799  -1.903  0.00  0.00    +0.059 A 
ATOM     26  C   UNL     1       5.317  -6.439  -1.201  0.00  0.00    +0.015 A 
ATOM     27  C   UNL     1       5.521  -5.121  -0.846  0.00  0.00    +0.004 A 
ATOM     28  C   UNL     1       4.587  -4.158  -1.185  0.00  0.00    -0.040 A 
ATOM     29  C   UNL     1       3.441  -4.509  -1.877  0.00  0.00    +0.004 A 
ATOM     30  C   UNL     1       3.228  -5.821  -2.242  0.00  0.00    +0.015 A 
BRANCH  25  31
ATOM     31  C   UNL     1       3.940  -8.208  -2.286  0.00  0.00    +0.339 C 
ATOM     32  O   UNL     1       4.758  -9.056  -1.990  0.00  0.00    -0.245 OA
BRANCH  31  34
ATOM     33  C   UNL     1       2.672  -9.954  -3.307  0.00  0.00    +0.280 C 
ATOM     34  O   UNL     1       2.828  -8.552  -2.964  0.00  0.00    -0.464 OA
ENDBRANCH  31  34
ENDBRANCH  25  31
ENDBRANCH   1  28
TORSDOF 6
