REMARK  Name = ZINC39676183
REMARK  4 active torsions:
REMARK  status: ('A' for Active; 'I' for Inactive)
REMARK    1  A    between atoms: C_11  and  C_13
REMARK    2  A    between atoms: C_13  and  N_14
REMARK    3  A    between atoms: C_15  and  C_17
REMARK    4  A    between atoms: C_28  and  C_30
REMARK                            x       y       z     vdW  Elec       q    Type
REMARK                         _______ _______ _______ _____ _____    ______ ____
ROOT
ATOM      1  C   UNL     1       8.431  -0.891  -0.090  0.00  0.00    +0.100 C 
ATOM      2  C   UNL     1       8.297   0.028   1.145  0.00  0.00    +0.121 C 
ATOM      3  N   UNL     1       9.214  -0.558   2.150  0.00  0.00    -0.296 N 
ATOM      4  C   UNL     1      10.399  -0.982   1.365  0.00  0.00    +0.115 C 
ATOM      5  C   UNL     1       9.813  -1.549   0.057  0.00  0.00    -0.004 C 
ATOM      6  C   UNL     1      10.704  -1.177  -1.125  0.00  0.00    -0.010 C 
ATOM      7  C   UNL     1      12.052  -1.891  -0.987  0.00  0.00    -0.082 C 
ATOM      8  N   UNL     1      11.838  -3.342  -0.948  0.00  0.00    +0.379 N 
ATOM      9  C   UNL     1      11.059  -3.701   0.244  0.00  0.00    -0.082 C 
ATOM     10  C   UNL     1       9.669  -3.065   0.158  0.00  0.00    -0.010 C 
ATOM     11  C   UNL     1       9.017  -0.678   3.478  0.00  0.00    +0.249 C 
ATOM     12  O   UNL     1       9.873  -1.187   4.176  0.00  0.00    -0.270 OA
ATOM     13  H   UNL     1      11.337  -3.630  -1.775  0.00  0.00    -0.086 HD
ATOM     14  H   UNL     1      12.731  -3.812  -0.918  0.00  0.00    -0.086 HD
ENDROOT
BRANCH  11  15
ATOM     15  C   UNL     1       7.761  -0.193   4.085  0.00  0.00    +0.073 A 
ATOM     16  C   UNL     1       6.663  -1.048   4.205  0.00  0.00    +0.054 A 
ATOM     17  C   UNL     1       5.492  -0.587   4.774  0.00  0.00    +0.021 A 
ATOM     18  C   UNL     1       5.405   0.718   5.224  0.00  0.00    +0.003 A 
ATOM     19  C   UNL     1       6.487   1.571   5.107  0.00  0.00    +0.021 A 
ATOM     20  C   UNL     1       7.667   1.123   4.546  0.00  0.00    +0.054 A 
ATOM     21 CL   UNL     1       9.027   2.193   4.408  0.00  0.00    -0.083 Cl
ATOM     22 CL   UNL     1       6.770  -2.687   3.641  0.00  0.00    -0.083 Cl
ENDBRANCH  11  15
BRANCH   1  24
ATOM     23  N   UNL     1       6.951  -2.503  -1.242  0.00  0.00    -0.308 N 
ATOM     24  C   UNL     1       7.348  -1.939  -0.084  0.00  0.00    +0.219 C 
ATOM     25  O   UNL     1       6.833  -2.273   0.962  0.00  0.00    -0.275 OA
ATOM     26  H   UNL     1       7.362  -2.236  -2.078  0.00  0.00    +0.149 HD
BRANCH  23  27
ATOM     27  C   UNL     1       5.898  -3.522  -1.237  0.00  0.00    +0.178 C 
BRANCH  27  38
ATOM     28  C   UNL     1       5.760  -4.639  -7.527  0.00  0.00    +0.001 A 
ATOM     29  C   UNL     1       6.710  -3.672  -7.229  0.00  0.00    +0.002 A 
ATOM     30  C   UNL     1       6.920  -3.265  -5.931  0.00  0.00    +0.028 A 
ATOM     31  C   UNL     1       6.168  -3.831  -4.899  0.00  0.00    +0.078 A 
ATOM     32  C   UNL     1       5.202  -4.815  -5.206  0.00  0.00    +0.065 A 
ATOM     33  C   UNL     1       5.005  -5.213  -6.527  0.00  0.00    +0.015 A 
ATOM     34  C   UNL     1       4.427  -5.391  -4.097  0.00  0.00    +0.259 A 
ATOM     35  O   UNL     1       3.580  -6.243  -4.293  0.00  0.00    -0.267 OA
ATOM     36  N   UNL     1       4.693  -4.939  -2.849  0.00  0.00    -0.309 N 
ATOM     37  H   UNL     1       4.202  -5.296  -2.093  0.00  0.00    +0.170 HD
ATOM     38  C   UNL     1       5.643  -3.988  -2.647  0.00  0.00    +0.128 A 
ATOM     39  N   UNL     1       6.342  -3.461  -3.606  0.00  0.00    -0.232 NA
ENDBRANCH  27  38
ENDBRANCH  23  27
ENDBRANCH   1  24
TORSDOF 4
