REMARK  Name = ZINC09187629
REMARK  9 active torsions:
REMARK  status: ('A' for Active; 'I' for Inactive)
REMARK    1  A    between atoms: C_1  and  C_2
REMARK    2  A    between atoms: C_5  and  N_9
REMARK    3  A    between atoms: C_6  and  C_8
REMARK    4  A    between atoms: C_10  and  C_12
REMARK    5  A    between atoms: C_12  and  S_13
REMARK    6  A    between atoms: S_13  and  C_14
REMARK    7  A    between atoms: C_17  and  C_20
REMARK    8  A    between atoms: N_18  and  N_19
REMARK    9  A    between atoms: C_22  and  C_26
REMARK                            x       y       z     vdW  Elec       q    Type
REMARK                         _______ _______ _______ _____ _____    ______ ____
ROOT
ATOM      1  C   UNL     1      -0.356  -8.692  -2.728  0.00  0.00    +0.209 A 
ATOM      2  N   UNL     1      -0.348  -9.369  -1.602  0.00  0.00    -0.120 NA
ATOM      3  N   UNL     1      -0.437 -10.628  -1.843  0.00  0.00    -0.125 NA
ATOM      4  C   UNL     1      -0.506 -10.832  -3.138  0.00  0.00    +0.202 A 
ATOM      5  N   UNL     1      -0.462  -9.598  -3.744  0.00  0.00    -0.222 N 
ENDROOT
BRANCH   4   6
ATOM      6  C   UNL     1      -0.617 -12.142  -3.816  0.00  0.00    +0.132 A 
ATOM      7  C   UNL     1      -0.672 -13.397  -3.183  0.00  0.00    +0.061 A 
ATOM      8  C   UNL     1      -0.772 -14.349  -4.153  0.00  0.00    +0.066 A 
ATOM      9  N   UNL     1      -0.778 -13.711  -5.359  0.00  0.00    -0.276 N 
ATOM     10  H   UNL     1      -0.840 -14.135  -6.229  0.00  0.00    +0.189 HD
ATOM     11  N   UNL     1      -0.685 -12.334  -5.119  0.00  0.00    -0.170 NA
BRANCH   8  12
ATOM     12  C   UNL     1      -0.857 -15.811  -3.938  0.00  0.00    -0.000 A 
ATOM     13  C   UNL     1      -0.845 -16.330  -2.643  0.00  0.00    +0.011 A 
ATOM     14  C   UNL     1      -0.925 -17.693  -2.449  0.00  0.00    +0.020 A 
ATOM     15  C   UNL     1      -1.017 -18.546  -3.535  0.00  0.00    +0.041 A 
ATOM     16  C   UNL     1      -1.029 -18.037  -4.823  0.00  0.00    +0.020 A 
ATOM     17  C   UNL     1      -0.956 -16.675  -5.029  0.00  0.00    +0.011 A 
ATOM     18 CL   UNL     1      -1.116 -20.261  -3.283  0.00  0.00    -0.084 Cl
ENDBRANCH   8  12
ENDBRANCH   4   6
BRANCH   5  19
ATOM     19  N   UNL     1      -0.512  -9.335  -5.084  0.00  0.00    -0.295 N 
ATOM     20  H   UNL     1       0.414  -9.324  -5.484  0.00  0.00    +0.163 HD
ATOM     21  H   UNL     1      -1.105  -9.997  -5.561  0.00  0.00    +0.163 HD
ENDBRANCH   5  19
BRANCH   1  22
ATOM     22  S   UNL     1      -0.255  -6.941  -2.895  0.00  0.00    -0.075 S 
BRANCH  22  23
ATOM     23  C   UNL     1      -0.134  -6.343  -1.187  0.00  0.00    +0.173 C 
BRANCH  23  25
ATOM     24  N   UNL     1       0.059  -4.170  -0.021  0.00  0.00    -0.285 N 
ATOM     25  C   UNL     1      -0.040  -4.839  -1.187  0.00  0.00    +0.227 C 
ATOM     26  O   UNL     1      -0.054  -4.230  -2.236  0.00  0.00    -0.275 OA
ATOM     27  H   UNL     1       0.135  -4.658   0.814  0.00  0.00    +0.155 HD
BRANCH  24  32
ATOM     28  C   UNL     1       0.025   1.503   0.005  0.00  0.00    +0.044 C 
ATOM     29  C   UNL     1       0.034  -0.004  -0.002  0.00  0.00    -0.050 A 
ATOM     30  C   UNL     1       0.632  -0.685  -1.046  0.00  0.00    +0.005 A 
ATOM     31  C   UNL     1       0.641  -2.066  -1.055  0.00  0.00    +0.024 A 
ATOM     32  C   UNL     1       0.051  -2.771  -0.014  0.00  0.00    +0.036 A 
ATOM     33  C   UNL     1      -0.548  -2.083   1.033  0.00  0.00    -0.029 A 
ATOM     34  C   UNL     1      -0.550  -0.702   1.039  0.00  0.00    +0.008 A 
ATOM     35  C   UNL     1      -1.190  -2.843   2.165  0.00  0.00    +0.045 C 
ENDBRANCH  24  32
ENDBRANCH  23  25
ENDBRANCH  22  23
ENDBRANCH   1  22
TORSDOF 7
