REMARK  Name = ZINC35370205
REMARK  5 active torsions:
REMARK  status: ('A' for Active; 'I' for Inactive)
REMARK    1  A    between atoms: C_6  and  C_7
REMARK    2  A    between atoms: C_16  and  C_20
REMARK    3  A    between atoms: N_22  and  C_23
REMARK    4  A    between atoms: C_23  and  C_24
REMARK    5  A    between atoms: C_24  and  C_25
REMARK                            x       y       z     vdW  Elec       q    Type
REMARK                         _______ _______ _______ _____ _____    ______ ____
ROOT
ATOM      1  C   UNL     1      -1.266  -0.763   0.011  0.00  0.00    +0.247 C 
ATOM      2  O   UNL     1      -2.324  -0.177   0.132  0.00  0.00    -0.270 OA
ATOM      3  N   UNL     1      -1.248  -2.106  -0.099  0.00  0.00    -0.298 N 
ATOM      4  C   UNL     1       0.026  -2.838  -0.111  0.00  0.00    +0.107 C 
ATOM      5  C   UNL     1      -0.011  -3.908   0.988  0.00  0.00    +0.017 C 
ATOM      6  C   UNL     1      -1.256  -4.765   0.819  0.00  0.00    -0.016 C 
ATOM      7  C   UNL     1      -2.527  -3.933   0.892  0.00  0.00    +0.017 C 
ATOM      8  C   UNL     1      -2.502  -2.864  -0.202  0.00  0.00    +0.107 C 
ATOM      9  N   UNL     1      -1.200  -5.538  -0.440  0.00  0.00    +0.397 N 
ATOM     10  C   UNL     1      -0.531  -6.842  -0.257  0.00  0.00    +0.028 C 
ATOM     11  C   UNL     1      -1.129  -7.540   1.002  0.00  0.00    +0.061 C 
ATOM     12  S   UNL     1      -1.292  -6.071   2.108  0.00  0.00    -0.174 S 
ATOM     13  H   UNL     1      -2.140  -5.696  -0.770  0.00  0.00    -0.083 HD
ATOM     14  H   UNL     1      -0.696  -5.004  -1.131  0.00  0.00    -0.083 HD
ENDROOT
BRANCH   1  20
ATOM     15  C   UNL     1       0.197   1.065   0.862  0.00  0.00    +0.016 A 
ATOM     16  C   UNL     1       1.381   1.770   0.833  0.00  0.00    +0.039 A 
ATOM     17  C   UNL     1       2.376   1.422  -0.068  0.00  0.00    +0.123 A 
ATOM     18  C   UNL     1       2.186   0.364  -0.944  0.00  0.00    +0.039 A 
ATOM     19  C   UNL     1       1.006  -0.348  -0.922  0.00  0.00    +0.016 A 
ATOM     20  C   UNL     1       0.001  -0.003  -0.017  0.00  0.00    +0.037 A 
ATOM     21  F   UNL     1       3.534   2.117  -0.093  0.00  0.00    -0.205 F 
ENDBRANCH   1  20
BRANCH  10  22
ATOM     22  C   UNL     1      -0.763  -7.705  -1.470  0.00  0.00    +0.200 C 
ATOM     23  O   UNL     1      -1.420  -7.282  -2.398  0.00  0.00    -0.278 OA
ATOM     24  N   UNL     1      -0.241  -8.946  -1.524  0.00  0.00    -0.316 N 
ATOM     25  H   UNL     1       0.284  -9.284  -0.782  0.00  0.00    +0.149 HD
BRANCH  24  26
ATOM     26  C   UNL     1      -0.467  -9.785  -2.704  0.00  0.00    +0.109 C 
BRANCH  26  27
ATOM     27  C   UNL     1       0.228 -11.135  -2.511  0.00  0.00    +0.055 C 
BRANCH  27  28
ATOM     28  C   UNL     1      -0.005 -11.998  -3.724  0.00  0.00    -0.027 A 
ATOM     29  C   UNL     1      -1.049 -12.904  -3.737  0.00  0.00    +0.006 A 
ATOM     30  C   UNL     1      -1.263 -13.696  -4.849  0.00  0.00    +0.020 A 
ATOM     31  C   UNL     1      -0.432 -13.582  -5.950  0.00  0.00    +0.042 A 
ATOM     32  C   UNL     1       0.612 -12.675  -5.938  0.00  0.00    +0.040 A 
ATOM     33  C   UNL     1       0.823 -11.879  -4.826  0.00  0.00    +0.046 A 
ATOM     34 CL   UNL     1       2.129 -10.736  -4.812  0.00  0.00    -0.083 Cl
ATOM     35 CL   UNL     1      -0.701 -14.577  -7.347  0.00  0.00    -0.083 Cl
ENDBRANCH  27  28
ENDBRANCH  26  27
ENDBRANCH  24  26
ENDBRANCH  10  22
TORSDOF 5
