REMARK  Name = ZINC48547591
REMARK  8 active torsions:
REMARK  status: ('A' for Active; 'I' for Inactive)
REMARK    1  A    between atoms: C_6  and  C_7
REMARK    2  A    between atoms: C_7  and  C_9
REMARK    3  A    between atoms: C_7  and  C_11
REMARK    4  A    between atoms: C_11  and  C_17
REMARK    5  A    between atoms: N_12  and  N_13
REMARK    6  A    between atoms: N_13  and  C_14
REMARK    7  A    between atoms: C_14  and  N_16
REMARK    8  A    between atoms: N_19  and  C_20
REMARK                            x       y       z     vdW  Elec       q    Type
REMARK                         _______ _______ _______ _____ _____    ______ ____
ROOT
ATOM      1  C   UNL     1      -1.286  -1.571  -1.272  0.00  0.00    +0.142 C 
ATOM      2  N   UNL     1      -0.220  -1.587  -2.018  0.00  0.00    -0.179 NA
ENDROOT
BRANCH   1   3
ATOM      3  C   UNL     1      -2.569  -2.028  -1.816  0.00  0.00    +0.262 C 
ATOM      4  O   UNL     1      -3.566  -2.013  -1.118  0.00  0.00    -0.269 OA
ATOM      5  N   UNL     1      -2.644  -2.464  -3.089  0.00  0.00    -0.305 N 
ATOM      6  H   UNL     1      -1.849  -2.476  -3.645  0.00  0.00    +0.150 HD
BRANCH   5   7
ATOM      7  C   UNL     1      -3.925  -2.920  -3.633  0.00  0.00    +0.036 C 
ATOM      8  C   UNL     1      -4.439  -4.101  -2.807  0.00  0.00    +0.029 C 
ATOM      9  C   UNL     1      -5.777  -4.577  -3.374  0.00  0.00    -0.008 C 
ATOM     10  C   UNL     1      -5.588  -5.016  -4.828  0.00  0.00    +0.007 C 
ATOM     11  C   UNL     1      -5.074  -3.835  -5.654  0.00  0.00    -0.008 C 
ATOM     12  C   UNL     1      -3.736  -3.359  -5.086  0.00  0.00    +0.029 C 
ATOM     13  C   UNL     1      -6.089  -2.692  -5.595  0.00  0.00    +0.007 C 
ATOM     14  C   UNL     1      -6.279  -2.253  -4.141  0.00  0.00    -0.008 C 
ATOM     15  C   UNL     1      -6.792  -3.434  -3.315  0.00  0.00    +0.007 C 
ATOM     16  C   UNL     1      -4.941  -1.777  -3.573  0.00  0.00    +0.029 C 
ENDBRANCH   5   7
ENDBRANCH   1   3
BRANCH   2  17
ATOM     17  N   UNL     1       0.964  -0.996  -1.561  0.00  0.00    -0.218 N 
ATOM     18  H   UNL     1       0.967  -0.496  -0.729  0.00  0.00    +0.176 HD
BRANCH  17  19
ATOM     19  C   UNL     1       2.100  -1.120  -2.276  0.00  0.00    +0.147 C 
ATOM     20  S   UNL     1       3.571  -0.495  -1.662  0.00  0.00    -0.017 S 
BRANCH  19  21
ATOM     21  N   UNL     1       2.078  -1.737  -3.474  0.00  0.00    -0.339 N 
ATOM     22  H   UNL     1       1.244  -2.091  -3.822  0.00  0.00    +0.144 HD
ATOM     23  H   UNL     1       2.895  -1.826  -3.989  0.00  0.00    +0.144 HD
ENDBRANCH  19  21
ENDBRANCH  17  19
ENDBRANCH   2  17
BRANCH   1  24
ATOM     24  C   UNL     1      -1.202  -1.084   0.151  0.00  0.00    +0.176 C 
BRANCH  24  30
ATOM     25  C   UNL     1      -0.199  -2.834   1.632  0.00  0.00    +0.007 A 
ATOM     26  C   UNL     1      -0.316  -3.908   2.495  0.00  0.00    +0.020 A 
ATOM     27  C   UNL     1      -1.568  -4.401   2.818  0.00  0.00    +0.041 A 
ATOM     28  C   UNL     1      -2.701  -3.820   2.277  0.00  0.00    +0.020 A 
ATOM     29  C   UNL     1      -2.582  -2.747   1.415  0.00  0.00    +0.007 A 
ATOM     30  C   UNL     1      -1.331  -2.254   1.092  0.00  0.00    -0.024 A 
ATOM     31 CL   UNL     1      -1.716  -5.749   3.901  0.00  0.00    -0.084 Cl
ENDBRANCH  24  30
BRANCH  24  32
ATOM     32  C   UNL     1      -2.291  -0.127   0.407  0.00  0.00    +0.077 C 
ATOM     33  N   UNL     1      -3.131   0.612   0.604  0.00  0.00    -0.196 NA
ENDBRANCH  24  32
ENDBRANCH   1  24
TORSDOF 8
