REMARK  Name = ZINC03525626
REMARK  10 active torsions:
REMARK  status: ('A' for Active; 'I' for Inactive)
REMARK    1  A    between atoms: C_1  and  C_2
REMARK    2  A    between atoms: C_3  and  N_15
REMARK    3  A    between atoms: N_6  and  C_9
REMARK    4  A    between atoms: N_7  and  C_8
REMARK    5  A    between atoms: C_16  and  C_18
REMARK    6  A    between atoms: C_18  and  C_20
REMARK    7  A    between atoms: C_18  and  O_21
REMARK    8  A    between atoms: O_21  and  C_22
REMARK    9  A    between atoms: C_22  and  C_24
REMARK   10  A    between atoms: C_26  and  C_34
REMARK                            x       y       z     vdW  Elec       q    Type
REMARK                         _______ _______ _______ _____ _____    ______ ____
ROOT
ATOM      1  C   UNL     1      -5.049  -2.955  -1.282  0.00  0.00    +0.341 C 
ATOM      2  O   UNL     1      -5.981  -2.279  -1.668  0.00  0.00    -0.245 OA
ENDROOT
BRANCH   1   3
ATOM      3  C   UNL     1      -5.000  -4.397  -1.602  0.00  0.00    +0.070 A 
ATOM      4  C   UNL     1      -3.997  -5.214  -1.099  0.00  0.00    +0.044 A 
ATOM      5  C   UNL     1      -3.993  -6.580  -1.424  0.00  0.00    +0.073 A 
ATOM      6  N   UNL     1      -4.906  -7.119  -2.206  0.00  0.00    -0.247 NA
ATOM      7  C   UNL     1      -5.901  -6.408  -2.737  0.00  0.00    +0.072 A 
ATOM      8  C   UNL     1      -6.002  -5.019  -2.467  0.00  0.00    +0.014 A 
ATOM      9  C   UNL     1      -7.048  -4.276  -3.026  0.00  0.00    +0.011 A 
ATOM     10  C   UNL     1      -7.961  -4.896  -3.827  0.00  0.00    +0.001 A 
ATOM     11  C   UNL     1      -7.866  -6.260  -4.096  0.00  0.00    +0.002 A 
ATOM     12  C   UNL     1      -6.862  -7.012  -3.569  0.00  0.00    +0.028 A 
BRANCH   5  13
ATOM     13  C   UNL     1      -2.923  -7.442  -0.875  0.00  0.00    +0.008 A 
ATOM     14  C   UNL     1      -2.609  -7.395   0.473  0.00  0.00    +0.010 A 
ATOM     15  C   UNL     1      -1.605  -8.201   0.996  0.00  0.00    +0.001 A 
ATOM     16  C   UNL     1      -0.903  -9.057   0.202  0.00  0.00    +0.008 A 
ATOM     17  C   UNL     1      -1.189  -9.138  -1.172  0.00  0.00    -0.017 A 
ATOM     18  C   UNL     1      -2.213  -8.328  -1.720  0.00  0.00    -0.009 A 
ATOM     19  C   UNL     1      -2.493  -8.405  -3.092  0.00  0.00    +0.009 A 
ATOM     20  C   UNL     1      -1.785  -9.263  -3.878  0.00  0.00    +0.001 A 
ATOM     21  C   UNL     1      -0.781 -10.065  -3.339  0.00  0.00    +0.001 A 
ATOM     22  C   UNL     1      -0.479 -10.012  -2.013  0.00  0.00    +0.008 A 
ENDBRANCH   5  13
ENDBRANCH   1   3
BRANCH   1  23
ATOM     23  O   UNL     1      -4.061  -2.390  -0.562  0.00  0.00    -0.449 OA
BRANCH  23  24
ATOM     24  C   UNL     1      -4.175  -0.970  -0.285  0.00  0.00    +0.259 C 
ATOM     25  C   UNL     1      -4.933  -0.765   1.028  0.00  0.00    +0.062 C 
BRANCH  24  27
ATOM     26  N   UNL     1      -2.657   0.948   0.086  0.00  0.00    -0.277 N 
ATOM     27  C   UNL     1      -2.798  -0.368  -0.170  0.00  0.00    +0.258 C 
ATOM     28  O   UNL     1      -1.817  -1.068  -0.307  0.00  0.00    -0.271 OA
ATOM     29  H   UNL     1      -3.438   1.522   0.121  0.00  0.00    +0.155 HD
BRANCH  26  32
ATOM     30  C   UNL     1      -1.394   3.177  -1.602  0.00  0.00    +0.067 C 
ATOM     31  C   UNL     1      -0.786   2.471  -0.418  0.00  0.00    +0.059 A 
ATOM     32  C   UNL     1      -1.375   1.490   0.303  0.00  0.00    +0.121 A 
ATOM     33  C   UNL     1      -0.433   1.099   1.353  0.00  0.00    +0.293 A 
ATOM     34  O   UNL     1      -0.609   0.245   2.203  0.00  0.00    -0.264 OA
ATOM     35  N   UNL     1       0.669   1.861   1.196  0.00  0.00    -0.216 N 
ATOM     36  N   UNL     1       0.457   2.710   0.104  0.00  0.00    -0.282 N 
ATOM     37  C   UNL     1       1.414   3.698  -0.402  0.00  0.00    +0.171 C 
BRANCH  35  38
ATOM     38  C   UNL     1       1.822   1.810   1.985  0.00  0.00    +0.067 A 
ATOM     39  C   UNL     1       3.072   1.726   1.387  0.00  0.00    +0.028 A 
ATOM     40  C   UNL     1       4.209   1.681   2.170  0.00  0.00    +0.002 A 
ATOM     41  C   UNL     1       4.103   1.709   3.548  0.00  0.00    +0.000 A 
ATOM     42  C   UNL     1       2.859   1.788   4.147  0.00  0.00    +0.002 A 
ATOM     43  C   UNL     1       1.719   1.839   3.370  0.00  0.00    +0.028 A 
ENDBRANCH  35  38
ENDBRANCH  26  32
ENDBRANCH  24  27
ENDBRANCH  23  24
ENDBRANCH   1  23
TORSDOF 7
