REMARK  Name = ZINC26804265
REMARK  10 active torsions:
REMARK  status: ('A' for Active; 'I' for Inactive)
REMARK    1  A    between atoms: C_5  and  C_7
REMARK    2  A    between atoms: C_8  and  C_9
REMARK    3  A    between atoms: C_8  and  N_18
REMARK    4  A    between atoms: N_11  and  C_12
REMARK    5  A    between atoms: C_12  and  C_13
REMARK    6  A    between atoms: C_13  and  N_14
REMARK    7  A    between atoms: N_14  and  C_15
REMARK    8  A    between atoms: C_15  and  C_16
REMARK    9  A    between atoms: C_16  and  O_17
REMARK   10  A    between atoms: C_19  and  C_21
REMARK                            x       y       z     vdW  Elec       q    Type
REMARK                         _______ _______ _______ _____ _____    ______ ____
ROOT
ATOM      1  C   UNL     1      -3.869   3.308   0.125  0.00  0.00    +0.038 C 
ATOM      2  C   UNL     1      -3.764   1.961   0.066  0.00  0.00    +0.097 C 
ENDROOT
BRANCH   1   7
ATOM      3  C   UNL     1      -0.365   4.502  -0.479  0.00  0.00    +0.001 A 
ATOM      4  C   UNL     1      -0.370   5.706   0.204  0.00  0.00    +0.001 A 
ATOM      5  C   UNL     1      -1.511   6.133   0.861  0.00  0.00    +0.020 A 
ATOM      6  C   UNL     1      -2.654   5.359   0.840  0.00  0.00    +0.048 A 
ATOM      7  C   UNL     1      -2.656   4.140   0.152  0.00  0.00    -0.005 A 
ATOM      8  C   UNL     1      -1.496   3.714  -0.505  0.00  0.00    +0.009 A 
ATOM      9 CL   UNL     1      -4.083   5.896   1.665  0.00  0.00    -0.083 Cl
ENDBRANCH   1   7
BRANCH   2  10
ATOM     10  C   UNL     1      -4.974   1.127   0.090  0.00  0.00    +0.258 C 
ATOM     11  O   UNL     1      -4.880  -0.084   0.037  0.00  0.00    -0.269 OA
ATOM     12  N   UNL     1      -6.189   1.706   0.171  0.00  0.00    -0.312 N 
ATOM     13  H   UNL     1      -6.274   2.801   0.220  0.00  0.00    +0.149 HD
BRANCH  12  14
ATOM     14  C   UNL     1      -7.396   0.875   0.196  0.00  0.00    +0.085 C 
BRANCH  14  15
ATOM     15  C   UNL     1      -8.631   1.773   0.291  0.00  0.00    -0.064 C 
BRANCH  15  16
ATOM     16  N   UNL     1      -9.841   0.941   0.316  0.00  0.00    +0.382 N 
ATOM     17  H   UNL     1      -9.893   0.342  -0.606  0.00  0.00    -0.086 HD
ATOM     18  H   UNL     1      -9.807   0.270   1.187  0.00  0.00    -0.086 HD
BRANCH  16  19
ATOM     19  C   UNL     1     -11.049   1.770   0.407  0.00  0.00    -0.054 C 
BRANCH  19  20
ATOM     20  C   UNL     1     -12.286   0.870   0.430  0.00  0.00    +0.137 C 
BRANCH  20  21
ATOM     21  O   UNL     1     -12.278   0.081   1.621  0.00  0.00    -0.397 OA
ATOM     22  H   UNL     1     -13.094  -0.632   1.814  0.00  0.00    +0.209 HD
ENDBRANCH  20  21
ENDBRANCH  19  20
ENDBRANCH  16  19
ENDBRANCH  15  16
ENDBRANCH  14  15
ENDBRANCH  12  14
ENDBRANCH   2  10
BRANCH   2  23
ATOM     23  N   UNL     1      -2.503   1.361  -0.019  0.00  0.00    -0.277 N 
ATOM     24  C   UNL     1      -2.223   0.524  -1.038  0.00  0.00    +0.250 C 
ATOM     25  O   UNL     1      -3.031   0.361  -1.931  0.00  0.00    -0.270 OA
ATOM     26  H   UNL     1      -1.742   1.571   0.746  0.00  0.00    +0.155 HD
BRANCH  24  27
ATOM     27  C   UNL     1      -0.933  -0.194  -1.069  0.00  0.00    +0.055 A 
ATOM     28  C   UNL     1       0.047   0.082  -0.113  0.00  0.00    +0.016 A 
ATOM     29  C   UNL     1       1.247  -0.596  -0.143  0.00  0.00    +0.021 A 
ATOM     30  C   UNL     1       1.483  -1.551  -1.119  0.00  0.00    +0.042 A 
ATOM     31  C   UNL     1       0.516  -1.830  -2.070  0.00  0.00    +0.040 A 
ATOM     32  C   UNL     1      -0.690  -1.158  -2.051  0.00  0.00    +0.054 A 
ATOM     33 CL   UNL     1      -1.901  -1.509  -3.244  0.00  0.00    -0.083 Cl
ATOM     34 CL   UNL     1       2.997  -2.400  -1.150  0.00  0.00    -0.083 Cl
ENDBRANCH  24  27
ENDBRANCH   2  23
TORSDOF 10
