REMARK  Name = ZINC06693047
REMARK  13 active torsions:
REMARK  status: ('A' for Active; 'I' for Inactive)
REMARK    1  A    between atoms: C_1  and  C_2
REMARK    2  A    between atoms: C_2  and  C_3
REMARK    3  A    between atoms: C_2  and  C_4
REMARK    4  A    between atoms: C_2  and  C_5
REMARK    5  A    between atoms: C_8  and  C_11
REMARK    6  A    between atoms: C_14  and  C_15
REMARK    7  A    between atoms: C_14  and  O_23
REMARK    8  A    between atoms: C_18  and  O_21
REMARK    9  A    between atoms: O_21  and  C_22
REMARK   10  A    between atoms: N_28  and  C_29
REMARK   11  A    between atoms: C_29  and  C_30
REMARK   12  A    between atoms: C_30  and  C_31
REMARK   13  A    between atoms: C_31  and  N_61
REMARK                            x       y       z     vdW  Elec       q    Type
REMARK                         _______ _______ _______ _____ _____    ______ ____
ROOT
ATOM      1  C   UNL     1      -0.714   3.377  -0.329  0.00  0.00    +0.144 C 
ATOM      2  C   UNL     1       0.795   3.448  -0.322  0.00  0.00    +0.071 C 
ATOM      3  C   UNL     1       1.572   4.541   0.011  0.00  0.00    +0.133 C 
ATOM      4  C   UNL     1       1.248   2.183  -0.722  0.00  0.00    +0.249 C 
ATOM      5  O   UNL     1       2.412   1.844  -0.839  0.00  0.00    -0.282 OA
ATOM      6  C   UNL     1       0.060   1.324  -0.978  0.00  0.00    +0.288 C 
ATOM      7  O   UNL     1       0.103   0.166  -1.340  0.00  0.00    -0.266 OA
ATOM      8  N   UNL     1      -1.068   2.019  -0.755  0.00  0.00    -0.284 N 
ENDROOT
BRANCH   1  12
ATOM      9  C   UNL     1      -2.301   6.223  -3.091  0.00  0.00    -0.042 A 
ATOM     10  C   UNL     1      -2.307   6.497  -1.737  0.00  0.00    +0.004 A 
ATOM     11  C   UNL     1      -1.794   5.576  -0.843  0.00  0.00    +0.006 A 
ATOM     12  C   UNL     1      -1.274   4.381  -1.304  0.00  0.00    -0.022 A 
ATOM     13  C   UNL     1      -1.263   4.109  -2.659  0.00  0.00    +0.006 A 
ATOM     14  C   UNL     1      -1.781   5.028  -3.552  0.00  0.00    +0.004 A 
BRANCH   9  16
ATOM     15  C   UNL     1      -2.081   8.539  -3.951  0.00  0.00    +0.015 C 
ATOM     16  C   UNL     1      -2.860   7.227  -4.066  0.00  0.00    -0.013 C 
ATOM     17  C   UNL     1      -2.733   6.681  -5.490  0.00  0.00    +0.015 C 
ATOM     18  C   UNL     1      -4.335   7.480  -3.747  0.00  0.00    +0.015 C 
ENDBRANCH   9  16
ENDBRANCH   1  12
BRANCH   3  19
ATOM     19  C   UNL     1       3.034   4.402   0.107  0.00  0.00    +0.017 A 
ATOM     20  C   UNL     1       3.592   3.384   0.890  0.00  0.00    +0.015 A 
ATOM     21  C   UNL     1       4.960   3.254   0.972  0.00  0.00    +0.046 A 
ATOM     22  C   UNL     1       5.787   4.139   0.289  0.00  0.00    +0.120 A 
ATOM     23  C   UNL     1       5.237   5.156  -0.485  0.00  0.00    +0.046 A 
ATOM     24  C   UNL     1       3.871   5.290  -0.579  0.00  0.00    +0.015 A 
BRANCH  22  25
ATOM     25  O   UNL     1       7.135   4.011   0.377  0.00  0.00    -0.495 OA
ATOM     26  C   UNL     1       7.633   2.945   1.188  0.00  0.00    +0.277 C 
ENDBRANCH  22  25
ENDBRANCH   3  19
BRANCH   3  27
ATOM     27  O   UNL     1       0.991   5.736   0.248  0.00  0.00    -0.506 OA
ATOM     28  H   UNL     1       1.694   6.410   0.473  0.00  0.00    +0.292 HD
ENDBRANCH   3  27
BRANCH   8  29
ATOM     29  C   UNL     1      -2.430   1.504  -0.910  0.00  0.00    +0.107 C 
BRANCH  29  30
ATOM     30  C   UNL     1      -2.899   0.895   0.413  0.00  0.00    -0.001 C 
BRANCH  30  31
ATOM     31  C   UNL     1      -4.322   0.356   0.251  0.00  0.00    -0.085 C 
BRANCH  31  34
ATOM     32  H   UNL     1      -5.709  -0.592   1.440  0.00  0.00    -0.090 HD
ATOM     33  H   UNL     1      -4.133  -0.944   1.836  0.00  0.00    -0.090 HD
ATOM     34  N   UNL     1      -4.770  -0.208   1.536  0.00  0.00    +0.378 N 
ATOM     35  H   UNL     1      -4.783   0.534   2.245  0.00  0.00    -0.090 HD
ENDBRANCH  31  34
ENDBRANCH  30  31
ENDBRANCH  29  30
ENDBRANCH   8  29
TORSDOF 9
