REMARK  Name = ZINC08695733
REMARK  12 active torsions:
REMARK  status: ('A' for Active; 'I' for Inactive)
REMARK    1  A    between atoms: C_1  and  C_2
REMARK    2  A    between atoms: C_7  and  C_8
REMARK    3  A    between atoms: C_8  and  N_9
REMARK    4  A    between atoms: N_9  and  C_10
REMARK    5  A    between atoms: C_10  and  C_12
REMARK    6  A    between atoms: C_10  and  C_19
REMARK    7  A    between atoms: N_21  and  C_22
REMARK    8  A    between atoms: C_25  and  N_28
REMARK    9  A    between atoms: N_28  and  C_29
REMARK   10  A    between atoms: N_28  and  C_30
REMARK   11  A    between atoms: C_31  and  C_33
REMARK   12  A    between atoms: C_33  and  N_34
REMARK                            x       y       z     vdW  Elec       q    Type
REMARK                         _______ _______ _______ _____ _____    ______ ____
ROOT
ATOM      1  N   UNL     1      -2.733   0.714   2.741  0.00  0.00    -0.280 N 
ATOM      2  C   UNL     1      -3.985   0.884   3.211  0.00  0.00    +0.235 C 
ATOM      3  O   UNL     1      -4.607   1.887   2.931  0.00  0.00    -0.274 OA
ENDROOT
BRANCH   1   4
ATOM      4  C   UNL     1      -1.933  -0.430   3.184  0.00  0.00    +0.144 C 
BRANCH   4  11
ATOM      5  C   UNL     1      -2.013   0.846   5.775  0.00  0.00    +0.044 C 
ATOM      6  C   UNL     1      -0.698   0.674   5.060  0.00  0.00    -0.046 A 
ATOM      7  C   UNL     1       0.470   1.132   5.641  0.00  0.00    +0.003 A 
ATOM      8  C   UNL     1       1.677   0.970   4.987  0.00  0.00    +0.000 A 
ATOM      9  C   UNL     1       1.715   0.359   3.748  0.00  0.00    +0.000 A 
ATOM     10  C   UNL     1       0.547  -0.094   3.164  0.00  0.00    +0.005 A 
ATOM     11  C   UNL     1      -0.659   0.063   3.820  0.00  0.00    -0.027 A 
ENDBRANCH   4  11
ENDBRANCH   1   4
BRANCH   1  12
ATOM     12  C   UNL     1      -2.173   1.674   1.786  0.00  0.00    +0.193 C 
BRANCH  12  13
ATOM     13  C   UNL     1      -2.859   1.516   0.454  0.00  0.00    -0.018 A 
ATOM     14  C   UNL     1      -4.169   1.080   0.399  0.00  0.00    +0.009 A 
ATOM     15  C   UNL     1      -4.801   0.940  -0.822  0.00  0.00    +0.038 A 
ATOM     16  C   UNL     1      -4.117   1.225  -1.992  0.00  0.00    +0.123 A 
ATOM     17  C   UNL     1      -2.802   1.656  -1.936  0.00  0.00    +0.038 A 
ATOM     18  C   UNL     1      -2.175   1.802  -0.713  0.00  0.00    +0.009 A 
ATOM     19  F   UNL     1      -4.731   1.082  -3.187  0.00  0.00    -0.205 F 
ENDBRANCH  12  13
BRANCH  12  20
ATOM     20  C   UNL     1      -2.387   3.075   2.298  0.00  0.00    +0.242 C 
ATOM     21  O   UNL     1      -2.807   3.252   3.422  0.00  0.00    -0.273 OA
ATOM     22  N   UNL     1      -2.113   4.131   1.507  0.00  0.00    -0.284 N 
ATOM     23  H   UNL     1      -1.844   3.990   0.586  0.00  0.00    +0.155 HD
BRANCH  22  24
ATOM     24  C   UNL     1      -2.216   5.433   2.015  0.00  0.00    +0.034 A 
ATOM     25  C   UNL     1      -1.915   5.684   3.347  0.00  0.00    +0.025 A 
ATOM     26  C   UNL     1      -2.011   6.968   3.847  0.00  0.00    +0.025 A 
ATOM     27  C   UNL     1      -2.420   8.006   3.019  0.00  0.00    +0.029 A 
ATOM     28  C   UNL     1      -2.727   7.753   1.689  0.00  0.00    +0.025 A 
ATOM     29  C   UNL     1      -2.625   6.471   1.188  0.00  0.00    +0.025 A 
BRANCH  27  30
ATOM     30  N   UNL     1      -2.522   9.306   3.526  0.00  0.00    -0.336 N 
ATOM     31  C   UNL     1      -3.064  10.378   2.689  0.00  0.00    +0.129 C 
ATOM     32  C   UNL     1      -2.087   9.594   4.895  0.00  0.00    +0.129 C 
ENDBRANCH  27  30
ENDBRANCH  22  24
ENDBRANCH  12  20
ENDBRANCH   1  12
BRANCH   2  33
ATOM     33  C   UNL     1      -4.611  -0.171   4.086  0.00  0.00    +0.210 C 
BRANCH  33  34
ATOM     34  N   UNL     1      -6.004   0.186   4.362  0.00  0.00    -0.255 N 
ATOM     35  C   UNL     1      -7.084  -0.202   3.572  0.00  0.00    +0.048 A 
ATOM     36  C   UNL     1      -7.147  -0.962   2.412  0.00  0.00    +0.024 A 
ATOM     37  C   UNL     1      -8.365  -1.209   1.807  0.00  0.00    +0.002 A 
ATOM     38  C   UNL     1      -9.537  -0.705   2.347  0.00  0.00    +0.001 A 
ATOM     39  C   UNL     1      -9.498   0.052   3.499  0.00  0.00    +0.014 A 
ATOM     40  C   UNL     1      -8.274   0.309   4.117  0.00  0.00    +0.048 A 
ATOM     41  C   UNL     1      -7.894   1.062   5.326  0.00  0.00    +0.250 C 
ATOM     42  O   UNL     1      -8.628   1.659   6.087  0.00  0.00    -0.282 OA
ATOM     43  C   UNL     1      -6.403   0.925   5.411  0.00  0.00    +0.292 C 
ATOM     44  O   UNL     1      -5.688   1.397   6.270  0.00  0.00    -0.266 OA
ENDBRANCH  33  34
ENDBRANCH   2  33
TORSDOF 9
