REMARK  Name = ZINC39946680
REMARK  5 active torsions:
REMARK  status: ('A' for Active; 'I' for Inactive)
REMARK    1  A    between atoms: C_4  and  C_7
REMARK    2  A    between atoms: C_9  and  C_17
REMARK    3  A    between atoms: N_18  and  N_19
REMARK    4  A    between atoms: N_19  and  C_20
REMARK    5  A    between atoms: C_25  and  C_26
REMARK                            x       y       z     vdW  Elec       q    Type
REMARK                         _______ _______ _______ _____ _____    ______ ____
ROOT
ATOM      1  C   UNL     1       3.711  -0.707  -0.038  0.00  0.00    +0.142 C 
ATOM      2  C   UNL     1       4.019  -1.190  -1.438  0.00  0.00    +0.008 C 
ATOM      3  C   UNL     1       4.095  -2.582  -1.346  0.00  0.00    +0.005 A 
ATOM      4  C   UNL     1       4.350  -3.587  -2.303  0.00  0.00    +0.010 A 
ATOM      5  C   UNL     1       4.363  -4.891  -1.922  0.00  0.00    +0.001 A 
ATOM      6  C   UNL     1       4.128  -5.269  -0.599  0.00  0.00    +0.002 A 
ATOM      7  C   UNL     1       3.875  -4.356   0.371  0.00  0.00    +0.026 A 
ATOM      8  C   UNL     1       3.846  -2.975   0.050  0.00  0.00    +0.044 A 
ATOM      9  N   UNL     1       3.628  -1.909   0.798  0.00  0.00    -0.373 N 
ATOM     10  H   UNL     1       3.442  -1.919   1.750  0.00  0.00    +0.161 HD
ENDROOT
BRANCH   1  14
ATOM     11  C   UNL     1      -0.017   1.378   0.010  0.00  0.00    +0.000 A 
ATOM     12  C   UNL     1       1.171   2.086   0.002  0.00  0.00    +0.000 A 
ATOM     13  C   UNL     1       2.377   1.411  -0.013  0.00  0.00    +0.006 A 
ATOM     14  C   UNL     1       2.396   0.029  -0.020  0.00  0.00    -0.021 A 
ATOM     15  C   UNL     1       1.208  -0.679  -0.012  0.00  0.00    +0.006 A 
ATOM     16  C   UNL     1       0.002  -0.004   0.002  0.00  0.00    +0.000 A 
ENDBRANCH   1  14
BRANCH   2  17
ATOM     17  C   UNL     1       4.192  -0.408  -2.582  0.00  0.00    +0.137 C 
ATOM     18  N   UNL     1       4.457  -0.980  -3.734  0.00  0.00    -0.190 NA
BRANCH  18  19
ATOM     19  N   UNL     1       4.617  -0.258  -4.791  0.00  0.00    -0.237 N 
ATOM     20  H   UNL     1       4.541   0.708  -4.734  0.00  0.00    +0.174 HD
BRANCH  19  21
ATOM     21  C   UNL     1       4.898  -0.864  -6.014  0.00  0.00    +0.060 A 
ATOM     22  C   UNL     1       5.002  -2.248  -6.098  0.00  0.00    +0.025 A 
ATOM     23  C   UNL     1       5.280  -2.846  -7.311  0.00  0.00    +0.002 A 
ATOM     24  C   UNL     1       5.456  -2.069  -8.442  0.00  0.00    +0.001 A 
ATOM     25  C   UNL     1       5.354  -0.692  -8.362  0.00  0.00    +0.014 A 
ATOM     26  C   UNL     1       5.070  -0.088  -7.154  0.00  0.00    +0.077 A 
BRANCH  26  27
ATOM     27  C   UNL     1       4.954   1.413  -7.069  0.00  0.00    +0.419 C 
ATOM     28  F   UNL     1       5.165   1.969  -8.336  0.00  0.00    -0.166 F 
ATOM     29  F   UNL     1       3.675   1.756  -6.617  0.00  0.00    -0.166 F 
ATOM     30  F   UNL     1       5.912   1.906  -6.177  0.00  0.00    -0.166 F 
ENDBRANCH  26  27
ENDBRANCH  19  21
ENDBRANCH  18  19
ENDBRANCH   2  17
TORSDOF 5
