REMARK  Name = ZINC07328758
REMARK  8 active torsions:
REMARK  status: ('A' for Active; 'I' for Inactive)
REMARK    1  A    between atoms: C_1  and  C_2
REMARK    2  A    between atoms: C_2  and  O_3
REMARK    3  A    between atoms: O_3  and  C_4
REMARK    4  A    between atoms: C_7  and  S_10
REMARK    5  A    between atoms: S_10  and  C_11
REMARK    6  A    between atoms: C_11  and  C_12
REMARK    7  A    between atoms: N_14  and  N_15
REMARK    8  A    between atoms: C_16  and  C_18
REMARK                            x       y       z     vdW  Elec       q    Type
REMARK                         _______ _______ _______ _____ _____    ______ ____
ROOT
ATOM      1  N   UNL     1      -5.730  -9.831  -0.015  0.00  0.00    -0.229 N 
ATOM      2  C   UNL     1      -7.013 -10.243  -0.010  0.00  0.00    +0.281 C 
ATOM      3  O   UNL     1      -7.913  -9.426  -0.001  0.00  0.00    -0.267 OA
ATOM      4  H   UNL     1      -5.011 -10.483  -0.022  0.00  0.00    +0.173 HD
ENDROOT
BRANCH   2   5
ATOM      5  C   UNL     1      -7.326 -11.686  -0.017  0.00  0.00    +0.155 A 
ATOM      6  C   UNL     1      -8.724 -12.145  -0.018  0.00  0.00    +0.020 A 
ATOM      7  C   UNL     1      -9.804 -11.269  -0.013  0.00  0.00    +0.011 A 
ATOM      8  C   UNL     1     -11.086 -11.776  -0.015  0.00  0.00    +0.001 A 
ATOM      9  C   UNL     1     -11.309 -13.147  -0.020  0.00  0.00    +0.001 A 
ATOM     10  C   UNL     1     -10.252 -14.032  -0.025  0.00  0.00    +0.014 A 
ATOM     11  C   UNL     1      -8.951 -13.541  -0.024  0.00  0.00    +0.050 A 
ATOM     12  C   UNL     1      -7.768 -14.412  -0.029  0.00  0.00    +0.272 A 
ATOM     13  O   UNL     1      -7.887 -15.624  -0.034  0.00  0.00    -0.266 OA
ATOM     14  N   UNL     1      -6.547 -13.839  -0.026  0.00  0.00    -0.242 N 
ATOM     15  H   UNL     1      -5.768 -14.418  -0.029  0.00  0.00    +0.192 HD
ATOM     16  N   UNL     1      -6.361 -12.573  -0.026  0.00  0.00    -0.166 NA
ENDBRANCH   2   5
BRANCH   1  19
ATOM     17  C   UNL     1      -4.150  -8.051  -0.013  0.00  0.00    +0.239 C 
ATOM     18  O   UNL     1      -3.252  -8.866  -0.022  0.00  0.00    -0.273 OA
ATOM     19  N   UNL     1      -5.433  -8.462  -0.009  0.00  0.00    -0.233 N 
ATOM     20  H   UNL     1      -6.151  -7.810  -0.001  0.00  0.00    +0.173 HD
BRANCH  17  21
ATOM     21  C   UNL     1      -3.831  -6.578  -0.006  0.00  0.00    +0.171 C 
BRANCH  21  22
ATOM     22  S   UNL     1      -2.031  -6.349  -0.014  0.00  0.00    -0.116 S 
BRANCH  22  26
ATOM     23  C   UNL     1      -1.498  -1.849   0.006  0.00  0.00    +0.121 A 
ATOM     24  C   UNL     1      -0.387  -2.679  -0.003  0.00  0.00    +0.047 A 
ATOM     25  C   UNL     1      -0.548  -4.050  -0.009  0.00  0.00    +0.018 A 
ATOM     26  C   UNL     1      -1.824  -4.599  -0.006  0.00  0.00    +0.009 A 
ATOM     27  C   UNL     1      -2.937  -3.767   0.004  0.00  0.00    +0.018 A 
ATOM     28  C   UNL     1      -2.773  -2.396   0.016  0.00  0.00    +0.047 A 
BRANCH  23  29
ATOM     29  O   UNL     1      -1.339  -0.499   0.012  0.00  0.00    -0.492 OA
BRANCH  29  31
ATOM     30  C   UNL     1      -0.019   1.526   0.010  0.00  0.00    +0.048 C 
ATOM     31  C   UNL     1       0.002  -0.004   0.002  0.00  0.00    +0.225 C 
ENDBRANCH  29  31
ENDBRANCH  23  29
ENDBRANCH  22  26
ENDBRANCH  21  22
ENDBRANCH  17  21
ENDBRANCH   1  19
TORSDOF 7
