REMARK  Name = ZINC39631613
REMARK  14 active torsions:
REMARK  status: ('A' for Active; 'I' for Inactive)
REMARK    1  A    between atoms: C_1  and  C_2
REMARK    2  A    between atoms: C_2  and  O_3
REMARK    3  A    between atoms: O_3  and  C_4
REMARK    4  A    between atoms: C_9  and  C_10
REMARK    5  A    between atoms: C_14  and  C_23
REMARK    6  A    between atoms: N_25  and  C_26
REMARK    7  A    between atoms: C_26  and  C_28
REMARK    8  A    between atoms: C_26  and  C_29
REMARK    9  A    between atoms: C_29  and  C_30
REMARK   10  A    between atoms: C_30  and  C_31
REMARK   11  A    between atoms: C_31  and  C_32
REMARK   12  A    between atoms: C_32  and  C_33
REMARK   13  A    between atoms: C_32  and  C_34
REMARK   14  A    between atoms: C_32  and  O_35
REMARK                            x       y       z     vdW  Elec       q    Type
REMARK                         _______ _______ _______ _____ _____    ______ ____
ROOT
ATOM      1  C   UNL     1      -3.323  -1.509   0.681  0.00  0.00    +0.250 C 
ATOM      2  O   UNL     1      -3.232  -0.299   0.753  0.00  0.00    -0.270 OA
ATOM      3  N   UNL     1      -4.511  -2.079   0.398  0.00  0.00    -0.296 N 
ATOM      4  C   UNL     1      -4.832  -3.524   0.333  0.00  0.00    +0.121 C 
ATOM      5  C   UNL     1      -6.236  -3.642   0.969  0.00  0.00    +0.100 C 
ATOM      6  C   UNL     1      -6.861  -2.247   0.799  0.00  0.00    -0.004 C 
ATOM      7  C   UNL     1      -5.793  -1.402   0.089  0.00  0.00    +0.115 C 
ATOM      8  C   UNL     1      -8.123  -2.333  -0.054  0.00  0.00    -0.010 C 
ATOM      9  C   UNL     1      -8.758  -0.944  -0.160  0.00  0.00    -0.082 C 
ATOM     10  N   UNL     1      -9.085  -0.450   1.183  0.00  0.00    +0.379 N 
ATOM     11  C   UNL     1      -7.855  -0.281   1.968  0.00  0.00    -0.082 C 
ATOM     12  C   UNL     1      -7.182  -1.643   2.163  0.00  0.00    -0.010 C 
ATOM     13  H   UNL     1      -9.558   0.438   1.108  0.00  0.00    -0.086 HD
ATOM     14  H   UNL     1      -9.689  -1.112   1.646  0.00  0.00    -0.086 HD
ENDROOT
BRANCH   1  20
ATOM     15  C   UNL     1      -1.037  -1.852   1.617  0.00  0.00    +0.133 A 
ATOM     16  C   UNL     1       0.073  -2.656   1.826  0.00  0.00    +0.046 A 
ATOM     17  C   UNL     1       0.099  -3.943   1.327  0.00  0.00    +0.004 A 
ATOM     18  C   UNL     1      -0.981  -4.441   0.615  0.00  0.00    +0.001 A 
ATOM     19  C   UNL     1      -2.092  -3.655   0.400  0.00  0.00    +0.017 A 
ATOM     20  C   UNL     1      -2.134  -2.353   0.904  0.00  0.00    +0.078 A 
BRANCH  15  21
ATOM     21  O   UNL     1      -1.063  -0.587   2.107  0.00  0.00    -0.491 OA
BRANCH  21  23
ATOM     22  C   UNL     1      -0.122   1.296   3.295  0.00  0.00    +0.048 C 
ATOM     23  C   UNL     1       0.091  -0.144   2.824  0.00  0.00    +0.226 C 
ENDBRANCH  21  23
ENDBRANCH  15  21
ENDBRANCH   1  20
BRANCH   5  24
ATOM     24  C   UNL     1      -6.122  -3.995   2.429  0.00  0.00    +0.218 C 
ATOM     25  O   UNL     1      -5.190  -3.577   3.083  0.00  0.00    -0.275 OA
ATOM     26  N   UNL     1      -7.057  -4.774   3.009  0.00  0.00    -0.312 N 
ATOM     27  H   UNL     1      -7.838  -5.050   2.505  0.00  0.00    +0.149 HD
BRANCH  26  28
ATOM     28  C   UNL     1      -6.892  -5.204   4.400  0.00  0.00    +0.070 C 
ATOM     29  C   UNL     1      -7.504  -4.158   5.333  0.00  0.00    +0.028 C 
BRANCH  28  30
ATOM     30  C   UNL     1      -7.598  -6.546   4.605  0.00  0.00    +0.022 C 
BRANCH  30  31
ATOM     31  C   UNL     1      -6.912  -7.618   3.755  0.00  0.00    +0.005 C 
BRANCH  31  32
ATOM     32  C   UNL     1      -7.690  -8.931   3.867  0.00  0.00    +0.034 C 
BRANCH  32  33
ATOM     33  C   UNL     1      -6.947 -10.030   3.104  0.00  0.00    +0.061 C 
ATOM     34  C   UNL     1      -5.561 -10.231   3.720  0.00  0.00    +0.041 C 
ATOM     35  C   UNL     1      -7.738 -11.337   3.193  0.00  0.00    +0.041 C 
BRANCH  33  36
ATOM     36  O   UNL     1      -6.809  -9.649   1.734  0.00  0.00    -0.389 OA
ATOM     37  H   UNL     1      -7.646  -9.431   1.300  0.00  0.00    +0.210 HD
ENDBRANCH  33  36
ENDBRANCH  32  33
ENDBRANCH  31  32
ENDBRANCH  30  31
ENDBRANCH  28  30
ENDBRANCH  26  28
ENDBRANCH   5  24
TORSDOF 10
