REMARK  Name = ZINC02129722
REMARK  7 active torsions:
REMARK  status: ('A' for Active; 'I' for Inactive)
REMARK    1  A    between atoms: C_1  and  O_2
REMARK    2  A    between atoms: O_2  and  C_3
REMARK    3  A    between atoms: C_8  and  O_9
REMARK    4  A    between atoms: O_9  and  C_10
REMARK    5  A    between atoms: C_11  and  C_15
REMARK    6  A    between atoms: C_16  and  O_31
REMARK    7  A    between atoms: N_21  and  C_24
REMARK                            x       y       z     vdW  Elec       q    Type
REMARK                         _______ _______ _______ _____ _____    ______ ____
ROOT
ATOM      1  C   UNL     1       4.004   3.506   0.992  0.00  0.00    +0.067 A 
ATOM      2  C   UNL     1       3.517   4.665   0.465  0.00  0.00    +0.201 A 
ATOM      3  N   UNL     1       2.906   5.576   1.289  0.00  0.00    -0.278 N 
ATOM      4  H   UNL     1       2.554   6.401   0.918  0.00  0.00    +0.173 HD
ATOM      5  C   UNL     1       2.795   5.336   2.608  0.00  0.00    +0.336 A 
ATOM      6  O   UNL     1       2.254   6.157   3.323  0.00  0.00    -0.246 OA
ATOM      7  N   UNL     1       3.275   4.200   3.148  0.00  0.00    -0.229 N 
ATOM      8  C   UNL     1       3.878   3.277   2.373  0.00  0.00    +0.267 A 
ATOM      9  O   UNL     1       4.310   2.249   2.867  0.00  0.00    -0.267 OA
ENDROOT
BRANCH   1  16
ATOM     10  C   UNL     1       2.273  -1.057   0.043  0.00  0.00    +0.162 A 
ATOM     11  C   UNL     1       3.650  -1.163   0.136  0.00  0.00    +0.053 A 
ATOM     12  C   UNL     1       4.441  -0.024   0.163  0.00  0.00    -0.044 A 
ATOM     13  C   UNL     1       3.856   1.223   0.093  0.00  0.00    -0.050 A 
ATOM     14  C   UNL     1       2.476   1.334   0.001  0.00  0.00    +0.052 A 
ATOM     15  C   UNL     1       1.682   0.201  -0.025  0.00  0.00    +0.162 A 
ATOM     16  C   UNL     1       4.675   2.487   0.107  0.00  0.00    +0.001 C 
ATOM     17  C   UNL     1       6.637   1.106  -0.123  0.00  0.00    -0.077 C 
ATOM     18  C   UNL     1       5.934  -0.191   0.278  0.00  0.00    +0.016 C 
ATOM     19  N   UNL     1       6.025   2.222   0.623  0.00  0.00    +0.387 N 
ATOM     20  H   UNL     1       5.967   1.975   1.618  0.00  0.00    -0.085 HD
ATOM     21  H   UNL     1       6.603   3.063   0.512  0.00  0.00    -0.085 HD
BRANCH  10  23
ATOM     22  C   UNL     1       2.179  -3.433   0.089  0.00  0.00    +0.277 C 
ATOM     23  O   UNL     1       1.502  -2.176   0.016  0.00  0.00    -0.491 OA
ENDBRANCH  10  23
BRANCH  15  24
ATOM     24  O   UNL     1       0.330   0.317  -0.121  0.00  0.00    -0.491 OA
ATOM     25  C   UNL     1      -0.205   1.640  -0.185  0.00  0.00    +0.277 C 
ENDBRANCH  15  24
ENDBRANCH   1  16
BRANCH   7  26
ATOM     26  C   UNL     1       3.146   3.977   4.525  0.00  0.00    +0.054 A 
ATOM     27  C   UNL     1       2.022   3.333   5.024  0.00  0.00    +0.027 A 
ATOM     28  C   UNL     1       1.900   3.109   6.381  0.00  0.00    +0.017 A 
ATOM     29  C   UNL     1       2.893   3.536   7.245  0.00  0.00    +0.018 A 
ATOM     30  C   UNL     1       4.012   4.183   6.752  0.00  0.00    +0.017 A 
ATOM     31  C   UNL     1       4.141   4.404   5.395  0.00  0.00    +0.027 A 
ATOM     32 BR   UNL     1       2.719   3.235   9.104  0.00  0.00    -0.050 Br
ENDBRANCH   7  26
BRANCH   2  33
ATOM     33  O   UNL     1       3.630   4.912  -0.857  0.00  0.00    -0.493 OA
ATOM     34  H   UNL     1       3.254   5.759  -1.133  0.00  0.00    +0.294 HD
ENDBRANCH   2  33
TORSDOF 5
