REMARK  Name = ZINC01404666
REMARK  10 active torsions:
REMARK  status: ('A' for Active; 'I' for Inactive)
REMARK    1  A    between atoms: C_1  and  C_2
REMARK    2  A    between atoms: C_2  and  O_3
REMARK    3  A    between atoms: O_3  and  C_4
REMARK    4  A    between atoms: C_7  and  C_10
REMARK    5  A    between atoms: N_18  and  C_31
REMARK    6  A    between atoms: C_19  and  C_21
REMARK    7  A    between atoms: C_24  and  O_29
REMARK    8  A    between atoms: C_25  and  O_27
REMARK    9  A    between atoms: O_27  and  C_28
REMARK   10  A    between atoms: O_29  and  C_30
REMARK                            x       y       z     vdW  Elec       q    Type
REMARK                         _______ _______ _______ _____ _____    ______ ____
ROOT
ATOM      1  C   UNL     1      -1.879   6.237  -2.311  0.00  0.00    +0.099 A 
ATOM      2  C   UNL     1      -0.881   6.551  -1.382  0.00  0.00    +0.035 A 
ATOM      3  C   UNL     1      -0.914   7.925  -1.244  0.00  0.00    +0.127 A 
ATOM      4  N   UNL     1      -1.905   8.366  -2.074  0.00  0.00    -0.272 N 
ATOM      5  H   UNL     1      -2.171   9.323  -2.194  0.00  0.00    +0.189 HD
ATOM      6  N   UNL     1      -2.446   7.369  -2.678  0.00  0.00    -0.173 NA
ATOM      7  C   UNL     1       0.115   8.322  -0.277  0.00  0.00    +0.270 C 
ATOM      8  O   UNL     1       0.343   9.467   0.065  0.00  0.00    -0.268 OA
ATOM      9  N   UNL     1       0.774   7.240   0.176  0.00  0.00    -0.255 N 
ATOM     10  C   UNL     1       0.208   6.050  -0.473  0.00  0.00    +0.146 C 
ENDROOT
BRANCH   9  11
ATOM     11  C   UNL     1       1.818   7.247   1.107  0.00  0.00    +0.038 A 
ATOM     12  C   UNL     1       2.411   6.053   1.496  0.00  0.00    +0.024 A 
ATOM     13  C   UNL     1       3.445   6.063   2.412  0.00  0.00    +0.017 A 
ATOM     14  C   UNL     1       3.884   7.261   2.948  0.00  0.00    +0.018 A 
ATOM     15  C   UNL     1       3.292   8.451   2.566  0.00  0.00    +0.017 A 
ATOM     16  C   UNL     1       2.261   8.447   1.647  0.00  0.00    +0.024 A 
ATOM     17 BR   UNL     1       5.295   7.270   4.207  0.00  0.00    -0.050 Br
ENDBRANCH   9  11
BRANCH   1  21
ATOM     18  C   UNL     1      -2.897   2.345  -3.696  0.00  0.00    +0.121 A 
ATOM     19  C   UNL     1      -3.888   3.303  -3.533  0.00  0.00    +0.046 A 
ATOM     20  C   UNL     1      -3.561   4.566  -3.084  0.00  0.00    +0.013 A 
ATOM     21  C   UNL     1      -2.234   4.879  -2.793  0.00  0.00    +0.003 A 
ATOM     22  C   UNL     1      -1.241   3.916  -2.963  0.00  0.00    +0.013 A 
ATOM     23  C   UNL     1      -1.575   2.654  -3.407  0.00  0.00    +0.046 A 
BRANCH  18  24
ATOM     24  O   UNL     1      -3.222   1.102  -4.138  0.00  0.00    -0.492 OA
BRANCH  24  26
ATOM     25  C   UNL     1      -2.709  -1.169  -4.787  0.00  0.00    +0.048 C 
ATOM     26  C   UNL     1      -2.153   0.165  -4.283  0.00  0.00    +0.225 C 
ENDBRANCH  24  26
ENDBRANCH  18  24
ENDBRANCH   1  21
BRANCH  10  27
ATOM     27  C   UNL     1      -0.367   5.119   0.562  0.00  0.00    -0.018 A 
ATOM     28  C   UNL     1      -1.003   5.634   1.677  0.00  0.00    +0.009 A 
ATOM     29  C   UNL     1      -1.532   4.784   2.629  0.00  0.00    +0.050 A 
ATOM     30  C   UNL     1      -1.427   3.411   2.468  0.00  0.00    +0.162 A 
ATOM     31  C   UNL     1      -0.787   2.893   1.346  0.00  0.00    +0.162 A 
ATOM     32  C   UNL     1      -0.254   3.751   0.398  0.00  0.00    +0.055 A 
BRANCH  31  33
ATOM     33  O   UNL     1      -0.682   1.547   1.184  0.00  0.00    -0.491 OA
ATOM     34  C   UNL     1      -0.013   1.086   0.008  0.00  0.00    +0.277 C 
ENDBRANCH  31  33
BRANCH  30  35
ATOM     35  O   UNL     1      -1.946   2.574   3.405  0.00  0.00    -0.491 OA
ATOM     36  C   UNL     1      -2.588   3.176   4.530  0.00  0.00    +0.277 C 
ENDBRANCH  30  35
ENDBRANCH  10  27
TORSDOF 7
