REMARK  Name = ZINC18387252
REMARK  10 active torsions:
REMARK  status: ('A' for Active; 'I' for Inactive)
REMARK    1  A    between atoms: C_1  and  C_2
REMARK    2  A    between atoms: C_4  and  C_31
REMARK    3  A    between atoms: C_6  and  N_8
REMARK    4  A    between atoms: C_9  and  C_11
REMARK    5  A    between atoms: C_11  and  C_13
REMARK    6  A    between atoms: C_11  and  O_19
REMARK    7  A    between atoms: O_19  and  C_20
REMARK    8  A    between atoms: C_20  and  C_22
REMARK    9  A    between atoms: C_24  and  S_27
REMARK   10  A    between atoms: S_27  and  N_30
REMARK                            x       y       z     vdW  Elec       q    Type
REMARK                         _______ _______ _______ _____ _____    ______ ____
ROOT
ATOM      1  C   UNL     1      -1.137   3.598  -0.088  0.00  0.00    +0.292 C 
ENDROOT
BRANCH   1   2
ATOM      2  C   UNL     1      -0.591   3.995  -1.435  0.00  0.00    +0.002 A 
ATOM      3  C   UNL     1      -1.433   4.063  -2.530  0.00  0.00    +0.008 A 
ATOM      4  C   UNL     1      -0.932   4.431  -3.764  0.00  0.00    +0.000 A 
ATOM      5  C   UNL     1       0.411   4.724  -3.906  0.00  0.00    +0.000 A 
ATOM      6  C   UNL     1       1.254   4.652  -2.813  0.00  0.00    +0.000 A 
ATOM      7  C   UNL     1       0.753   4.287  -1.577  0.00  0.00    +0.008 A 
ENDBRANCH   1   2
BRANCH   1   9
ATOM      8  N   UNL     1      -0.017   1.395   0.010  0.00  0.00    -0.282 N 
ATOM      9  C   UNL     1      -1.169   2.095   0.018  0.00  0.00    +0.263 C 
ATOM     10  O   UNL     1      -2.230   1.516   0.111  0.00  0.00    -0.271 OA
ATOM     11  H   UNL     1       0.834   1.861  -0.001  0.00  0.00    +0.155 HD
BRANCH   8  17
ATOM     12  C   UNL     1       1.924  -2.883  -1.441  0.00  0.00    +0.044 C 
ATOM     13  C   UNL     1       0.880  -2.103  -0.684  0.00  0.00    -0.048 A 
ATOM     14  C   UNL     1      -0.111  -2.770   0.012  0.00  0.00    +0.006 A 
ATOM     15  C   UNL     1      -1.071  -2.058   0.707  0.00  0.00    -0.048 A 
ATOM     16  C   UNL     1      -1.042  -0.677   0.709  0.00  0.00    +0.026 A 
ATOM     17  C   UNL     1      -0.049  -0.004   0.010  0.00  0.00    +0.034 A 
ATOM     18  C   UNL     1       0.910  -0.722  -0.692  0.00  0.00    +0.026 A 
ATOM     19  C   UNL     1      -2.149  -2.789   1.465  0.00  0.00    +0.044 C 
ENDBRANCH   8  17
ENDBRANCH   1   9
BRANCH   1  20
ATOM     20  O   UNL     1      -2.483   4.122   0.062  0.00  0.00    -0.444 OA
BRANCH  20  21
ATOM     21  C   UNL     1      -2.605   5.351   0.603  0.00  0.00    +0.341 C 
ATOM     22  O   UNL     1      -1.613   5.967   0.941  0.00  0.00    -0.245 OA
BRANCH  21  23
ATOM     23  C   UNL     1      -3.938   5.945   0.786  0.00  0.00    +0.068 A 
ATOM     24  C   UNL     1      -4.105   7.254   1.366  0.00  0.00    +0.051 A 
ATOM     25  C   UNL     1      -5.366   7.714   1.486  0.00  0.00    +0.143 A 
ATOM     26  S   UNL     1      -6.347   6.381   0.831  0.00  0.00    -0.076 S 
ATOM     27  C   UNL     1      -5.084   5.272   0.414  0.00  0.00    +0.062 A 
BRANCH  25  28
ATOM     28  S   UNL     1      -5.911   9.256   2.141  0.00  0.00    +0.062 S 
ATOM     29  O   UNL     1      -7.250   9.063   2.576  0.00  0.00    -0.153 OA
ATOM     30  O   UNL     1      -4.886   9.713   3.013  0.00  0.00    -0.153 OA
BRANCH  28  31
ATOM     31  N   UNL     1      -5.972  10.329   0.881  0.00  0.00    -0.203 NA
ATOM     32  H   UNL     1      -6.616  11.054   0.892  0.00  0.00    +0.144 HD
ATOM     33  H   UNL     1      -5.365  10.232   0.131  0.00  0.00    +0.144 HD
ENDBRANCH  28  31
ENDBRANCH  25  28
ENDBRANCH  21  23
ENDBRANCH  20  21
ENDBRANCH   1  20
TORSDOF 8
