REMARK  Name = ZINC24875600
REMARK  7 active torsions:
REMARK  status: ('A' for Active; 'I' for Inactive)
REMARK    1  A    between atoms: C_1  and  N_2
REMARK    2  A    between atoms: C_3  and  N_31
REMARK    3  A    between atoms: C_4  and  C_11
REMARK    4  A    between atoms: N_7  and  C_10
REMARK    5  A    between atoms: C_11  and  C_13
REMARK    6  A    between atoms: C_13  and  N_14
REMARK    7  A    between atoms: C_19  and  C_24
REMARK                            x       y       z     vdW  Elec       q    Type
REMARK                         _______ _______ _______ _____ _____    ______ ____
ROOT
ATOM      1  N   UNL     1       1.149   2.047   0.002  0.00  0.00    -0.291 N 
ATOM      2  C   UNL     1       2.307   1.335  -0.030  0.00  0.00    +0.203 A 
ATOM      3  N   UNL     1       2.344   0.042  -0.039  0.00  0.00    -0.236 NA
ATOM      4  C   UNL     1       1.200  -0.719  -0.015  0.00  0.00    +0.086 A 
ATOM      5  C   UNL     1       1.082  -2.112  -0.021  0.00  0.00    +0.044 A 
ATOM      6  C   UNL     1      -0.152  -2.691   0.007  0.00  0.00    +0.022 A 
ATOM      7  S   UNL     1      -1.246  -1.280   0.043  0.00  0.00    -0.081 S 
ATOM      8  C   UNL     1      -0.013  -0.006   0.019  0.00  0.00    +0.103 A 
ATOM      9  C   UNL     1      -0.035   1.389   0.028  0.00  0.00    +0.269 A 
ATOM     10  O   UNL     1      -1.091   1.999   0.053  0.00  0.00    -0.266 OA
ENDROOT
BRANCH   6  11
ATOM     11  C   UNL     1      -0.498  -4.129   0.008  0.00  0.00    -0.011 A 
ATOM     12  C   UNL     1       0.510  -5.092  -0.028  0.00  0.00    +0.010 A 
ATOM     13  C   UNL     1       0.181  -6.432  -0.021  0.00  0.00    +0.020 A 
ATOM     14  C   UNL     1      -1.147  -6.821   0.010  0.00  0.00    +0.041 A 
ATOM     15  C   UNL     1      -2.153  -5.870   0.040  0.00  0.00    +0.020 A 
ATOM     16  C   UNL     1      -1.836  -4.527   0.039  0.00  0.00    +0.010 A 
ATOM     17 CL   UNL     1      -1.554  -8.509   0.011  0.00  0.00    -0.084 Cl
ENDBRANCH   6  11
BRANCH   1  18
ATOM     18  C   UNL     1       1.181   3.511   0.009  0.00  0.00    +0.206 C 
BRANCH  18  19
ATOM     19  C   UNL     1       1.228   4.006   1.432  0.00  0.00    +0.191 C 
ATOM     20  O   UNL     1       1.233   3.211   2.351  0.00  0.00    -0.290 OA
BRANCH  19  24
ATOM     21  C   UNL     1       1.143   7.751   4.585  0.00  0.00    +0.155 C 
ATOM     22  N   UNL     1       1.225   7.231   3.218  0.00  0.00    -0.284 N 
ATOM     23  C   UNL     1       1.185   5.881   3.012  0.00  0.00    +0.116 A 
ATOM     24  C   UNL     1       1.265   5.391   1.697  0.00  0.00    +0.121 A 
ATOM     25  C   UNL     1       1.394   6.368   0.607  0.00  0.00    +0.269 A 
ATOM     26  O   UNL     1       1.472   6.000  -0.550  0.00  0.00    -0.267 OA
ATOM     27  N   UNL     1       1.418   7.681   0.916  0.00  0.00    -0.263 N 
ATOM     28  C   UNL     1       1.338   8.090   2.193  0.00  0.00    +0.333 A 
ATOM     29  O   UNL     1       1.369   9.281   2.429  0.00  0.00    -0.246 OA
ATOM     30  C   UNL     1       1.540   8.673  -0.154  0.00  0.00    +0.157 C 
BRANCH  23  31
ATOM     31  N   UNL     1       1.070   5.024   4.063  0.00  0.00    -0.344 N 
ATOM     32  H   UNL     1       1.038   3.939   3.887  0.00  0.00    +0.144 HD
ATOM     33  H   UNL     1       1.008   5.417   5.088  0.00  0.00    +0.144 HD
ENDBRANCH  23  31
ENDBRANCH  19  24
ENDBRANCH  18  19
ENDBRANCH   1  18
TORSDOF 5
