REMARK  Name = ZINC48063314
REMARK  10 active torsions:
REMARK  status: ('A' for Active; 'I' for Inactive)
REMARK    1  A    between atoms: C_1  and  C_2
REMARK    2  A    between atoms: C_4  and  C_29
REMARK    3  A    between atoms: C_5  and  N_9
REMARK    4  A    between atoms: C_6  and  C_8
REMARK    5  A    between atoms: C_10  and  C_12
REMARK    6  A    between atoms: C_12  and  N_13
REMARK    7  A    between atoms: N_16  and  C_17
REMARK    8  A    between atoms: N_22  and  C_26
REMARK    9  A    between atoms: C_26  and  C_27
REMARK   10  A    between atoms: C_26  and  C_28
REMARK                            x       y       z     vdW  Elec       q    Type
REMARK                         _______ _______ _______ _____ _____    ______ ____
ROOT
ATOM      1  N   UNL     1       0.837  -6.978   2.268  0.00  0.00    -0.291 N 
ATOM      2  C   UNL     1       0.950  -8.306   2.467  0.00  0.00    +0.304 C 
ATOM      3  O   UNL     1       0.680  -9.080   1.569  0.00  0.00    -0.252 OA
ATOM      4  N   UNL     1       1.362  -8.776   3.661  0.00  0.00    -0.268 N 
ATOM      5  H   UNL     1       1.052  -6.360   2.984  0.00  0.00    +0.151 HD
ATOM      6  H   UNL     1       1.642  -8.159   4.355  0.00  0.00    +0.156 HD
ENDROOT
BRANCH   4   7
ATOM      7  C   UNL     1       1.385 -10.157   3.900  0.00  0.00    +0.054 A 
ATOM      8  C   UNL     1       1.706 -11.039   2.880  0.00  0.00    +0.038 A 
ATOM      9  C   UNL     1       1.716 -12.407   3.173  0.00  0.00    +0.040 A 
ATOM     10  C   UNL     1       1.993 -13.611   2.397  0.00  0.00    +0.144 A 
ATOM     11  N   UNL     1       1.850 -14.634   3.189  0.00  0.00    -0.177 NA
ATOM     12  N   UNL     1       1.490 -14.204   4.470  0.00  0.00    -0.244 N 
ATOM     13  C   UNL     1       1.403 -12.837   4.478  0.00  0.00    +0.159 A 
ATOM     14  N   UNL     1       1.103 -11.948   5.417  0.00  0.00    -0.234 NA
ATOM     15  C   UNL     1       1.092 -10.657   5.168  0.00  0.00    +0.136 A 
BRANCH  12  16
ATOM     16  C   UNL     1       1.244 -15.077   5.620  0.00  0.00    +0.103 C 
ATOM     17  C   UNL     1       0.094 -16.033   5.298  0.00  0.00    +0.032 C 
ATOM     18  C   UNL     1       2.507 -15.884   5.928  0.00  0.00    +0.032 C 
ENDBRANCH  12  16
ENDBRANCH   4   7
BRANCH   1  19
ATOM     19  C   UNL     1       0.389  -6.467   0.970  0.00  0.00    +0.202 C 
BRANCH  19  21
ATOM     20  N   UNL     1      -0.037  -4.268  -0.080  0.00  0.00    -0.284 N 
ATOM     21  C   UNL     1       0.348  -4.961   1.010  0.00  0.00    +0.234 C 
ATOM     22  O   UNL     1       0.663  -4.372   2.023  0.00  0.00    -0.274 OA
ATOM     23  H   UNL     1      -0.366  -4.738  -0.862  0.00  0.00    +0.155 HD
BRANCH  20  28
ATOM     24  C   UNL     1       0.261   1.397  -0.094  0.00  0.00    +0.044 C 
ATOM     25  C   UNL     1       0.182  -0.108  -0.090  0.00  0.00    -0.050 A 
ATOM     26  C   UNL     1       0.842  -0.836  -1.063  0.00  0.00    +0.008 A 
ATOM     27  C   UNL     1       0.772  -2.215  -1.062  0.00  0.00    -0.029 A 
ATOM     28  C   UNL     1       0.037  -2.871  -0.083  0.00  0.00    +0.039 A 
ATOM     29  C   UNL     1      -0.625  -2.137   0.893  0.00  0.00    -0.029 A 
ATOM     30  C   UNL     1      -0.546  -0.758   0.889  0.00  0.00    +0.008 A 
ATOM     31  C   UNL     1      -1.423  -2.844   1.957  0.00  0.00    +0.045 C 
ATOM     32  C   UNL     1       1.490  -3.008  -2.124  0.00  0.00    +0.045 C 
ENDBRANCH  20  28
ENDBRANCH  19  21
ENDBRANCH   1  19
TORSDOF 5
