REMARK  Name = ZINC39990558
REMARK  9 active torsions:
REMARK  status: ('A' for Active; 'I' for Inactive)
REMARK    1  A    between atoms: C_1  and  C_2
REMARK    2  A    between atoms: C_2  and  C_3
REMARK    3  A    between atoms: C_3  and  N_4
REMARK    4  A    between atoms: N_4  and  C_5
REMARK    5  A    between atoms: N_4  and  C_17
REMARK    6  A    between atoms: C_5  and  C_6
REMARK    7  A    between atoms: N_8  and  C_9
REMARK    8  A    between atoms: C_17  and  C_18
REMARK    9  A    between atoms: N_20  and  C_21
REMARK                            x       y       z     vdW  Elec       q    Type
REMARK                         _______ _______ _______ _____ _____    ______ ____
ROOT
ATOM      1  N   UNL     1       0.797  -1.838   1.195  0.00  0.00    +0.391 N 
ATOM      2  H   UNL     1      -0.195  -2.020   1.182  0.00  0.00    -0.080 HD
ENDROOT
BRANCH   1   3
ATOM      3  C   UNL     1       1.035  -0.405   0.979  0.00  0.00    -0.078 C 
BRANCH   3   5
ATOM      4  C   UNL     1       0.471   1.556  -0.463  0.00  0.00    +0.002 C 
ATOM      5  C   UNL     1       0.336   0.040  -0.307  0.00  0.00    -0.022 C 
ENDBRANCH   3   5
ENDBRANCH   1   3
BRANCH   1   6
ATOM      6  C   UNL     1       1.351  -2.235   2.497  0.00  0.00    +0.020 C 
BRANCH   6   7
ATOM      7  C   UNL     1       0.597  -1.535   3.598  0.00  0.00    +0.201 C 
ATOM      8  O   UNL     1      -0.312  -0.780   3.325  0.00  0.00    -0.278 OA
ATOM      9  N   UNL     1       0.932  -1.749   4.886  0.00  0.00    -0.286 N 
ATOM     10  H   UNL     1       1.612  -2.404   5.107  0.00  0.00    +0.155 HD
BRANCH   9  11
ATOM     11  C   UNL     1       0.300  -1.024   5.903  0.00  0.00    +0.052 A 
ATOM     12  C   UNL     1      -1.034  -0.661   5.773  0.00  0.00    +0.026 A 
ATOM     13  C   UNL     1      -1.656   0.054   6.778  0.00  0.00    +0.022 A 
ATOM     14  C   UNL     1      -0.950   0.409   7.915  0.00  0.00    +0.042 A 
ATOM     15  C   UNL     1       0.379   0.049   8.048  0.00  0.00    +0.041 A 
ATOM     16  C   UNL     1       1.004  -0.672   7.048  0.00  0.00    +0.064 A 
ATOM     17 CL   UNL     1       2.670  -1.129   7.218  0.00  0.00    -0.082 Cl
ATOM     18 CL   UNL     1      -1.735   1.309   9.175  0.00  0.00    -0.083 Cl
ENDBRANCH   9  11
ENDBRANCH   6   7
ENDBRANCH   1   6
BRANCH   1  19
ATOM     19  C   UNL     1       1.451  -2.609   0.129  0.00  0.00    +0.019 C 
BRANCH  19  20
ATOM     20  C   UNL     1       1.071  -4.062   0.255  0.00  0.00    +0.197 C 
ATOM     21  O   UNL     1       0.246  -4.404   1.075  0.00  0.00    -0.278 OA
ATOM     22  N   UNL     1       1.649  -4.981  -0.544  0.00  0.00    -0.310 N 
ATOM     23  H   UNL     1       2.309  -4.707  -1.200  0.00  0.00    +0.149 HD
BRANCH  22  24
ATOM     24  C   UNL     1       1.279  -6.394  -0.421  0.00  0.00    +0.110 C 
ATOM     25  C   UNL     1       1.544  -7.106  -1.750  0.00  0.00    +0.068 C 
ATOM     26  C   UNL     1       1.435  -8.618  -1.516  0.00  0.00    +0.231 C 
ATOM     27  O   UNL     1       2.481  -9.012  -0.626  0.00  0.00    -0.492 OA
ATOM     28  C   UNL     1       2.648  -8.295   0.515  0.00  0.00    +0.125 A 
ATOM     29  C   UNL     1       2.099  -7.034   0.670  0.00  0.00    +0.014 A 
ATOM     30  C   UNL     1       2.300  -6.337   1.849  0.00  0.00    +0.009 A 
ATOM     31  C   UNL     1       3.043  -6.894   2.871  0.00  0.00    +0.001 A 
ATOM     32  C   UNL     1       3.591  -8.155   2.719  0.00  0.00    +0.004 A 
ATOM     33  C   UNL     1       3.394  -8.854   1.547  0.00  0.00    +0.046 A 
ENDBRANCH  22  24
ENDBRANCH  19  20
ENDBRANCH   1  19
TORSDOF 8
