REMARK  Name = ZINC20573072
REMARK  9 active torsions:
REMARK  status: ('A' for Active; 'I' for Inactive)
REMARK    1  A    between atoms: C_1  and  C_2
REMARK    2  A    between atoms: C_2  and  O_3
REMARK    3  A    between atoms: O_3  and  C_4
REMARK    4  A    between atoms: C_7  and  C_13
REMARK    5  A    between atoms: C_9  and  O_10
REMARK    6  A    between atoms: O_10  and  C_11
REMARK    7  A    between atoms: C_11  and  C_12
REMARK    8  A    between atoms: N_15  and  C_16
REMARK    9  A    between atoms: C_16  and  C_17
REMARK                            x       y       z     vdW  Elec       q    Type
REMARK                         _______ _______ _______ _____ _____    ______ ____
ROOT
ATOM      1  C   UNL     1       0.056  -8.991  -0.182  0.00  0.00    +0.233 C 
ATOM      2  O   UNL     1      -0.465  -8.330  -1.055  0.00  0.00    -0.274 OA
ATOM      3  N   UNL     1       0.037 -10.337  -0.254  0.00  0.00    -0.300 N 
ATOM      4  C   UNL     1       0.659 -11.152   0.799  0.00  0.00    +0.110 C 
ATOM      5  C   UNL     1       1.651 -12.123   0.149  0.00  0.00    +0.047 C 
ATOM      6  C   UNL     1       0.933 -12.931  -0.932  0.00  0.00    +0.064 C 
ATOM      7  C   UNL     1       0.398 -11.991  -2.012  0.00  0.00    +0.047 C 
ATOM      8  C   UNL     1      -0.611 -11.018  -1.383  0.00  0.00    +0.110 C 
ATOM      9  C   UNL     1       1.892 -13.918  -1.547  0.00  0.00    +0.057 A 
ATOM     10  C   UNL     1       1.887 -15.238  -1.251  0.00  0.00    +0.039 A 
ATOM     11  N   UNL     1       2.873 -15.817  -1.983  0.00  0.00    -0.349 N 
ATOM     12  H   UNL     1       3.113 -16.757  -1.987  0.00  0.00    +0.166 HD
ATOM     13  C   UNL     1       3.457 -14.834  -2.707  0.00  0.00    +0.171 A 
ATOM     14  N   UNL     1       2.861 -13.701  -2.437  0.00  0.00    -0.348 N 
ATOM     15  C   UNL     1       0.927 -15.867  -0.273  0.00  0.00    +0.070 C 
ATOM     16  C   UNL     1       0.299 -14.742   0.561  0.00  0.00    +0.088 C 
ATOM     17  N   UNL     1      -0.183 -13.677  -0.330  0.00  0.00    -0.305 NA
ATOM     18  H   UNL     1      -0.813 -13.056   0.156  0.00  0.00    +0.123 HD
ATOM     19  H   UNL     1       3.087 -12.840  -2.823  0.00  0.00    +0.166 HD
ENDROOT
BRANCH   1  20
ATOM     20  C   UNL     1       0.725  -8.308   0.982  0.00  0.00    +0.200 C 
BRANCH  20  23
ATOM     21  C   UNL     1       1.139  -6.035   1.757  0.00  0.00    +0.245 C 
ATOM     22  O   UNL     1       1.712  -6.501   2.724  0.00  0.00    -0.270 OA
ATOM     23  N   UNL     1       0.610  -6.856   0.828  0.00  0.00    -0.303 N 
ATOM     24  H   UNL     1       0.153  -6.485   0.057  0.00  0.00    +0.150 HD
BRANCH  21  28
ATOM     25  C   UNL     1       0.802  -1.823   1.306  0.00  0.00    +0.162 A 
ATOM     26  C   UNL     1       0.258  -2.670   0.349  0.00  0.00    +0.050 A 
ATOM     27  C   UNL     1       0.366  -4.036   0.492  0.00  0.00    +0.017 A 
ATOM     28  C   UNL     1       1.024  -4.572   1.602  0.00  0.00    +0.040 A 
ATOM     29  C   UNL     1       1.571  -3.720   2.565  0.00  0.00    +0.062 A 
ATOM     30  C   UNL     1       1.464  -2.352   2.413  0.00  0.00    +0.163 A 
BRANCH  25  31
ATOM     31  O   UNL     1       0.693  -0.477   1.160  0.00  0.00    -0.489 OA
BRANCH  31  33
ATOM     32  C   UNL     1      -0.019   1.526   0.010  0.00  0.00    +0.048 C 
ATOM     33  C   UNL     1       0.002  -0.004   0.002  0.00  0.00    +0.226 C 
ENDBRANCH  31  33
ENDBRANCH  25  31
BRANCH  30  34
ATOM     34  O   UNL     1       2.000  -1.520   3.345  0.00  0.00    -0.489 OA
BRANCH  34  35
ATOM     35  C   UNL     1       2.664  -2.130   4.454  0.00  0.00    +0.226 C 
ATOM     36  C   UNL     1       3.198  -1.043   5.390  0.00  0.00    +0.048 C 
ENDBRANCH  34  35
ENDBRANCH  30  34
ENDBRANCH  21  28
ENDBRANCH  20  23
ENDBRANCH   1  20
TORSDOF 7
