REMARK  Name = ZINC36643360
REMARK  17 active torsions:
REMARK  status: ('A' for Active; 'I' for Inactive)
REMARK    1  A    between atoms: C_1  and  C_2
REMARK    2  A    between atoms: C_2  and  C_3
REMARK    3  A    between atoms: C_3  and  N_4
REMARK    4  A    between atoms: N_4  and  C_5
REMARK    5  A    between atoms: N_4  and  S_8
REMARK    6  A    between atoms: C_5  and  C_6
REMARK    7  A    between atoms: C_6  and  C_7
REMARK    8  A    between atoms: S_8  and  C_11
REMARK    9  A    between atoms: C_14  and  C_17
REMARK   10  A    between atoms: N_19  and  C_20
REMARK   11  A    between atoms: C_20  and  C_21
REMARK   12  A    between atoms: C_21  and  C_22
REMARK   13  A    between atoms: C_22  and  N_23
REMARK   14  A    between atoms: N_23  and  C_24
REMARK   15  A    between atoms: N_23  and  C_25
REMARK   16  A    between atoms: C_31  and  C_35
REMARK   17  A    between atoms: C_35  and  C_36
REMARK                            x       y       z     vdW  Elec       q    Type
REMARK                         _______ _______ _______ _____ _____    ______ ____
ROOT
ATOM      1  C   UNL     1       3.683  -3.548  -3.295  0.00  0.00    +0.252 C 
ATOM      2  O   UNL     1       3.945  -2.679  -4.104  0.00  0.00    -0.270 OA
ATOM      3  N   UNL     1       4.538  -4.572  -3.104  0.00  0.00    -0.246 N 
ATOM      4  C   UNL     1       5.769  -4.572  -3.736  0.00  0.00    +0.168 A 
ATOM      5  N   UNL     1       6.724  -5.472  -3.680  0.00  0.00    -0.224 NA
ATOM      6  C   UNL     1       7.885  -5.341  -4.357  0.00  0.00    +0.080 A 
ATOM      7  C   UNL     1       8.986  -6.229  -4.382  0.00  0.00    +0.029 A 
ATOM      8  C   UNL     1      10.099  -5.943  -5.128  0.00  0.00    +0.006 A 
ATOM      9  C   UNL     1      10.188  -4.781  -5.881  0.00  0.00    -0.046 A 
ATOM     10  C   UNL     1       9.131  -3.890  -5.880  0.00  0.00    +0.021 A 
ATOM     11  C   UNL     1       8.012  -4.168  -5.136  0.00  0.00    +0.041 A 
ATOM     12  S   UNL     1       6.461  -3.351  -4.844  0.00  0.00    -0.052 S 
ENDROOT
BRANCH   1  16
ATOM     13  C   UNL     1       0.068  -3.357  -1.073  0.00  0.00    +0.106 A 
ATOM     14  C   UNL     1       0.851  -2.224  -1.213  0.00  0.00    +0.029 A 
ATOM     15  C   UNL     1       2.026  -2.280  -1.934  0.00  0.00    +0.015 A 
ATOM     16  C   UNL     1       2.425  -3.482  -2.522  0.00  0.00    +0.037 A 
ATOM     17  C   UNL     1       1.631  -4.620  -2.376  0.00  0.00    +0.015 A 
ATOM     18  C   UNL     1       0.461  -4.552  -1.648  0.00  0.00    +0.029 A 
BRANCH  13  19
ATOM     19  S   UNL     1      -1.431  -3.277  -0.151  0.00  0.00    +0.061 S 
ATOM     20  O   UNL     1      -2.253  -4.337  -0.620  0.00  0.00    -0.153 OA
ATOM     21  O   UNL     1      -1.851  -1.920  -0.174  0.00  0.00    -0.153 OA
BRANCH  19  22
ATOM     22  N   UNL     1      -1.057  -3.630   1.423  0.00  0.00    -0.177 NA
BRANCH  22  23
ATOM     23  C   UNL     1      -0.687  -2.555   2.347  0.00  0.00    +0.109 C 
BRANCH  23  25
ATOM     24  C   UNL     1       1.224  -1.304   3.361  0.00  0.00    +0.005 C 
ATOM     25  C   UNL     1       0.837  -2.427   2.397  0.00  0.00    +0.014 C 
ENDBRANCH  23  25
ENDBRANCH  22  23
BRANCH  22  26
ATOM     26  C   UNL     1      -1.097  -5.017   1.893  0.00  0.00    +0.109 C 
BRANCH  26  27
ATOM     27  C   UNL     1      -2.457  -5.300   2.535  0.00  0.00    +0.014 C 
ATOM     28  C   UNL     1      -2.498  -6.749   3.025  0.00  0.00    +0.005 C 
ENDBRANCH  26  27
ENDBRANCH  22  26
ENDBRANCH  19  22
ENDBRANCH  13  19
ENDBRANCH   1  16
BRANCH   9  29
ATOM     29  C   UNL     1      11.426  -4.493  -6.692  0.00  0.00    +0.032 C 
ATOM     30  C   UNL     1      11.265  -5.082  -8.095  0.00  0.00    +0.009 C 
ENDBRANCH   9  29
BRANCH   3  31
ATOM     31  C   UNL     1       4.165  -5.684  -2.227  0.00  0.00    +0.114 C 
BRANCH  31  32
ATOM     32  C   UNL     1       3.641  -6.847  -3.073  0.00  0.00    +0.001 C 
BRANCH  32  33
ATOM     33  C   UNL     1       3.126  -7.955  -2.153  0.00  0.00    -0.078 C 
BRANCH  33  34
ATOM     34  N   UNL     1       2.623  -9.071  -2.965  0.00  0.00    +0.376 N 
ATOM     35  C   UNL     1       3.735  -9.673  -3.713  0.00  0.00    -0.097 C 
ATOM     36  C   UNL     1       2.019 -10.083  -2.087  0.00  0.00    -0.097 C 
ATOM     37  H   UNL     1       1.928  -8.730  -3.612  0.00  0.00    -0.083 HD
ENDBRANCH  33  34
ENDBRANCH  32  33
ENDBRANCH  31  32
ENDBRANCH   3  31
TORSDOF 12
