REMARK  Name = ZINC20609100
REMARK  14 active torsions:
REMARK  status: ('A' for Active; 'I' for Inactive)
REMARK    1  A    between atoms: C_1  and  C_2
REMARK    2  A    between atoms: C_2  and  O_3
REMARK    3  A    between atoms: O_3  and  C_4
REMARK    4  A    between atoms: C_4  and  C_6
REMARK    5  A    between atoms: C_6  and  C_7
REMARK    6  A    between atoms: C_6  and  N_11
REMARK    7  A    between atoms: C_6  and  N_28
REMARK    8  A    between atoms: N_11  and  C_12
REMARK    9  A    between atoms: C_13  and  C_26
REMARK   10  A    between atoms: C_18  and  C_22
REMARK   11  A    between atoms: C_22  and  C_23
REMARK   12  A    between atoms: C_22  and  C_24
REMARK   13  A    between atoms: C_22  and  C_25
REMARK   14  A    between atoms: C_29  and  C_31
REMARK                            x       y       z     vdW  Elec       q    Type
REMARK                         _______ _______ _______ _____ _____    ______ ____
ROOT
ATOM      1  C   UNL     1      -0.959   2.486   8.493  0.00  0.00    +0.296 C 
ENDROOT
BRANCH   1   2
ATOM      2  C   UNL     1      -1.729   2.645   9.806  0.00  0.00    +0.438 C 
ATOM      3  F   UNL     1      -3.103   2.575   9.552  0.00  0.00    -0.166 F 
ATOM      4  F   UNL     1      -1.364   1.621  10.687  0.00  0.00    -0.166 F 
ATOM      5  F   UNL     1      -1.422   3.884  10.379  0.00  0.00    -0.166 F 
ENDBRANCH   1   2
BRANCH   1   6
ATOM      6  N   UNL     1       0.469   2.704   8.734  0.00  0.00    -0.274 N 
ATOM      7  C   UNL     1       1.143   1.892   9.573  0.00  0.00    +0.246 C 
ATOM      8  O   UNL     1       0.590   0.921  10.053  0.00  0.00    -0.270 OA
ATOM      9  H   UNL     1       0.992   3.531   8.231  0.00  0.00    +0.152 HD
BRANCH   7  10
ATOM     10  C   UNL     1       2.552   2.181   9.908  0.00  0.00    +0.037 A 
ATOM     11  C   UNL     1       3.190   3.292   9.353  0.00  0.00    +0.016 A 
ATOM     12  C   UNL     1       4.503   3.562   9.675  0.00  0.00    +0.039 A 
ATOM     13  C   UNL     1       5.194   2.724  10.537  0.00  0.00    +0.123 A 
ATOM     14  C   UNL     1       4.567   1.616  11.086  0.00  0.00    +0.039 A 
ATOM     15  C   UNL     1       3.252   1.342  10.777  0.00  0.00    +0.016 A 
ATOM     16  F   UNL     1       6.483   2.989  10.845  0.00  0.00    -0.205 F 
ENDBRANCH   7  10
ENDBRANCH   1   6
BRANCH   1  17
ATOM     17  C   UNL     1      -1.171   1.095   7.952  0.00  0.00    +0.359 C 
ATOM     18  O   UNL     1      -0.288   0.274   8.036  0.00  0.00    -0.246 OA
BRANCH  17  19
ATOM     19  O   UNL     1      -2.339   0.769   7.377  0.00  0.00    -0.462 OA
BRANCH  19  21
ATOM     20  C   UNL     1      -3.860  -0.772   6.262  0.00  0.00    +0.048 C 
ATOM     21  C   UNL     1      -2.472  -0.589   6.879  0.00  0.00    +0.229 C 
ENDBRANCH  19  21
ENDBRANCH  17  19
ENDBRANCH   1  17
BRANCH   1  22
ATOM     22  N   UNL     1      -1.446   3.467   7.520  0.00  0.00    -0.301 N 
ATOM     23  H   UNL     1      -2.112   4.280   7.845  0.00  0.00    +0.149 HD
BRANCH  22  24
ATOM     24  C   UNL     1      -1.067   3.372   6.192  0.00  0.00    +0.086 A 
ATOM     25  C   UNL     1      -1.503   4.130   5.114  0.00  0.00    +0.083 A 
ATOM     26  C   UNL     1      -0.941   3.825   3.808  0.00  0.00    -0.018 A 
ATOM     27  C   UNL     1      -0.042   2.818   3.790  0.00  0.00    -0.004 A 
ATOM     28  S   UNL     1       0.067   2.277   5.472  0.00  0.00    -0.077 S 
ATOM     29  C   UNL     1       0.695   2.287   2.599  0.00  0.00    +0.047 C 
ATOM     30  C   UNL     1       0.002   2.805   1.331  0.00  0.00    -0.000 C 
ATOM     31  C   UNL     1      -0.238   4.311   1.477  0.00  0.00    +0.009 C 
ATOM     32  C   UNL     1      -1.315   4.567   2.531  0.00  0.00    +0.037 C 
BRANCH  30  33
ATOM     33  C   UNL     1       0.894   2.544   0.116  0.00  0.00    -0.035 C 
ATOM     34  C   UNL     1       1.138   1.040  -0.024  0.00  0.00    +0.011 C 
ATOM     35  C   UNL     1       2.232   3.262   0.301  0.00  0.00    +0.011 C 
ATOM     36  C   UNL     1       0.204   3.068  -1.145  0.00  0.00    +0.011 C 
ENDBRANCH  30  33
BRANCH  25  37
ATOM     37  C   UNL     1      -2.469   5.173   5.282  0.00  0.00    +0.102 C 
ATOM     38  N   UNL     1      -3.236   6.000   5.415  0.00  0.00    -0.191 NA
ENDBRANCH  25  37
ENDBRANCH  22  24
ENDBRANCH   1  22
TORSDOF 10
