REMARK  Name = ZINC59599235
REMARK  11 active torsions:
REMARK  status: ('A' for Active; 'I' for Inactive)
REMARK    1  A    between atoms: C_1  and  C_2
REMARK    2  A    between atoms: C_2  and  O_3
REMARK    3  A    between atoms: O_3  and  C_4
REMARK    4  A    between atoms: C_6  and  C_23
REMARK    5  A    between atoms: C_9  and  O_10
REMARK    6  A    between atoms: O_10  and  C_11
REMARK    7  A    between atoms: C_12  and  N_21
REMARK    8  A    between atoms: N_13  and  C_20
REMARK    9  A    between atoms: N_16  and  C_19
REMARK   10  A    between atoms: C_24  and  C_25
REMARK   11  A    between atoms: C_24  and  C_27
REMARK                            x       y       z     vdW  Elec       q    Type
REMARK                         _______ _______ _______ _____ _____    ______ ____
ROOT
ATOM      1  C   UNL     1      -1.360  -1.469  -0.412  0.00  0.00    +0.163 A 
ATOM      2  C   UNL     1      -0.253  -2.293  -0.420  0.00  0.00    +0.058 A 
ATOM      3  C   UNL     1      -0.354  -3.600   0.076  0.00  0.00    -0.006 A 
ATOM      4  C   UNL     1      -1.579  -4.062   0.577  0.00  0.00    +0.029 A 
ATOM      5  C   UNL     1      -2.678  -3.230   0.581  0.00  0.00    +0.066 A 
ATOM      6  C   UNL     1      -2.575  -1.934   0.093  0.00  0.00    +0.171 A 
ATOM      7 BR   UNL     1      -1.723  -5.824   1.248  0.00  0.00    -0.050 Br
ENDROOT
BRANCH   3   8
ATOM      8  C   UNL     1       0.818  -4.482   0.070  0.00  0.00    +0.028 C 
ATOM      9  C   UNL     1       2.063  -3.961   0.256  0.00  0.00    +0.059 C 
BRANCH   9  10
ATOM     10  C   UNL     1       3.256  -4.827   0.116  0.00  0.00    -0.007 A 
ATOM     11  C   UNL     1       3.461  -5.885   1.001  0.00  0.00    +0.012 A 
ATOM     12  C   UNL     1       4.574  -6.689   0.865  0.00  0.00    +0.039 A 
ATOM     13  C   UNL     1       5.488  -6.446  -0.148  0.00  0.00    +0.123 A 
ATOM     14  C   UNL     1       5.289  -5.396  -1.030  0.00  0.00    +0.039 A 
ATOM     15  C   UNL     1       4.176  -4.590  -0.906  0.00  0.00    +0.012 A 
ATOM     16  F   UNL     1       6.576  -7.236  -0.277  0.00  0.00    -0.205 F 
ENDBRANCH   9  10
BRANCH   9  17
ATOM     17  C   UNL     1       2.217  -2.577   0.588  0.00  0.00    +0.100 C 
ATOM     18  N   UNL     1       2.340  -1.478   0.851  0.00  0.00    -0.191 NA
ENDBRANCH   9  17
ENDBRANCH   3   8
BRANCH   1  19
ATOM     19  O   UNL     1      -1.265  -0.200  -0.893  0.00  0.00    -0.489 OA
BRANCH  19  21
ATOM     20  C   UNL     1      -0.080   1.656  -1.888  0.00  0.00    +0.048 C 
ATOM     21  C   UNL     1       0.008   0.210  -1.395  0.00  0.00    +0.226 C 
ENDBRANCH  19  21
ENDBRANCH   1  19
BRANCH   6  22
ATOM     22  O   UNL     1      -3.660  -1.118   0.104  0.00  0.00    -0.443 OA
BRANCH  22  23
ATOM     23  C   UNL     1      -4.854  -1.647   0.494  0.00  0.00    +0.230 A 
ATOM     24  C   UNL     1      -5.458  -1.224   1.647  0.00  0.00    +0.149 A 
ATOM     25  N   UNL     1      -6.664  -1.774   2.018  0.00  0.00    -0.282 N 
ATOM     26  C   UNL     1      -7.245  -2.718   1.255  0.00  0.00    +0.333 A 
ATOM     27  O   UNL     1      -8.310  -3.193   1.599  0.00  0.00    -0.246 OA
ATOM     28  N   UNL     1      -6.665  -3.145   0.118  0.00  0.00    -0.261 N 
ATOM     29  C   UNL     1      -5.487  -2.631  -0.286  0.00  0.00    +0.301 A 
ATOM     30  O   UNL     1      -4.971  -3.020  -1.320  0.00  0.00    -0.263 OA
ATOM     31  C   UNL     1      -7.324  -4.175  -0.689  0.00  0.00    +0.157 C 
ATOM     32  C   UNL     1      -7.318  -1.328   3.250  0.00  0.00    +0.155 C 
BRANCH  24  33
ATOM     33  N   UNL     1      -4.865  -0.260   2.427  0.00  0.00    -0.341 N 
ATOM     34  H   UNL     1      -3.968   0.045   2.223  0.00  0.00    +0.144 HD
ATOM     35  H   UNL     1      -5.345   0.115   3.182  0.00  0.00    +0.144 HD
ENDBRANCH  24  33
ENDBRANCH  22  23
ENDBRANCH   6  22
TORSDOF 8
