REMARK  Name = ZINC38596247
REMARK  13 active torsions:
REMARK  status: ('A' for Active; 'I' for Inactive)
REMARK    1  A    between atoms: C_1  and  C_2
REMARK    2  A    between atoms: C_4  and  C_37
REMARK    3  A    between atoms: C_5  and  C_36
REMARK    4  A    between atoms: C_6  and  S_9
REMARK    5  A    between atoms: C_7  and  C_8
REMARK    6  A    between atoms: S_9  and  N_12
REMARK    7  A    between atoms: N_12  and  C_13
REMARK    8  A    between atoms: C_13  and  C_15
REMARK    9  A    between atoms: C_13  and  C_16
REMARK   10  A    between atoms: C_16  and  C_18
REMARK   11  A    between atoms: C_16  and  N_23
REMARK   12  A    between atoms: N_26  and  C_29
REMARK   13  A    between atoms: C_29  and  C_30
REMARK                            x       y       z     vdW  Elec       q    Type
REMARK                         _______ _______ _______ _____ _____    ______ ____
ROOT
ATOM      1  C   UNL     1       3.002  -2.430   4.170  0.00  0.00    +0.112 C 
ENDROOT
BRANCH   1   2
ATOM      2  N   UNL     1       3.867  -1.286   4.492  0.00  0.00    -0.297 NA
ATOM      3  C   UNL     1       4.951  -1.685   5.402  0.00  0.00    +0.066 C 
ATOM      4  C   UNL     1       5.861  -0.483   5.664  0.00  0.00    -0.063 C 
ATOM      5  N   UNL     1       5.074   0.605   6.260  0.00  0.00    +0.384 N 
ATOM      6  C   UNL     1       4.012   1.009   5.330  0.00  0.00    -0.063 C 
ATOM      7  C   UNL     1       3.086  -0.180   5.064  0.00  0.00    +0.066 C 
ATOM      8  H   UNL     1       4.662   0.288   7.124  0.00  0.00    -0.081 HD
BRANCH   5   9
ATOM      9  C   UNL     1       5.952   1.752   6.528  0.00  0.00    -0.043 C 
BRANCH   9  10
ATOM     10  C   UNL     1       5.173   2.822   7.250  0.00  0.00    -0.064 A 
ATOM     11  C   UNL     1       4.502   3.792   6.531  0.00  0.00    +0.002 A 
ATOM     12  C   UNL     1       3.788   4.773   7.193  0.00  0.00    +0.000 A 
ATOM     13  C   UNL     1       3.745   4.784   8.575  0.00  0.00    +0.000 A 
ATOM     14  C   UNL     1       4.416   3.813   9.294  0.00  0.00    +0.000 A 
ATOM     15  C   UNL     1       5.127   2.829   8.632  0.00  0.00    +0.002 A 
ENDBRANCH   9  10
ENDBRANCH   5   9
ENDBRANCH   1   2
BRANCH   1  16
ATOM     16  C   UNL     1       3.837  -3.543   3.590  0.00  0.00    +0.008 A 
ATOM     17  C   UNL     1       3.738  -4.879   3.794  0.00  0.00    +0.013 A 
ATOM     18  C   UNL     1       4.621  -5.723   3.148  0.00  0.00    +0.008 A 
ATOM     19  C   UNL     1       5.561  -5.190   2.330  0.00  0.00    +0.045 A 
ATOM     20  S   UNL     1       5.207  -3.444   2.450  0.00  0.00    -0.100 S 
ENDBRANCH   1  16
BRANCH   1  21
ATOM     21  C   UNL     1       1.947  -1.999   3.150  0.00  0.00    +0.095 C 
ATOM     22  C   UNL     1       2.638  -1.410   1.918  0.00  0.00    +0.027 C 
BRANCH  21  23
ATOM     23  N   UNL     1       1.148  -3.161   2.753  0.00  0.00    -0.185 NA
ATOM     24  H   UNL     1       1.588  -3.987   2.495  0.00  0.00    +0.148 HD
BRANCH  23  25
ATOM     25  S   UNL     1      -0.505  -3.067   2.744  0.00  0.00    +0.059 S 
ATOM     26  O   UNL     1      -0.886  -2.510   3.995  0.00  0.00    -0.153 OA
ATOM     27  O   UNL     1      -0.982  -4.328   2.295  0.00  0.00    -0.153 OA
BRANCH  25  33
ATOM     28  C   UNL     1      -1.302  -1.725  -2.244  0.00  0.00    +0.044 C 
ATOM     29  C   UNL     1      -1.302  -1.329  -0.790  0.00  0.00    -0.045 A 
ATOM     30  C   UNL     1      -1.654  -0.044  -0.423  0.00  0.00    +0.007 A 
ATOM     31  C   UNL     1      -1.655   0.319   0.911  0.00  0.00    -0.045 A 
ATOM     32  C   UNL     1      -1.304  -0.605   1.878  0.00  0.00    -0.021 A 
ATOM     33  C   UNL     1      -0.953  -1.890   1.511  0.00  0.00    +0.112 A 
ATOM     34  C   UNL     1      -0.956  -2.254   0.178  0.00  0.00    -0.021 A 
ATOM     35  C   UNL     1      -0.578  -3.657  -0.222  0.00  0.00    +0.046 C 
ATOM     36  C   UNL     1      -1.304  -0.209   3.332  0.00  0.00    +0.046 C 
ATOM     37  C   UNL     1      -2.038   1.720   1.310  0.00  0.00    +0.044 C 
ENDBRANCH  25  33
ENDBRANCH  23  25
ENDBRANCH  21  23
ENDBRANCH   1  21
TORSDOF 8
