REMARK  Name = ZINC19984286
REMARK  9 active torsions:
REMARK  status: ('A' for Active; 'I' for Inactive)
REMARK    1  A    between atoms: C_1  and  C_2
REMARK    2  A    between atoms: C_6  and  C_19
REMARK    3  A    between atoms: C_7  and  N_8
REMARK    4  A    between atoms: N_8  and  S_9
REMARK    5  A    between atoms: S_9  and  C_12
REMARK    6  A    between atoms: C_12  and  C_13
REMARK    7  A    between atoms: C_13  and  C_14
REMARK    8  A    between atoms: C_13  and  C_15
REMARK    9  A    between atoms: C_13  and  C_16
REMARK                            x       y       z     vdW  Elec       q    Type
REMARK                         _______ _______ _______ _____ _____    ______ ____
ROOT
ATOM      1  S   UNL     1      -0.050  -0.882   3.828  0.00  0.00    +0.063 S 
ATOM      2  O   UNL     1      -1.141  -1.791   3.780  0.00  0.00    -0.154 OA
ATOM      3  O   UNL     1       1.287  -1.359   3.907  0.00  0.00    -0.154 OA
ENDROOT
BRANCH   1   4
ATOM      4  N   UNL     1      -0.121  -0.060   2.393  0.00  0.00    -0.102 NA
BRANCH   4  11
ATOM      5  C   UNL     1       2.247   0.534   0.932  0.00  0.00    +0.046 C 
ATOM      6  C   UNL     1       1.240  -0.475   0.444  0.00  0.00    -0.026 A 
ATOM      7  C   UNL     1       1.455  -1.148  -0.743  0.00  0.00    +0.005 A 
ATOM      8  C   UNL     1       0.532  -2.075  -1.192  0.00  0.00    +0.001 A 
ATOM      9  C   UNL     1      -0.610  -2.331  -0.455  0.00  0.00    +0.005 A 
ATOM     10  C   UNL     1      -0.831  -1.662   0.733  0.00  0.00    -0.026 A 
ATOM     11  C   UNL     1       0.097  -0.734   1.190  0.00  0.00    +0.080 A 
ATOM     12  C   UNL     1      -2.075  -1.941   1.536  0.00  0.00    +0.046 C 
ENDBRANCH   4  11
ENDBRANCH   1   4
BRANCH   1  13
ATOM     13  C   UNL     1      -0.341   0.376   5.102  0.00  0.00    +0.208 C 
BRANCH  13  14
ATOM     14  C   UNL     1      -0.296  -0.278   6.484  0.00  0.00    +0.087 C 
ATOM     15  C   UNL     1      -1.380  -1.354   6.574  0.00  0.00    +0.024 C 
ATOM     16  C   UNL     1       1.076  -0.917   6.703  0.00  0.00    +0.024 C 
BRANCH  14  17
ATOM     17  C   UNL     1      -0.538   0.768   7.543  0.00  0.00    +0.363 C 
ATOM     18  O   UNL     1      -0.728   1.928   7.221  0.00  0.00    -0.246 OA
ATOM     19  O   UNL     1      -0.544   0.453   8.720  0.00  0.00    -0.246 OA
ENDBRANCH  14  17
ENDBRANCH  13  14
ENDBRANCH   1  13
TORSDOF 5
