REMARK  Name = ZINC39676270
REMARK  8 active torsions:
REMARK  status: ('A' for Active; 'I' for Inactive)
REMARK    1  A    between atoms: C_1  and  C_2
REMARK    2  A    between atoms: C_3  and  C_12
REMARK    3  A    between atoms: C_7  and  O_8
REMARK    4  A    between atoms: O_8  and  C_9
REMARK    5  A    between atoms: C_9  and  C_11
REMARK    6  A    between atoms: C_16  and  C_25
REMARK    7  A    between atoms: N_27  and  C_28
REMARK    8  A    between atoms: C_28  and  C_29
REMARK                            x       y       z     vdW  Elec       q    Type
REMARK                         _______ _______ _______ _____ _____    ______ ____
ROOT
ATOM      1  C   UNL     1      -0.172  -0.061  -2.711  0.00  0.00    +0.247 C 
ATOM      2  O   UNL     1      -0.099   1.144  -2.846  0.00  0.00    -0.270 OA
ATOM      3  N   UNL     1      -0.398  -0.847  -3.782  0.00  0.00    -0.296 N 
ATOM      4  C   UNL     1      -0.644  -2.308  -3.802  0.00  0.00    +0.121 C 
ATOM      5  C   UNL     1      -1.736  -2.506  -4.876  0.00  0.00    +0.100 C 
ATOM      6  C   UNL     1      -1.609  -1.281  -5.796  0.00  0.00    -0.004 C 
ATOM      7  C   UNL     1      -0.465  -0.443  -5.207  0.00  0.00    +0.115 C 
ATOM      8  C   UNL     1      -2.905  -0.475  -5.786  0.00  0.00    -0.010 C 
ATOM      9  C   UNL     1      -2.773   0.706  -6.752  0.00  0.00    -0.082 C 
ATOM     10  N   UNL     1      -2.495   0.206  -8.104  0.00  0.00    +0.379 N 
ATOM     11  C   UNL     1      -1.202  -0.488  -8.125  0.00  0.00    -0.082 C 
ATOM     12  C   UNL     1      -1.266  -1.720  -7.217  0.00  0.00    -0.010 C 
ATOM     13  H   UNL     1      -3.224  -0.435  -8.381  0.00  0.00    -0.086 HD
ATOM     14  H   UNL     1      -2.470   0.981  -8.749  0.00  0.00    -0.086 HD
ENDROOT
BRANCH   1  17
ATOM     15  C   UNL     1      -1.192   1.324  -0.385  0.00  0.00    +0.048 C 
ATOM     16  C   UNL     1      -0.500  -0.008  -0.242  0.00  0.00    +0.004 A 
ATOM     17  C   UNL     1      -0.012  -0.667  -1.371  0.00  0.00    +0.043 A 
ATOM     18  C   UNL     1       0.627  -1.899  -1.231  0.00  0.00    +0.013 A 
ATOM     19  C   UNL     1       0.774  -2.461   0.021  0.00  0.00    +0.004 A 
ATOM     20  C   UNL     1       0.290  -1.807   1.138  0.00  0.00    +0.047 A 
ATOM     21  C   UNL     1      -0.343  -0.578   1.009  0.00  0.00    +0.135 A 
BRANCH  21  22
ATOM     22  O   UNL     1      -0.813   0.063   2.112  0.00  0.00    -0.426 OA
BRANCH  22  23
ATOM     23  C   UNL     1      -0.108   1.104   2.584  0.00  0.00    +0.309 C 
ATOM     24  O   UNL     1       0.956   1.388   2.088  0.00  0.00    -0.251 OA
ATOM     25  C   UNL     1      -0.646   1.919   3.732  0.00  0.00    +0.136 C 
ENDBRANCH  22  23
ENDBRANCH  21  22
ENDBRANCH   1  17
BRANCH   5  26
ATOM     26  C   UNL     1      -1.488  -3.775  -5.650  0.00  0.00    +0.219 C 
ATOM     27  O   UNL     1      -0.364  -4.225  -5.732  0.00  0.00    -0.275 OA
ATOM     28  N   UNL     1      -2.513  -4.410  -6.251  0.00  0.00    -0.308 N 
ATOM     29  H   UNL     1      -3.412  -4.051  -6.185  0.00  0.00    +0.149 HD
BRANCH  28  30
ATOM     30  C   UNL     1      -2.271  -5.644  -7.004  0.00  0.00    +0.178 C 
BRANCH  30  31
ATOM     31  C   UNL     1      -3.572  -6.149  -7.572  0.00  0.00    +0.128 A 
ATOM     32  N   UNL     1      -3.555  -7.294  -8.303  0.00  0.00    -0.309 N 
ATOM     33  H   UNL     1      -2.716  -7.761  -8.444  0.00  0.00    +0.170 HD
ATOM     34  C   UNL     1      -4.696  -7.790  -8.834  0.00  0.00    +0.259 A 
ATOM     35  O   UNL     1      -4.695  -8.815  -9.490  0.00  0.00    -0.267 OA
ATOM     36  C   UNL     1      -5.938  -7.041  -8.588  0.00  0.00    +0.065 A 
ATOM     37  C   UNL     1      -7.166  -7.466  -9.091  0.00  0.00    +0.015 A 
ATOM     38  C   UNL     1      -8.299  -6.726  -8.830  0.00  0.00    +0.001 A 
ATOM     39  C   UNL     1      -8.225  -5.564  -8.073  0.00  0.00    +0.002 A 
ATOM     40  C   UNL     1      -7.021  -5.128  -7.567  0.00  0.00    +0.028 A 
ATOM     41  C   UNL     1      -5.859  -5.861  -7.817  0.00  0.00    +0.078 A 
ATOM     42  N   UNL     1      -4.653  -5.470  -7.334  0.00  0.00    -0.232 NA
ENDBRANCH  30  31
ENDBRANCH  28  30
ENDBRANCH   5  26
TORSDOF 6
