REMARK  Name = ZINC40548038
REMARK  12 active torsions:
REMARK  status: ('A' for Active; 'I' for Inactive)
REMARK    1  A    between atoms: C_1  and  C_2
REMARK    2  A    between atoms: C_2  and  C_3
REMARK    3  A    between atoms: C_3  and  O_4
REMARK    4  A    between atoms: O_4  and  C_5
REMARK    5  A    between atoms: C_8  and  C_14
REMARK    6  A    between atoms: C_10  and  O_11
REMARK    7  A    between atoms: O_11  and  C_12
REMARK    8  A    between atoms: C_12  and  C_13
REMARK    9  A    between atoms: C_17  and  C_33
REMARK   10  A    between atoms: N_24  and  C_25
REMARK   11  A    between atoms: C_35  and  C_40
REMARK   12  A    between atoms: C_38  and  O_39
REMARK                            x       y       z     vdW  Elec       q    Type
REMARK                         _______ _______ _______ _____ _____    ______ ____
ROOT
ATOM      1  C   UNL     1       3.340  -4.283   5.413  0.00  0.00    +0.142 C 
ATOM      2  C   UNL     1       4.827  -4.441   5.248  0.00  0.00    +0.035 A 
ATOM      3  C   UNL     1       5.880  -4.970   4.494  0.00  0.00    +0.102 A 
ATOM      4  N   UNL     1       7.005  -4.618   5.086  0.00  0.00    -0.173 NA
ATOM      5  N   UNL     1       6.766  -3.919   6.138  0.00  0.00    -0.272 N 
ATOM      6  H   UNL     1       7.443  -3.553   6.728  0.00  0.00    +0.189 HD
ATOM      7  C   UNL     1       5.418  -3.768   6.300  0.00  0.00    +0.126 A 
ATOM      8  C   UNL     1       4.361  -3.186   7.134  0.00  0.00    +0.266 C 
ATOM      9  O   UNL     1       4.553  -2.530   8.141  0.00  0.00    -0.268 OA
ATOM     10  N   UNL     1       3.148  -3.479   6.628  0.00  0.00    -0.280 N 
ENDROOT
BRANCH  10  11
ATOM     11  C   UNL     1       1.859  -3.068   7.190  0.00  0.00    +0.100 C 
ATOM     12  C   UNL     1       1.726  -3.622   8.618  0.00  0.00    +0.047 C 
ATOM     13  C   UNL     1       0.514  -2.922   9.297  0.00  0.00    +0.168 C 
ATOM     14  S   UNL     1       0.742  -1.195   8.697  0.00  0.00    -0.029 S 
ATOM     15  O   UNL     1       1.512  -0.473   9.648  0.00  0.00    -0.174 OA
ATOM     16  O   UNL     1      -0.515  -0.681   8.280  0.00  0.00    -0.174 OA
ATOM     17  C   UNL     1       1.779  -1.523   7.215  0.00  0.00    +0.188 C 
ENDBRANCH  10  11
BRANCH   3  18
ATOM     18  C   UNL     1       5.754  -5.780   3.256  0.00  0.00    +0.044 A 
ATOM     19  C   UNL     1       4.822  -6.811   3.187  0.00  0.00    +0.017 A 
ATOM     20  C   UNL     1       4.708  -7.562   2.034  0.00  0.00    -0.050 A 
ATOM     21  C   UNL     1       5.519  -7.293   0.946  0.00  0.00    +0.007 A 
ATOM     22  C   UNL     1       6.448  -6.271   1.004  0.00  0.00    +0.046 A 
ATOM     23  C   UNL     1       6.568  -5.506   2.153  0.00  0.00    +0.126 A 
ATOM     24  C   UNL     1       3.699  -8.678   1.961  0.00  0.00    +0.044 C 
BRANCH  23  25
ATOM     25  O   UNL     1       7.477  -4.498   2.210  0.00  0.00    -0.506 OA
ATOM     26  H   UNL     1       8.366  -4.784   2.459  0.00  0.00    +0.292 HD
ENDBRANCH  23  25
ENDBRANCH   3  18
BRANCH   1  30
ATOM     27  C   UNL     1       1.692  -2.249   2.032  0.00  0.00    +0.162 A 
ATOM     28  C   UNL     1       2.480  -1.561   2.941  0.00  0.00    +0.050 A 
ATOM     29  C   UNL     1       3.011  -2.222   4.034  0.00  0.00    +0.009 A 
ATOM     30  C   UNL     1       2.759  -3.568   4.221  0.00  0.00    -0.019 A 
ATOM     31  C   UNL     1       1.974  -4.260   3.318  0.00  0.00    +0.055 A 
ATOM     32  C   UNL     1       1.433  -3.603   2.224  0.00  0.00    +0.162 A 
BRANCH  27  33
ATOM     33  O   UNL     1       1.168  -1.601   0.957  0.00  0.00    -0.488 OA
BRANCH  33  34
ATOM     34  C   UNL     1       1.476  -0.212   0.824  0.00  0.00    +0.229 C 
BRANCH  34  36
ATOM     35  C   UNL     1       1.133   1.828  -0.577  0.00  0.00    +0.007 C 
ATOM     36  C   UNL     1       0.804   0.341  -0.435  0.00  0.00    +0.038 C 
ENDBRANCH  34  36
ENDBRANCH  33  34
ENDBRANCH  27  33
BRANCH  32  37
ATOM     37  O   UNL     1       0.656  -4.280   1.337  0.00  0.00    -0.489 OA
BRANCH  37  38
ATOM     38  C   UNL     1       0.433  -5.668   1.598  0.00  0.00    +0.226 C 
ATOM     39  C   UNL     1      -0.457  -6.256   0.501  0.00  0.00    +0.048 C 
ENDBRANCH  37  38
ENDBRANCH  32  37
ENDBRANCH   1  30
TORSDOF 9
