REMARK  Name = ZINC56159755
REMARK  11 active torsions:
REMARK  status: ('A' for Active; 'I' for Inactive)
REMARK    1  A    between atoms: C_1  and  C_2
REMARK    2  A    between atoms: C_2  and  C_4
REMARK    3  A    between atoms: C_2  and  N_17
REMARK    4  A    between atoms: C_7  and  N_10
REMARK    5  A    between atoms: N_13  and  C_14
REMARK    6  A    between atoms: N_17  and  C_18
REMARK    7  A    between atoms: C_18  and  C_20
REMARK    8  A    between atoms: C_18  and  C_21
REMARK    9  A    between atoms: N_23  and  C_24
REMARK   10  A    between atoms: C_27  and  O_30
REMARK   11  A    between atoms: O_30  and  C_31
REMARK                            x       y       z     vdW  Elec       q    Type
REMARK                         _______ _______ _______ _____ _____    ______ ____
ROOT
ATOM      1  C   UNL     1      -0.117   1.096   0.071  0.00  0.00    -0.009 C 
ATOM      2  C   UNL     1      -0.523  -0.313  -0.366  0.00  0.00    -0.043 C 
ENDROOT
BRANCH   2   3
ATOM      3  C   UNL     1      -0.560  -1.220   0.837  0.00  0.00    -0.062 A 
ATOM      4  C   UNL     1      -1.658  -1.207   1.677  0.00  0.00    +0.004 A 
ATOM      5  C   UNL     1      -1.695  -2.038   2.780  0.00  0.00    +0.023 A 
ATOM      6  C   UNL     1      -0.628  -2.886   3.045  0.00  0.00    +0.035 A 
ATOM      7  C   UNL     1       0.473  -2.897   2.199  0.00  0.00    +0.023 A 
ATOM      8  C   UNL     1       0.502  -2.068   1.094  0.00  0.00    +0.004 A 
BRANCH   6   9
ATOM      9  N   UNL     1      -0.663  -3.728   4.162  0.00  0.00    -0.269 N 
ATOM     10  C   UNL     1      -1.836  -4.241   4.584  0.00  0.00    +0.304 C 
ATOM     11  O   UNL     1      -2.849  -4.050   3.940  0.00  0.00    -0.253 OA
ATOM     12  N   UNL     1      -1.885  -4.965   5.719  0.00  0.00    -0.296 N 
ATOM     13  H   UNL     1       0.158  -3.944   4.633  0.00  0.00    +0.156 HD
ATOM     14  H   UNL     1      -1.077  -5.117   6.233  0.00  0.00    +0.151 HD
BRANCH  12  15
ATOM     15  C   UNL     1      -3.160  -5.522   6.178  0.00  0.00    +0.075 C 
ATOM     16  C   UNL     1      -3.488  -5.404   7.668  0.00  0.00    +0.024 C 
ATOM     17  C   UNL     1      -3.109  -6.761   7.073  0.00  0.00    +0.024 C 
ENDBRANCH  12  15
ENDBRANCH   6   9
ENDBRANCH   2   3
BRANCH   2  18
ATOM     18  N   UNL     1      -1.853  -0.269  -0.988  0.00  0.00    +0.391 N 
ATOM     19  H   UNL     1      -2.155  -1.208  -1.201  0.00  0.00    -0.084 HD
ATOM     20  H   UNL     1      -2.508   0.159  -0.351  0.00  0.00    -0.084 HD
BRANCH  18  21
ATOM     21  C   UNL     1      -1.789   0.518  -2.226  0.00  0.00    +0.014 C 
ATOM     22  C   UNL     1      -0.892  -0.197  -3.239  0.00  0.00    -0.004 C 
BRANCH  21  23
ATOM     23  C   UNL     1      -3.175   0.667  -2.799  0.00  0.00    +0.203 C 
ATOM     24  O   UNL     1      -4.122   0.166  -2.232  0.00  0.00    -0.277 OA
ATOM     25  N   UNL     1      -3.361   1.356  -3.942  0.00  0.00    -0.287 N 
ATOM     26  H   UNL     1      -2.596   1.691  -4.437  0.00  0.00    +0.155 HD
BRANCH  25  27
ATOM     27  C   UNL     1      -4.659   1.588  -4.417  0.00  0.00    +0.034 A 
ATOM     28  C   UNL     1      -4.900   1.637  -5.783  0.00  0.00    +0.027 A 
ATOM     29  C   UNL     1      -6.179   1.865  -6.250  0.00  0.00    +0.047 A 
ATOM     30  C   UNL     1      -7.223   2.047  -5.355  0.00  0.00    +0.120 A 
ATOM     31  C   UNL     1      -6.982   1.999  -3.989  0.00  0.00    +0.047 A 
ATOM     32  C   UNL     1      -5.705   1.764  -3.521  0.00  0.00    +0.027 A 
BRANCH  30  33
ATOM     33  O   UNL     1      -8.482   2.272  -5.815  0.00  0.00    -0.495 OA
ATOM     34  C   UNL     1      -9.509   2.450  -4.837  0.00  0.00    +0.277 C 
ENDBRANCH  30  33
ENDBRANCH  25  27
ENDBRANCH  21  23
ENDBRANCH  18  21
ENDBRANCH   2  18
TORSDOF 8
