REMARK  Name = ZINC39631800
REMARK  11 active torsions:
REMARK  status: ('A' for Active; 'I' for Inactive)
REMARK    1  A    between atoms: C_1  and  C_2
REMARK    2  A    between atoms: C_2  and  C_4
REMARK    3  A    between atoms: C_2  and  N_11
REMARK    4  A    between atoms: C_4  and  C_5
REMARK    5  A    between atoms: C_5  and  C_6
REMARK    6  A    between atoms: C_6  and  C_7
REMARK    7  A    between atoms: C_7  and  C_8
REMARK    8  A    between atoms: C_7  and  C_9
REMARK    9  A    between atoms: C_7  and  O_10
REMARK   10  A    between atoms: C_12  and  C_14
REMARK   11  A    between atoms: C_25  and  C_27
REMARK                            x       y       z     vdW  Elec       q    Type
REMARK                         _______ _______ _______ _____ _____    ______ ____
ROOT
ATOM      1  C   UNL     1      10.096   9.521  -8.854  0.00  0.00    +0.100 C 
ATOM      2  C   UNL     1       9.654   9.426 -10.332  0.00  0.00    +0.121 C 
ATOM      3  N   UNL     1       8.527  10.381 -10.448  0.00  0.00    -0.296 N 
ATOM      4  C   UNL     1       8.937  11.538  -9.618  0.00  0.00    +0.115 C 
ATOM      5  C   UNL     1       9.627  10.910  -8.390  0.00  0.00    -0.004 C 
ATOM      6  C   UNL     1      10.823  11.757  -7.965  0.00  0.00    -0.010 C 
ATOM      7  C   UNL     1      10.327  13.112  -7.453  0.00  0.00    -0.082 C 
ATOM      8  N   UNL     1       9.419  12.906  -6.318  0.00  0.00    +0.379 N 
ATOM      9  C   UNL     1       8.227  12.171  -6.757  0.00  0.00    -0.082 C 
ATOM     10  C   UNL     1       8.634  10.776  -7.240  0.00  0.00    -0.010 C 
ATOM     11  C   UNL     1       7.386  10.231 -11.150  0.00  0.00    +0.249 C 
ATOM     12  O   UNL     1       6.602  11.156 -11.241  0.00  0.00    -0.270 OA
ATOM     13  H   UNL     1       9.894  12.377  -5.601  0.00  0.00    -0.086 HD
ATOM     14  H   UNL     1       9.142  13.801  -5.944  0.00  0.00    -0.086 HD
ENDROOT
BRANCH  11  15
ATOM     15  C   UNL     1       7.088   8.943 -11.808  0.00  0.00    +0.073 A 
ATOM     16  C   UNL     1       6.627   7.860 -11.055  0.00  0.00    +0.036 A 
ATOM     17  C   UNL     1       6.350   6.660 -11.676  0.00  0.00    +0.042 A 
ATOM     18  C   UNL     1       6.527   6.526 -13.044  0.00  0.00    +0.023 A 
ATOM     19  C   UNL     1       6.983   7.592 -13.796  0.00  0.00    +0.040 A 
ATOM     20  C   UNL     1       7.260   8.803 -13.188  0.00  0.00    +0.136 A 
ATOM     21  F   UNL     1       7.699   9.846 -13.925  0.00  0.00    -0.205 F 
ATOM     22 CL   UNL     1       5.778   5.314 -10.742  0.00  0.00    -0.084 Cl
ENDBRANCH  11  15
BRANCH   1  24
ATOM     23  N   UNL     1      10.008   8.006  -6.901  0.00  0.00    -0.312 N 
ATOM     24  C   UNL     1       9.431   8.443  -8.038  0.00  0.00    +0.218 C 
ATOM     25  O   UNL     1       8.376   7.969  -8.403  0.00  0.00    -0.275 OA
ATOM     26  H   UNL     1      10.823   8.423  -6.579  0.00  0.00    +0.149 HD
BRANCH  23  28
ATOM     27  C   UNL     1       8.383   7.457  -5.157  0.00  0.00    +0.028 C 
ATOM     28  C   UNL     1       9.405   6.901  -6.151  0.00  0.00    +0.070 C 
BRANCH  28  29
ATOM     29  C   UNL     1      10.496   6.145  -5.391  0.00  0.00    +0.022 C 
BRANCH  29  30
ATOM     30  C   UNL     1      11.870   6.573  -5.911  0.00  0.00    +0.005 C 
BRANCH  30  31
ATOM     31  C   UNL     1      12.952   5.699  -5.273  0.00  0.00    +0.034 C 
BRANCH  31  32
ATOM     32  C   UNL     1      14.323   6.111  -5.813  0.00  0.00    +0.061 C 
ATOM     33  C   UNL     1      14.574   7.587  -5.496  0.00  0.00    +0.041 C 
ATOM     34  C   UNL     1      15.408   5.256  -5.154  0.00  0.00    +0.041 C 
BRANCH  32  35
ATOM     35  O   UNL     1      14.357   5.915  -7.228  0.00  0.00    -0.389 OA
ATOM     36  H   UNL     1      13.753   6.489  -7.719  0.00  0.00    +0.210 HD
ENDBRANCH  32  35
ENDBRANCH  31  32
ENDBRANCH  30  31
ENDBRANCH  29  30
ENDBRANCH  28  29
ENDBRANCH  23  28
ENDBRANCH   1  24
TORSDOF 8
