REMARK  Name = ZINC35265843
REMARK  12 active torsions:
REMARK  status: ('A' for Active; 'I' for Inactive)
REMARK    1  A    between atoms: C_1  and  C_2
REMARK    2  A    between atoms: C_2  and  C_3
REMARK    3  A    between atoms: C_3  and  N_4
REMARK    4  A    between atoms: C_5  and  C_38
REMARK    5  A    between atoms: C_6  and  C_32
REMARK    6  A    between atoms: C_7  and  C_12
REMARK    7  A    between atoms: C_16  and  N_18
REMARK    8  A    between atoms: N_21  and  C_22
REMARK    9  A    between atoms: C_32  and  O_34
REMARK   10  A    between atoms: O_34  and  C_35
REMARK   11  A    between atoms: C_35  and  C_36
REMARK   12  A    between atoms: C_35  and  C_37
REMARK                            x       y       z     vdW  Elec       q    Type
REMARK                         _______ _______ _______ _____ _____    ______ ____
ROOT
ATOM      1  C   UNL     1       1.282  -5.377  -2.336  0.00  0.00    -0.021 A 
ATOM      2  C   UNL     1       1.492  -4.828  -3.588  0.00  0.00    +0.006 A 
ATOM      3  C   UNL     1       2.056  -5.591  -4.595  0.00  0.00    +0.002 A 
ATOM      4  C   UNL     1       2.411  -6.903  -4.352  0.00  0.00    +0.023 A 
ATOM      5  C   UNL     1       2.201  -7.457  -3.096  0.00  0.00    +0.035 A 
ATOM      6  C   UNL     1       1.640  -6.687  -2.086  0.00  0.00    +0.029 A 
ENDROOT
BRANCH   1  10
ATOM      7  N   UNL     1       0.429  -1.787  -1.234  0.00  0.00    -0.259 N 
ATOM      8  C   UNL     1       1.562  -2.324  -0.695  0.00  0.00    +0.024 C 
ATOM      9  C   UNL     1       1.754  -3.660  -0.661  0.00  0.00    +0.078 C 
ATOM     10  C   UNL     1       0.667  -4.543  -1.242  0.00  0.00    +0.144 C 
ATOM     11  N   UNL     1      -0.516  -3.865  -1.799  0.00  0.00    -0.288 N 
ATOM     12  C   UNL     1      -0.564  -2.519  -1.756  0.00  0.00    +0.307 C 
ATOM     13  O   UNL     1      -1.538  -1.951  -2.210  0.00  0.00    -0.252 OA
ATOM     14  C   UNL     1       2.618  -1.410  -0.128  0.00  0.00    +0.061 C 
ATOM     15  H   UNL     1      -1.244  -4.376  -2.185  0.00  0.00    +0.151 HD
BRANCH   9  16
ATOM     16  C   UNL     1       2.928  -4.217  -0.103  0.00  0.00    +0.339 C 
ATOM     17  O   UNL     1       3.788  -3.489   0.357  0.00  0.00    -0.245 OA
BRANCH  16  18
ATOM     18  O   UNL     1       3.095  -5.556  -0.082  0.00  0.00    -0.459 OA
BRANCH  18  19
ATOM     19  C   UNL     1       4.305  -6.050   0.496  0.00  0.00    +0.171 C 
ATOM     20  C   UNL     1       4.096  -6.285   1.994  0.00  0.00    +0.052 C 
ATOM     21  C   UNL     1       4.693  -7.367  -0.178  0.00  0.00    +0.052 C 
ENDBRANCH  18  19
ENDBRANCH  16  18
ENDBRANCH   9  16
BRANCH   7  22
ATOM     22  C   UNL     1       0.287  -0.329  -1.237  0.00  0.00    +0.114 C 
BRANCH  22  24
ATOM     23  C   UNL     1       0.858   1.773  -2.461  0.00  0.00    +0.005 C 
ATOM     24  C   UNL     1       1.005   0.250  -2.458  0.00  0.00    +0.016 C 
ENDBRANCH  22  24
ENDBRANCH   7  22
ENDBRANCH   1  10
BRANCH   5  25
ATOM     25  N   UNL     1       2.560  -8.787  -2.848  0.00  0.00    -0.269 N 
ATOM     26  C   UNL     1       3.653  -9.311  -3.436  0.00  0.00    +0.304 C 
ATOM     27  O   UNL     1       4.283  -8.655  -4.244  0.00  0.00    -0.252 OA
ATOM     28  N   UNL     1       4.049 -10.563  -3.130  0.00  0.00    -0.294 N 
ATOM     29  H   UNL     1       2.022  -9.331  -2.251  0.00  0.00    +0.156 HD
ATOM     30  H   UNL     1       3.547 -11.086  -2.486  0.00  0.00    +0.151 HD
BRANCH  28  31
ATOM     31  C   UNL     1       5.237 -11.133  -3.770  0.00  0.00    +0.037 C 
ATOM     32  C   UNL     1       5.031 -11.171  -5.286  0.00  0.00    +0.029 C 
ATOM     33  C   UNL     1       6.272 -11.766  -5.954  0.00  0.00    -0.008 C 
ATOM     34  C   UNL     1       6.499 -13.187  -5.434  0.00  0.00    +0.007 C 
ATOM     35  C   UNL     1       6.705 -13.149  -3.919  0.00  0.00    -0.008 C 
ATOM     36  C   UNL     1       5.464 -12.554  -3.250  0.00  0.00    +0.029 C 
ATOM     37  C   UNL     1       7.924 -12.286  -3.591  0.00  0.00    +0.007 C 
ATOM     38  C   UNL     1       7.697 -10.865  -4.111  0.00  0.00    -0.008 C 
ATOM     39  C   UNL     1       7.492 -10.903  -5.627  0.00  0.00    +0.007 C 
ATOM     40  C   UNL     1       6.457 -10.269  -3.442  0.00  0.00    +0.029 C 
ENDBRANCH  28  31
ENDBRANCH   5  25
TORSDOF 8
