REMARK  Name = ZINC12617570
REMARK  11 active torsions:
REMARK  status: ('A' for Active; 'I' for Inactive)
REMARK    1  A    between atoms: C_1  and  C_2
REMARK    2  A    between atoms: C_2  and  C_3
REMARK    3  A    between atoms: C_6  and  C_9
REMARK    4  A    between atoms: C_15  and  C_17
REMARK    5  A    between atoms: C_17  and  C_19
REMARK    6  A    between atoms: C_17  and  S_20
REMARK    7  A    between atoms: S_20  and  C_21
REMARK    8  A    between atoms: C_25  and  S_32
REMARK    9  A    between atoms: N_29  and  C_30
REMARK   10  A    between atoms: C_30  and  C_31
REMARK   11  A    between atoms: S_32  and  N_35
REMARK                            x       y       z     vdW  Elec       q    Type
REMARK                         _______ _______ _______ _____ _____    ______ ____
ROOT
ATOM      1  C   UNL     1       5.320   0.701  -0.044  0.00  0.00    +0.137 C 
ATOM      2  C   UNL     1       4.793   0.102  -1.349  0.00  0.00    +0.029 C 
ENDROOT
BRANCH   1   9
ATOM      3  C   UNL     1      10.569  -2.143   0.989  0.00  0.00    +0.080 A 
ATOM      4  C   UNL     1      11.294  -1.042   0.629  0.00  0.00    +0.076 A 
ATOM      5  S   UNL     1       9.980   0.100   0.219  0.00  0.00    -0.060 S 
ATOM      6  C   UNL     1       8.614  -0.996   0.575  0.00  0.00    +0.165 A 
ATOM      7  N   UNL     1       9.246  -2.091   0.952  0.00  0.00    -0.225 NA
ATOM      8  N   UNL     1       7.248  -0.759   0.475  0.00  0.00    -0.264 N 
ATOM      9  C   UNL     1       6.801   0.444   0.064  0.00  0.00    +0.232 C 
ATOM     10  O   UNL     1       7.591   1.321  -0.218  0.00  0.00    -0.274 OA
ATOM     11  H   UNL     1       6.617  -1.460   0.701  0.00  0.00    +0.157 HD
BRANCH   3  15
ATOM     12  C   UNL     1      12.542  -5.705   2.213  0.00  0.00    -0.048 A 
ATOM     13  C   UNL     1      11.160  -5.660   2.179  0.00  0.00    +0.004 A 
ATOM     14  C   UNL     1      10.514  -4.507   1.782  0.00  0.00    +0.010 A 
ATOM     15  C   UNL     1      11.257  -3.386   1.416  0.00  0.00    +0.001 A 
ATOM     16  C   UNL     1      12.650  -3.439   1.447  0.00  0.00    +0.010 A 
ATOM     17  C   UNL     1      13.285  -4.596   1.850  0.00  0.00    +0.004 A 
BRANCH  12  19
ATOM     18  C   UNL     1      13.497  -7.854   1.424  0.00  0.00    +0.009 C 
ATOM     19  C   UNL     1      13.242  -6.968   2.646  0.00  0.00    +0.032 C 
ENDBRANCH  12  19
ENDBRANCH   3  15
ENDBRANCH   1   9
BRANCH   1  20
ATOM     20  S   UNL     1       5.014   2.485  -0.032  0.00  0.00    -0.075 S 
BRANCH  20  21
ATOM     21  C   UNL     1       3.252   2.494  -0.015  0.00  0.00    +0.171 A 
ATOM     22  N   UNL     1       2.494   1.425  -0.014  0.00  0.00    -0.222 NA
ATOM     23  C   UNL     1       1.186   1.793   0.000  0.00  0.00    +0.092 A 
ATOM     24  C   UNL     1      -0.013   1.076   0.008  0.00  0.00    +0.058 A 
ATOM     25  C   UNL     1      -1.213   1.750   0.017  0.00  0.00    +0.107 A 
ATOM     26  C   UNL     1      -1.241   3.137   0.031  0.00  0.00    +0.030 A 
ATOM     27  C   UNL     1      -0.066   3.860   0.024  0.00  0.00    +0.030 A 
ATOM     28  C   UNL     1       1.152   3.197   0.008  0.00  0.00    +0.070 A 
ATOM     29  N   UNL     1       2.473   3.615  -0.002  0.00  0.00    -0.319 N 
BRANCH  25  30
ATOM     30  S   UNL     1      -2.725   0.845   0.019  0.00  0.00    +0.056 S 
ATOM     31  O   UNL     1      -3.715   1.708  -0.522  0.00  0.00    -0.153 OA
ATOM     32  O   UNL     1      -2.436  -0.429  -0.540  0.00  0.00    -0.153 OA
BRANCH  30  33
ATOM     33  N   UNL     1      -3.137   0.585   1.602  0.00  0.00    -0.204 NA
ATOM     34  H   UNL     1      -4.071   0.513   1.854  0.00  0.00    +0.144 HD
ATOM     35  H   UNL     1      -2.445   0.504   2.277  0.00  0.00    +0.144 HD
ENDBRANCH  30  33
ENDBRANCH  25  30
BRANCH  29  36
ATOM     36  C   UNL     1       2.945   5.002   0.002  0.00  0.00    +0.121 C 
ATOM     37  C   UNL     1       3.123   5.477   1.445  0.00  0.00    +0.027 C 
ENDBRANCH  29  36
ENDBRANCH  20  21
ENDBRANCH   1  20
TORSDOF 8
