REMARK  Name = ZINC12652319
REMARK  4 active torsions:
REMARK  status: ('A' for Active; 'I' for Inactive)
REMARK    1  A    between atoms: C_10  and  C_22
REMARK    2  A    between atoms: N_15  and  C_16
REMARK    3  A    between atoms: C_16  and  C_17
REMARK    4  A    between atoms: C_32  and  C_35
REMARK                            x       y       z     vdW  Elec       q    Type
REMARK                         _______ _______ _______ _____ _____    ______ ____
ROOT
ATOM      1  C   UNL     1       2.908  -3.222   0.269  0.00  0.00    +0.002 A 
ATOM      2  C   UNL     1       2.265  -2.667  -0.823  0.00  0.00    +0.002 A 
ATOM      3  C   UNL     1       2.066  -1.300  -0.900  0.00  0.00    +0.025 A 
ATOM      4  C   UNL     1       2.514  -0.486   0.136  0.00  0.00    +0.060 A 
ATOM      5  C   UNL     1       3.111  -1.052   1.245  0.00  0.00    +0.053 A 
ATOM      6  C   UNL     1       3.333  -2.416   1.310  0.00  0.00    +0.025 A 
ATOM      7  N   UNL     1       3.455  -0.190   2.281  0.00  0.00    -0.316 N 
ATOM      8  C   UNL     1       4.377   0.803   2.193  0.00  0.00    +0.017 C 
ATOM      9  C   UNL     1       4.458   1.695   1.192  0.00  0.00    +0.037 C 
ATOM     10  C   UNL     1       3.561   1.748  -0.023  0.00  0.00    +0.148 C 
ATOM     11  N   UNL     1       2.390   0.901   0.063  0.00  0.00    -0.242 N 
ATOM     12  C   UNL     1       1.164   1.461   0.078  0.00  0.00    +0.308 C 
ATOM     13  O   UNL     1       1.047   2.670   0.021  0.00  0.00    -0.252 OA
ATOM     14  N   UNL     1       0.068   0.681   0.158  0.00  0.00    -0.292 N 
ATOM     15  C   UNL     1       5.452   2.702   1.211  0.00  0.00    +0.163 C 
ATOM     16  O   UNL     1       5.487   3.509   0.303  0.00  0.00    -0.292 OA
ATOM     17  C   UNL     1       6.463   2.807   2.313  0.00  0.00    +0.091 C 
ATOM     18  C   UNL     1       6.698   1.406   2.890  0.00  0.00    +0.068 C 
ATOM     19  C   UNL     1       5.349   0.865   3.360  0.00  0.00    +0.063 C 
ATOM     20  H   UNL     1       3.001  -0.306   3.131  0.00  0.00    +0.152 HD
ATOM     21  H   UNL     1       0.161  -0.284   0.204  0.00  0.00    +0.151 HD
ENDROOT
BRANCH  10  22
ATOM     22  C   UNL     1       4.364   1.333  -1.229  0.00  0.00    -0.022 A 
ATOM     23  C   UNL     1       4.847   0.042  -1.327  0.00  0.00    +0.007 A 
ATOM     24  C   UNL     1       5.578  -0.340  -2.435  0.00  0.00    +0.020 A 
ATOM     25  C   UNL     1       5.837   0.573  -3.442  0.00  0.00    +0.041 A 
ATOM     26  C   UNL     1       5.358   1.867  -3.341  0.00  0.00    +0.020 A 
ATOM     27  C   UNL     1       4.621   2.246  -2.234  0.00  0.00    +0.007 A 
ATOM     28 CL   UNL     1       6.761   0.096  -4.831  0.00  0.00    -0.084 Cl
ENDBRANCH  10  22
BRANCH  18  29
ATOM     29  C   UNL     1       7.651   1.485   4.055  0.00  0.00    +0.109 A 
ATOM     30  C   UNL     1       8.827   0.840   4.155  0.00  0.00    +0.045 A 
ATOM     31  C   UNL     1       9.386   1.199   5.403  0.00  0.00    +0.041 A 
ATOM     32  C   UNL     1       8.519   2.042   5.991  0.00  0.00    +0.195 A 
ATOM     33  O   UNL     1       7.472   2.216   5.168  0.00  0.00    -0.468 OA
ENDBRANCH  18  29
BRANCH  14  34
ATOM     34  C   UNL     1      -1.265   1.289   0.169  0.00  0.00    +0.180 C 
BRANCH  34  35
ATOM     35  C   UNL     1      -2.310   0.207   0.256  0.00  0.00    +0.122 A 
ATOM     36  C   UNL     1      -2.822  -0.302   1.391  0.00  0.00    +0.046 A 
ATOM     37  C   UNL     1      -3.763  -1.286   1.011  0.00  0.00    +0.041 A 
ATOM     38  C   UNL     1      -3.771  -1.319  -0.334  0.00  0.00    +0.195 A 
ATOM     39  O   UNL     1      -2.893  -0.408  -0.785  0.00  0.00    -0.466 OA
ENDBRANCH  34  35
ENDBRANCH  14  34
TORSDOF 4
