REMARK  Name = ZINC04567452
REMARK  3 active torsions:
REMARK  status: ('A' for Active; 'I' for Inactive)
REMARK    1  A    between atoms: C_1  and  C_2
REMARK    2  A    between atoms: N_8  and  N_9
REMARK    3  A    between atoms: C_10  and  C_11
REMARK                            x       y       z     vdW  Elec       q    Type
REMARK                         _______ _______ _______ _____ _____    ______ ____
ROOT
ATOM      1  C   UNL     1      -2.465   1.070   0.030  0.00  0.00    +0.010 A 
ATOM      2  C   UNL     1      -1.236   1.766   0.036  0.00  0.00    -0.009 A 
ATOM      3  C   UNL     1      -0.013   1.076   0.045  0.00  0.00    +0.009 A 
ATOM      4  C   UNL     1       1.154   1.776   0.056  0.00  0.00    +0.001 A 
ATOM      5  C   UNL     1       1.170   3.169   0.063  0.00  0.00    +0.001 A 
ATOM      6  C   UNL     1       0.022   3.895   0.060  0.00  0.00    +0.008 A 
ATOM      7  C   UNL     1      -1.222   3.229   0.049  0.00  0.00    -0.017 A 
ATOM      8  C   UNL     1      -2.420   3.946   0.045  0.00  0.00    +0.017 A 
ATOM      9  C   UNL     1      -3.640   3.267   0.034  0.00  0.00    -0.017 A 
ATOM     10  C   UNL     1      -3.672   1.804   0.027  0.00  0.00    -0.009 A 
ATOM     11  C   UNL     1      -4.916   1.152   0.015  0.00  0.00    +0.009 A 
ATOM     12  C   UNL     1      -6.061   1.889   0.011  0.00  0.00    +0.001 A 
ATOM     13  C   UNL     1      -6.033   3.282   0.019  0.00  0.00    +0.001 A 
ATOM     14  C   UNL     1      -4.863   3.972   0.030  0.00  0.00    +0.008 A 
ENDROOT
BRANCH   1  16
ATOM     15  N   UNL     1      -3.627  -0.986   0.128  0.00  0.00    -0.155 NA
ATOM     16  C   UNL     1      -2.487  -0.348   0.022  0.00  0.00    +0.144 C 
BRANCH  15  23
ATOM     17  C   UNL     1      -7.589  -5.285  -0.789  0.00  0.00    +0.029 C 
ATOM     18  C   UNL     1      -6.901  -4.643   0.417  0.00  0.00    +0.137 C 
ATOM     19  C   UNL     1      -7.139  -3.141   0.451  0.00  0.00    +0.232 C 
ATOM     20  O   UNL     1      -8.249  -2.667   0.562  0.00  0.00    -0.274 OA
ATOM     21  N   UNL     1      -6.059  -2.385   0.353  0.00  0.00    -0.263 N 
ATOM     22  C   UNL     1      -4.794  -2.918   0.227  0.00  0.00    +0.183 C 
ATOM     23  N   UNL     1      -3.647  -2.276   0.121  0.00  0.00    -0.127 NA
ATOM     24  S   UNL     1      -5.074  -4.682   0.233  0.00  0.00    -0.076 S 
ATOM     25  H   UNL     1      -6.160  -1.421   0.370  0.00  0.00    +0.157 HD
ENDBRANCH  15  23
ENDBRANCH   1  16
TORSDOF 2
