REMARK  Name = ZINC09045642
REMARK  4 active torsions:
REMARK  status: ('A' for Active; 'I' for Inactive)
REMARK    1  A    between atoms: C_4  and  C_7
REMARK    2  A    between atoms: C_7  and  C_8
REMARK    3  A    between atoms: N_16  and  C_19
REMARK    4  A    between atoms: C_19  and  C_20
REMARK                            x       y       z     vdW  Elec       q    Type
REMARK                         _______ _______ _______ _____ _____    ______ ____
ROOT
ATOM      1  C   UNL     1       3.970  -0.423  -0.884  0.00  0.00    -0.053 C 
ATOM      2  C   UNL     1       4.375  -0.058   0.503  0.00  0.00    +0.073 C 
ATOM      3  C   UNL     1       2.997   0.446   1.093  0.00  0.00    +0.088 C 
ATOM      4  C   UNL     1       3.468   0.771   2.453  0.00  0.00    +0.225 C 
ATOM      5  O   UNL     1       3.104   1.688   3.158  0.00  0.00    -0.275 OA
ATOM      6  N   UNL     1       4.405  -0.184   2.749  0.00  0.00    -0.239 N 
ATOM      7  C   UNL     1       4.830  -0.866   1.637  0.00  0.00    +0.224 C 
ATOM      8  O   UNL     1       5.448  -1.909   1.601  0.00  0.00    -0.275 OA
ATOM      9  C   UNL     1       2.617   1.373  -0.016  0.00  0.00    +0.050 C 
ATOM     10  C   UNL     1       1.171   1.780   0.000  0.00  0.00    -0.028 A 
ATOM     11  C   UNL     1      -0.013   1.076   0.008  0.00  0.00    +0.004 A 
ATOM     12  C   UNL     1      -1.220   1.751   0.017  0.00  0.00    +0.000 A 
ATOM     13  C   UNL     1      -1.236   3.134   0.031  0.00  0.00    +0.002 A 
ATOM     14  C   UNL     1      -0.053   3.844   0.024  0.00  0.00    +0.023 A 
ATOM     15  C   UNL     1       1.167   3.172   0.008  0.00  0.00    +0.036 A 
ATOM     16  N   UNL     1       2.477   3.658  -0.001  0.00  0.00    -0.286 N 
ATOM     17  C   UNL     1       3.387   2.665  -0.016  0.00  0.00    +0.211 C 
ATOM     18  O   UNL     1       4.594   2.789  -0.028  0.00  0.00    -0.277 OA
ATOM     19  H   UNL     1       2.704   4.601   0.004  0.00  0.00    +0.155 HD
ATOM     20  N   UNL     1       2.928   0.586  -1.235  0.00  0.00    +0.394 N 
ATOM     21  H   UNL     1       2.082   0.110  -1.567  0.00  0.00    -0.083 HD
ATOM     22  H   UNL     1       3.282   1.209  -1.970  0.00  0.00    -0.083 HD
ENDROOT
BRANCH   1  23
ATOM     23  C   UNL     1       3.383  -1.835  -0.914  0.00  0.00    +0.020 C 
BRANCH  23  27
ATOM     24  C   UNL     1       2.565  -2.950  -4.956  0.00  0.00    +0.000 A 
ATOM     25  C   UNL     1       3.800  -3.226  -4.399  0.00  0.00    +0.000 A 
ATOM     26  C   UNL     1       4.065  -2.865  -3.092  0.00  0.00    +0.003 A 
ATOM     27  C   UNL     1       3.095  -2.229  -2.340  0.00  0.00    -0.049 A 
ATOM     28  C   UNL     1       1.858  -1.958  -2.895  0.00  0.00    +0.003 A 
ATOM     29  C   UNL     1       1.595  -2.314  -4.205  0.00  0.00    +0.000 A 
ENDBRANCH  23  27
ENDBRANCH   1  23
BRANCH   6  30
ATOM     30  C   UNL     1       4.897  -0.449   4.103  0.00  0.00    +0.148 C 
BRANCH  30  31
ATOM     31  C   UNL     1       4.018  -1.511   4.767  0.00  0.00    +0.136 C 
ATOM     32  C   UNL     1       4.458  -1.713   6.233  0.00  0.00    +0.035 C 
ATOM     33  C   UNL     1       4.325  -3.250   6.408  0.00  0.00    +0.031 C 
ATOM     34  C   UNL     1       4.717  -3.743   4.992  0.00  0.00    +0.160 C 
ATOM     35  O   UNL     1       4.175  -2.764   4.091  0.00  0.00    -0.375 OA
ENDBRANCH  30  31
ENDBRANCH   6  30
TORSDOF 4
