REMARK  Name = ZINC06973443
REMARK  4 active torsions:
REMARK  status: ('A' for Active; 'I' for Inactive)
REMARK    1  A    between atoms: C_1  and  O_2
REMARK    2  A    between atoms: O_2  and  C_3
REMARK    3  A    between atoms: C_6  and  C_9
REMARK    4  A    between atoms: C_12  and  C_24
REMARK                            x       y       z     vdW  Elec       q    Type
REMARK                         _______ _______ _______ _____ _____    ______ ____
ROOT
ATOM      1  C   UNL     1       0.010  -4.286  -0.002  0.00  0.00    +0.098 C 
ATOM      2  N   UNL     1       0.813  -5.031   0.682  0.00  0.00    -0.180 NA
ATOM      3  N   UNL     1       1.895  -4.470   1.375  0.00  0.00    -0.220 N 
ATOM      4  C   UNL     1       2.839  -3.777   0.634  0.00  0.00    +0.146 C 
ATOM      5  N   UNL     1       2.523  -2.725  -0.057  0.00  0.00    -0.229 NA
ATOM      6  C   UNL     1       1.305  -2.118  -0.048  0.00  0.00    +0.083 A 
ATOM      7  C   UNL     1       0.096  -2.806  -0.031  0.00  0.00    +0.028 A 
ATOM      8  C   UNL     1      -1.116  -2.093  -0.037  0.00  0.00    +0.013 A 
ATOM      9  C   UNL     1      -1.147  -0.734  -0.055  0.00  0.00    +0.009 A 
ATOM     10  C   UNL     1       0.053  -0.005  -0.065  0.00  0.00    -0.016 A 
ATOM     11  C   UNL     1       1.288  -0.697  -0.060  0.00  0.00    +0.008 A 
ATOM     12  C   UNL     1       2.488   0.031  -0.066  0.00  0.00    +0.010 A 
ATOM     13  C   UNL     1       2.449   1.392  -0.079  0.00  0.00    +0.001 A 
ATOM     14  C   UNL     1       1.233   2.075  -0.086  0.00  0.00    +0.001 A 
ATOM     15  C   UNL     1       0.051   1.402  -0.079  0.00  0.00    +0.008 A 
ATOM     16  H   UNL     1       1.980  -4.564   2.336  0.00  0.00    +0.176 HD
ENDROOT
BRANCH   4  17
ATOM     17  C   UNL     1       4.238  -4.246   0.632  0.00  0.00    +0.016 A 
ATOM     18  C   UNL     1       5.205  -3.565  -0.113  0.00  0.00    +0.013 A 
ATOM     19  C   UNL     1       6.511  -4.006  -0.107  0.00  0.00    +0.021 A 
ATOM     20  C   UNL     1       6.864  -5.127   0.625  0.00  0.00    +0.041 A 
ATOM     21  C   UNL     1       5.909  -5.810   1.362  0.00  0.00    +0.021 A 
ATOM     22  C   UNL     1       4.600  -5.376   1.369  0.00  0.00    +0.013 A 
ATOM     23 CL   UNL     1       8.509  -5.680   0.621  0.00  0.00    -0.084 Cl
ENDBRANCH   4  17
BRANCH   1  27
ATOM     24  C   UNL     1      -3.031  -6.174  -2.293  0.00  0.00    +0.120 A 
ATOM     25  C   UNL     1      -2.587  -4.905  -2.643  0.00  0.00    +0.046 A 
ATOM     26  C   UNL     1      -1.601  -4.289  -1.902  0.00  0.00    +0.013 A 
ATOM     27  C   UNL     1      -1.048  -4.943  -0.799  0.00  0.00    +0.003 A 
ATOM     28  C   UNL     1      -1.493  -6.221  -0.454  0.00  0.00    +0.013 A 
ATOM     29  C   UNL     1      -2.483  -6.827  -1.196  0.00  0.00    +0.046 A 
BRANCH  24  31
ATOM     30  C   UNL     1      -4.411  -8.083  -2.611  0.00  0.00    +0.277 C 
ATOM     31  O   UNL     1      -4.002  -6.778  -3.026  0.00  0.00    -0.495 OA
ENDBRANCH  24  31
ENDBRANCH   1  27
TORSDOF 3
