REMARK  Name = ZINC39694123
REMARK  5 active torsions:
REMARK  status: ('A' for Active; 'I' for Inactive)
REMARK    1  A    between atoms: N_4  and  C_6
REMARK    2  A    between atoms: C_10  and  C_12
REMARK    3  A    between atoms: C_12  and  N_13
REMARK    4  A    between atoms: C_14  and  C_16
REMARK    5  A    between atoms: C_27  and  C_29
REMARK                            x       y       z     vdW  Elec       q    Type
REMARK                         _______ _______ _______ _____ _____    ______ ____
ROOT
ATOM      1  C   UNL     1      -1.449  -7.002   2.428  0.00  0.00    +0.100 C 
ATOM      2  C   UNL     1      -1.832  -5.819   3.345  0.00  0.00    +0.121 C 
ATOM      3  N   UNL     1      -3.307  -5.903   3.468  0.00  0.00    -0.296 N 
ATOM      4  C   UNL     1      -3.587  -7.356   3.569  0.00  0.00    +0.115 C 
ATOM      5  C   UNL     1      -2.601  -8.010   2.580  0.00  0.00    -0.004 C 
ATOM      6  C   UNL     1      -2.080  -9.327   3.147  0.00  0.00    -0.010 C 
ATOM      7  C   UNL     1      -3.232 -10.331   3.235  0.00  0.00    -0.082 C 
ATOM      8  N   UNL     1      -3.802 -10.542   1.899  0.00  0.00    +0.379 N 
ATOM      9  C   UNL     1      -4.385  -9.291   1.400  0.00  0.00    -0.082 C 
ATOM     10  C   UNL     1      -3.281  -8.242   1.234  0.00  0.00    -0.010 C 
ATOM     11  C   UNL     1      -4.193  -4.888   3.484  0.00  0.00    +0.249 C 
ATOM     12  O   UNL     1      -5.371  -5.113   3.686  0.00  0.00    -0.270 OA
ATOM     13  H   UNL     1      -3.076 -10.848   1.269  0.00  0.00    -0.086 HD
ATOM     14  H   UNL     1      -4.520 -11.249   1.949  0.00  0.00    -0.086 HD
ENDROOT
BRANCH  11  15
ATOM     15  C   UNL     1      -3.734  -3.503   3.256  0.00  0.00    +0.073 A 
ATOM     16  C   UNL     1      -2.485  -3.092   3.727  0.00  0.00    +0.016 A 
ATOM     17  C   UNL     1      -2.061  -1.798   3.511  0.00  0.00    +0.002 A 
ATOM     18  C   UNL     1      -2.870  -0.904   2.830  0.00  0.00    +0.023 A 
ATOM     19  C   UNL     1      -4.109  -1.301   2.360  0.00  0.00    +0.077 A 
ATOM     20  C   UNL     1      -4.545  -2.599   2.565  0.00  0.00    +0.154 A 
ATOM     21  F   UNL     1      -5.753  -2.989   2.102  0.00  0.00    -0.203 F 
ATOM     22 CL   UNL     1      -5.115  -0.172   1.508  0.00  0.00    -0.081 Cl
ENDBRANCH  11  15
BRANCH   1  24
ATOM     23  N   UNL     1      -0.525  -7.190   0.141  0.00  0.00    -0.311 N 
ATOM     24  C   UNL     1      -1.340  -6.542   0.997  0.00  0.00    +0.218 C 
ATOM     25  O   UNL     1      -1.987  -5.590   0.615  0.00  0.00    -0.275 OA
ATOM     26  H   UNL     1      -0.008  -7.952   0.446  0.00  0.00    +0.149 HD
BRANCH  23  27
ATOM     27  C   UNL     1      -0.419  -6.743  -1.250  0.00  0.00    +0.139 C 
BRANCH  27  32
ATOM     28  C   UNL     1       2.785  -8.118  -2.708  0.00  0.00    +0.046 A 
ATOM     29  C   UNL     1       2.326  -9.258  -3.352  0.00  0.00    +0.026 A 
ATOM     30  C   UNL     1       0.983  -9.579  -3.313  0.00  0.00    +0.002 A 
ATOM     31  C   UNL     1       0.096  -8.764  -2.632  0.00  0.00    +0.005 A 
ATOM     32  C   UNL     1       0.551  -7.628  -1.990  0.00  0.00    -0.028 A 
ATOM     33  C   UNL     1       1.894  -7.305  -2.021  0.00  0.00    +0.031 A 
BRANCH  28  37
ATOM     34  C   UNL     1       6.045  -6.731  -2.411  0.00  0.00    +0.019 A 
ATOM     35  C   UNL     1       6.299  -7.875  -3.194  0.00  0.00    +0.019 A 
ATOM     36  C   UNL     1       5.121  -8.504  -3.384  0.00  0.00    +0.091 A 
ATOM     37  N   UNL     1       4.148  -7.790  -2.746  0.00  0.00    -0.323 N 
ATOM     38  C   UNL     1       4.723  -6.703  -2.151  0.00  0.00    +0.091 A 
ENDBRANCH  28  37
ENDBRANCH  27  32
ENDBRANCH  23  27
ENDBRANCH   1  24
TORSDOF 5
