REMARK  Name = ZINC21760931
REMARK  7 active torsions:
REMARK  status: ('A' for Active; 'I' for Inactive)
REMARK    1  A    between atoms: C_1  and  C_2
REMARK    2  A    between atoms: C_11  and  N_29
REMARK    3  A    between atoms: C_13  and  S_15
REMARK    4  A    between atoms: S_15  and  C_16
REMARK    5  A    between atoms: C_16  and  C_17
REMARK    6  A    between atoms: C_20  and  C_26
REMARK    7  A    between atoms: C_22  and  N_23
REMARK                            x       y       z     vdW  Elec       q    Type
REMARK                         _______ _______ _______ _____ _____    ______ ____
ROOT
ATOM      1  C   UNL     1      -4.245   5.302  -2.505  0.00  0.00    +0.008 C 
ATOM      2  C   UNL     1      -2.909   4.580  -2.317  0.00  0.00    -0.009 C 
ATOM      3  C   UNL     1      -2.003   5.407  -1.400  0.00  0.00    +0.008 C 
ATOM      4  C   UNL     1      -0.590   4.824  -1.403  0.00  0.00    +0.037 C 
ATOM      5  C   UNL     1      -0.670   3.334  -1.081  0.00  0.00    -0.025 A 
ATOM      6  C   UNL     1      -1.834   2.665  -1.203  0.00  0.00    -0.004 A 
ATOM      7  S   UNL     1      -1.461   0.997  -0.732  0.00  0.00    -0.073 S 
ATOM      8  C   UNL     1       0.262   1.203  -0.363  0.00  0.00    +0.115 A 
ATOM      9  C   UNL     1       0.491   2.569  -0.619  0.00  0.00    +0.051 A 
ATOM     10  C   UNL     1       1.823   3.020  -0.400  0.00  0.00    +0.129 A 
ATOM     11  N   UNL     1       2.736   2.159   0.017  0.00  0.00    -0.207 NA
ATOM     12  C   UNL     1       2.452   0.881   0.240  0.00  0.00    +0.191 A 
ATOM     13  N   UNL     1       1.228   0.406   0.052  0.00  0.00    -0.215 NA
ATOM     14  C   UNL     1      -3.155   3.215  -1.648  0.00  0.00    +0.046 C 
ENDROOT
BRANCH  10  15
ATOM     15  N   UNL     1       2.158   4.343  -0.620  0.00  0.00    -0.343 N 
ATOM     16  H   UNL     1       3.189   4.685  -0.448  0.00  0.00    +0.144 HD
ATOM     17  H   UNL     1       1.394   5.054  -0.967  0.00  0.00    +0.144 HD
ENDBRANCH  10  15
BRANCH  12  18
ATOM     18  S   UNL     1       3.725  -0.203   0.794  0.00  0.00    -0.081 S 
BRANCH  18  19
ATOM     19  C   UNL     1       5.114   0.954   0.867  0.00  0.00    +0.114 C 
BRANCH  19  20
ATOM     20  C   UNL     1       6.350   0.227   1.332  0.00  0.00    -0.007 A 
ATOM     21  C   UNL     1       6.723   0.284   2.663  0.00  0.00    +0.007 A 
ATOM     22  C   UNL     1       7.851  -0.383   3.095  0.00  0.00    +0.013 A 
ATOM     23  C   UNL     1       8.621  -1.108   2.185  0.00  0.00    +0.039 A 
ATOM     24  C   UNL     1       8.242  -1.157   0.843  0.00  0.00    +0.046 A 
ATOM     25  C   UNL     1       7.109  -0.489   0.424  0.00  0.00    +0.131 A 
BRANCH  23  26
ATOM     26  C   UNL     1       9.834  -1.820   2.640  0.00  0.00    +0.242 C 
ATOM     27  O   UNL     1      10.503  -2.450   1.845  0.00  0.00    -0.270 OA
ATOM     28  N   UNL     1      10.197  -1.771   3.937  0.00  0.00    -0.325 N 
ATOM     29  H   UNL     1      11.100  -2.301   4.276  0.00  0.00    +0.145 HD
ATOM     30  H   UNL     1       9.591  -1.201   4.657  0.00  0.00    +0.145 HD
ENDBRANCH  23  26
BRANCH  25  31
ATOM     31  N   UNL     1       6.706  -0.540  -0.999  0.00  0.00    +0.057 N 
ATOM     32  O   UNL     1       7.431  -1.075  -1.819  0.00  0.00    -0.126 OA
ATOM     33  O   UNL     1       5.648  -0.048  -1.350  0.00  0.00    -0.126 OA
ENDBRANCH  25  31
ENDBRANCH  19  20
ENDBRANCH  18  19
ENDBRANCH  12  18
TORSDOF 6
