REMARK  Name = ZINC59170432
REMARK  7 active torsions:
REMARK  status: ('A' for Active; 'I' for Inactive)
REMARK    1  A    between atoms: C_1  and  C_2
REMARK    2  A    between atoms: C_6  and  N_8
REMARK    3  A    between atoms: C_9  and  C_11
REMARK    4  A    between atoms: C_15  and  N_32
REMARK    5  A    between atoms: N_21  and  C_22
REMARK    6  A    between atoms: C_25  and  S_28
REMARK    7  A    between atoms: S_28  and  N_31
REMARK                            x       y       z     vdW  Elec       q    Type
REMARK                         _______ _______ _______ _____ _____    ______ ____
ROOT
ATOM      1  C   UNL     1      -0.174  -4.860   3.640  0.00  0.00    +0.098 A 
ATOM      2  C   UNL     1      -0.145  -6.248   3.651  0.00  0.00    +0.030 A 
ATOM      3  C   UNL     1      -0.188  -6.911   4.957  0.00  0.00    +0.020 A 
ATOM      4  C   UNL     1       0.104  -8.275   5.078  0.00  0.00    +0.044 A 
ATOM      5  C   UNL     1       0.060  -8.871   6.307  0.00  0.00    +0.127 A 
ATOM      6  C   UNL     1      -0.271  -8.135   7.436  0.00  0.00    +0.036 A 
ATOM      7  C   UNL     1      -0.562  -6.789   7.338  0.00  0.00    +0.049 A 
ATOM      8  C   UNL     1      -0.526  -6.164   6.101  0.00  0.00    +0.138 A 
ATOM      9  O   UNL     1      -0.817  -4.846   5.983  0.00  0.00    -0.439 OA
ATOM     10  C   UNL     1      -0.241  -4.178   4.948  0.00  0.00    +0.212 A 
ATOM     11  N   UNL     1       0.237  -2.963   5.104  0.00  0.00    -0.325 N 
ATOM     12  H   UNL     1       0.738  -2.543   4.387  0.00  0.00    +0.169 HD
ENDROOT
BRANCH  11  13
ATOM     13  C   UNL     1       0.030  -2.291   6.277  0.00  0.00    +0.042 A 
ATOM     14  C   UNL     1      -1.234  -2.295   6.873  0.00  0.00    +0.027 A 
ATOM     15  C   UNL     1      -1.436  -1.615   8.057  0.00  0.00    +0.030 A 
ATOM     16  C   UNL     1      -0.391  -0.931   8.652  0.00  0.00    +0.105 A 
ATOM     17  C   UNL     1       0.863  -0.923   8.068  0.00  0.00    +0.030 A 
ATOM     18  C   UNL     1       1.081  -1.603   6.888  0.00  0.00    +0.027 A 
BRANCH  16  19
ATOM     19  S   UNL     1      -0.659  -0.065  10.163  0.00  0.00    +0.056 S 
ATOM     20  O   UNL     1       0.337   0.946  10.234  0.00  0.00    -0.153 OA
ATOM     21  O   UNL     1      -2.048   0.229  10.222  0.00  0.00    -0.153 OA
BRANCH  19  22
ATOM     22  N   UNL     1      -0.346  -1.124  11.397  0.00  0.00    -0.204 NA
ATOM     23  H   UNL     1      -0.072  -2.033  11.198  0.00  0.00    +0.144 HD
ATOM     24  H   UNL     1      -0.438  -0.836  12.319  0.00  0.00    +0.144 HD
ENDBRANCH  19  22
ENDBRANCH  16  19
ENDBRANCH  11  13
BRANCH   1  26
ATOM     25  N   UNL     1      -0.303  -2.764   2.392  0.00  0.00    -0.281 N 
ATOM     26  C   UNL     1      -0.135  -4.101   2.379  0.00  0.00    +0.253 C 
ATOM     27  O   UNL     1       0.050  -4.681   1.326  0.00  0.00    -0.270 OA
ATOM     28  H   UNL     1      -0.397  -2.295   3.236  0.00  0.00    +0.155 HD
BRANCH  25  34
ATOM     29  C   UNL     1      -2.107   0.955  -0.269  0.00  0.00    +0.044 C 
ATOM     30  C   UNL     1      -1.208  -0.245  -0.129  0.00  0.00    -0.049 A 
ATOM     31  C   UNL     1      -0.419  -0.645  -1.193  0.00  0.00    +0.003 A 
ATOM     32  C   UNL     1       0.408  -1.746  -1.069  0.00  0.00    +0.002 A 
ATOM     33  C   UNL     1       0.449  -2.451   0.118  0.00  0.00    +0.023 A 
ATOM     34  C   UNL     1      -0.342  -2.052   1.188  0.00  0.00    +0.034 A 
ATOM     35  C   UNL     1      -1.168  -0.943   1.062  0.00  0.00    +0.026 A 
ENDBRANCH  25  34
ENDBRANCH   1  26
BRANCH   5  36
ATOM     36  N   UNL     1       0.367 -10.313   6.435  0.00  0.00    +0.056 N 
ATOM     37  O   UNL     1       0.655 -10.960   5.455  0.00  0.00    -0.126 OA
ATOM     38  O   UNL     1       0.330 -10.845   7.520  0.00  0.00    -0.126 OA
ENDBRANCH   5  36
TORSDOF 6
