REMARK  Name = ZINC42521969
REMARK  5 active torsions:
REMARK  status: ('A' for Active; 'I' for Inactive)
REMARK    1  A    between atoms: C_1  and  C_2
REMARK    2  A    between atoms: C_2  and  C_4
REMARK    3  A    between atoms: C_2  and  S_7
REMARK    4  A    between atoms: S_7  and  N_10
REMARK    5  A    between atoms: N_10  and  C_11
REMARK                            x       y       z     vdW  Elec       q    Type
REMARK                         _______ _______ _______ _____ _____    ______ ____
ROOT
ATOM      1  N   UNL     1       0.017  -0.011   2.755  0.00  0.00    -0.099 NA
ENDROOT
BRANCH   1   2
ATOM      2  C   UNL     1       0.364  -0.376   4.059  0.00  0.00    +0.110 A 
ATOM      3  C   UNL     1      -0.514  -1.129   4.829  0.00  0.00    +0.068 A 
ATOM      4  C   UNL     1      -0.169  -1.488   6.118  0.00  0.00    +0.037 A 
ATOM      5  C   UNL     1       1.051  -1.098   6.643  0.00  0.00    +0.021 A 
ATOM      6  C   UNL     1       1.928  -0.348   5.879  0.00  0.00    +0.037 A 
ATOM      7  C   UNL     1       1.591   0.009   4.587  0.00  0.00    +0.068 A 
ATOM      8 CL   UNL     1       2.695   0.943   3.627  0.00  0.00    -0.081 Cl
ATOM      9 BR   UNL     1       1.520  -1.592   8.407  0.00  0.00    -0.050 Br
ATOM     10 CL   UNL     1      -2.045  -1.617   4.172  0.00  0.00    -0.081 Cl
ENDBRANCH   1   2
BRANCH   1  11
ATOM     11  S   UNL     1       0.825  -0.670   1.468  0.00  0.00    +0.076 S 
ATOM     12  O   UNL     1       0.630  -2.072   1.598  0.00  0.00    -0.153 OA
ATOM     13  O   UNL     1       2.129  -0.111   1.533  0.00  0.00    -0.153 OA
BRANCH  11  15
ATOM     14  C   UNL     1       0.008   1.477  -0.017  0.00  0.00    +0.046 C 
ATOM     15  C   UNL     1      -0.048  -0.052   0.003  0.00  0.00    +0.262 C 
BRANCH  15  16
ATOM     16  C   UNL     1       0.609  -0.595  -1.240  0.00  0.00    +0.381 C 
ATOM     17  O   UNL     1       1.515   0.024  -1.770  0.00  0.00    -0.244 OA
ATOM     18  O   UNL     1       0.234  -1.653  -1.715  0.00  0.00    -0.244 OA
ENDBRANCH  15  16
ENDBRANCH  11  15
ENDBRANCH   1  11
TORSDOF 4
