REMARK  Name = ZINC16688333
REMARK  13 active torsions:
REMARK  status: ('A' for Active; 'I' for Inactive)
REMARK    1  A    between atoms: C_1  and  C_2
REMARK    2  A    between atoms: C_2  and  O_3
REMARK    3  A    between atoms: O_3  and  C_4
REMARK    4  A    between atoms: C_6  and  C_16
REMARK    5  A    between atoms: C_9  and  O_10
REMARK    6  A    between atoms: O_10  and  C_11
REMARK    7  A    between atoms: C_11  and  C_12
REMARK    8  A    between atoms: C_16  and  N_17
REMARK    9  A    between atoms: N_17  and  C_18
REMARK   10  A    between atoms: C_18  and  C_19
REMARK   11  A    between atoms: C_19  and  C_20
REMARK   12  A    between atoms: C_23  and  S_26
REMARK   13  A    between atoms: S_26  and  N_29
REMARK                            x       y       z     vdW  Elec       q    Type
REMARK                         _______ _______ _______ _____ _____    ______ ____
ROOT
ATOM      1  C   UNL     1      -0.016   1.356   0.009  0.00  0.00    +0.163 A 
ATOM      2  C   UNL     1       1.173   2.066   0.002  0.00  0.00    +0.054 A 
ATOM      3  C   UNL     1       1.153   3.449   0.009  0.00  0.00    -0.029 A 
ATOM      4  C   UNL     1      -0.052   4.125   0.024  0.00  0.00    +0.024 A 
ATOM      5  C   UNL     1      -1.243   3.423   0.032  0.00  0.00    +0.063 A 
ATOM      6  C   UNL     1      -1.230   2.036   0.019  0.00  0.00    +0.176 A 
ATOM      7 BR   UNL     1      -2.890   4.352   0.054  0.00  0.00    -0.046 Br
ENDROOT
BRANCH   1   8
ATOM      8  O   UNL     1       0.002  -0.004   0.002  0.00  0.00    -0.489 OA
BRANCH   8  10
ATOM      9  C   UNL     1       1.104  -2.155  -0.020  0.00  0.00    +0.048 C 
ATOM     10  C   UNL     1       1.284  -0.635  -0.014  0.00  0.00    +0.226 C 
ENDBRANCH   8  10
ENDBRANCH   1   8
BRANCH   6  11
ATOM     11  O   UNL     1      -2.400   1.343   0.021  0.00  0.00    -0.478 OA
BRANCH  11  12
ATOM     12  C   UNL     1      -2.952   1.006   1.295  0.00  0.00    +0.324 C 
BRANCH  12  13
ATOM     13  C   UNL     1      -4.239   0.245   1.099  0.00  0.00    +0.248 C 
ATOM     14  O   UNL     1      -4.643   0.015  -0.021  0.00  0.00    -0.272 OA
ATOM     15  N   UNL     1      -4.940  -0.179   2.169  0.00  0.00    -0.327 N 
ATOM     16  H   UNL     1      -5.879  -0.734   2.026  0.00  0.00    +0.145 HD
ATOM     17  H   UNL     1      -4.574   0.030   3.185  0.00  0.00    +0.145 HD
ENDBRANCH  12  13
ENDBRANCH  11  12
ENDBRANCH   6  11
BRANCH   3  18
ATOM     18  C   UNL     1       2.448   4.219  -0.000  0.00  0.00    +0.116 C 
BRANCH  18  19
ATOM     19  N   UNL     1       2.856   4.476  -1.388  0.00  0.00    -0.312 NA
ATOM     20  H   UNL     1       2.995   3.519  -1.912  0.00  0.00    +0.122 HD
BRANCH  19  21
ATOM     21  C   UNL     1       4.118   5.227  -1.435  0.00  0.00    +0.086 C 
BRANCH  21  22
ATOM     22  C   UNL     1       4.509   5.475  -2.894  0.00  0.00    +0.050 C 
BRANCH  22  23
ATOM     23  C   UNL     1       5.803   6.246  -2.943  0.00  0.00    -0.046 A 
ATOM     24  C   UNL     1       5.784   7.628  -2.960  0.00  0.00    +0.005 A 
ATOM     25  C   UNL     1       6.971   8.335  -3.001  0.00  0.00    +0.029 A 
ATOM     26  C   UNL     1       8.177   7.659  -3.033  0.00  0.00    +0.105 A 
ATOM     27  C   UNL     1       8.196   6.277  -3.021  0.00  0.00    +0.029 A 
ATOM     28  C   UNL     1       7.009   5.570  -2.976  0.00  0.00    +0.005 A 
BRANCH  26  29
ATOM     29  S   UNL     1       9.690   8.560  -3.089  0.00  0.00    +0.056 S 
ATOM     30  O   UNL     1       9.420   9.843  -2.541  0.00  0.00    -0.153 OA
ATOM     31  O   UNL     1      10.693   7.703  -2.561  0.00  0.00    -0.153 OA
BRANCH  29  32
ATOM     32  N   UNL     1      10.061   8.796  -4.686  0.00  0.00    -0.204 NA
ATOM     33  H   UNL     1      11.004   9.358  -4.764  0.00  0.00    +0.144 HD
ATOM     34  H   UNL     1       9.254   9.365  -5.169  0.00  0.00    +0.144 HD
ENDBRANCH  29  32
ENDBRANCH  26  29
ENDBRANCH  22  23
ENDBRANCH  21  22
ENDBRANCH  19  21
ENDBRANCH  18  19
ENDBRANCH   3  18
TORSDOF 12
