REMARK  Name = ZINC03405749
REMARK  13 active torsions:
REMARK  status: ('A' for Active; 'I' for Inactive)
REMARK    1  A    between atoms: C_1  and  C_2
REMARK    2  A    between atoms: C_2  and  O_3
REMARK    3  A    between atoms: O_3  and  C_4
REMARK    4  A    between atoms: C_4  and  C_6
REMARK    5  A    between atoms: C_10  and  N_11
REMARK    6  A    between atoms: C_12  and  C_14
REMARK    7  A    between atoms: C_14  and  O_15
REMARK    8  A    between atoms: O_15  and  C_16
REMARK    9  A    between atoms: C_16  and  C_18
REMARK   10  A    between atoms: C_24  and  C_29
REMARK   11  A    between atoms: C_24  and  C_30
REMARK   12  A    between atoms: C_25  and  C_27
REMARK   13  A    between atoms: C_25  and  C_28
REMARK                            x       y       z     vdW  Elec       q    Type
REMARK                         _______ _______ _______ _____ _____    ______ ____
ROOT
ATOM      1  C   UNL     1       2.864   6.729   0.011  0.00  0.00    +0.091 A 
ATOM      2  C   UNL     1       2.384   8.095   0.018  0.00  0.00    -0.024 A 
ATOM      3  C   UNL     1       1.039   8.242   0.037  0.00  0.00    -0.016 A 
ATOM      4  S   UNL     1       0.410   6.588   0.036  0.00  0.00    -0.079 S 
ATOM      5  C   UNL     1       1.908   5.718   0.015  0.00  0.00    +0.086 A 
ATOM      6  C   UNL     1       0.285   9.531   0.064  0.00  0.00    -0.041 C 
ATOM      7  C   UNL     1       2.468  10.438  -0.741  0.00  0.00    -0.069 C 
ATOM      8  C   UNL     1       3.252   9.346  -0.004  0.00  0.00    +0.024 C 
ATOM      9  C   UNL     1       2.327  10.050  -2.216  0.00  0.00    -0.010 C 
ATOM     10  C   UNL     1       3.289  11.739  -0.670  0.00  0.00    -0.010 C 
ATOM     11  C   UNL     1      -0.808   9.505  -1.013  0.00  0.00    -0.005 C 
ATOM     12  C   UNL     1      -0.403   9.662   1.436  0.00  0.00    -0.005 C 
ATOM     13  N   UNL     1       1.151  10.732  -0.120  0.00  0.00    +0.389 N 
ATOM     14  H   UNL     1       1.315  11.155   0.801  0.00  0.00    -0.084 HD
ATOM     15  H   UNL     1       0.653  11.400  -0.719  0.00  0.00    -0.084 HD
ENDROOT
BRANCH   5  16
ATOM     16  N   UNL     1       2.108   4.346   0.005  0.00  0.00    -0.277 N 
ATOM     17  C   UNL     1       1.051   3.511   0.011  0.00  0.00    +0.255 C 
ATOM     18  O   UNL     1      -0.076   3.959   0.024  0.00  0.00    -0.272 OA
ATOM     19  H   UNL     1       3.010   3.988  -0.005  0.00  0.00    +0.155 HD
BRANCH  17  20
ATOM     20  C   UNL     1       1.268   2.020   0.001  0.00  0.00    +0.328 C 
BRANCH  20  21
ATOM     21  O   UNL     1      -0.016   1.343   0.009  0.00  0.00    -0.452 OA
BRANCH  21  22
ATOM     22  C   UNL     1       0.002  -0.004   0.002  0.00  0.00    +0.340 C 
ATOM     23  O   UNL     1       1.062  -0.597  -0.011  0.00  0.00    -0.245 OA
BRANCH  22  24
ATOM     24  C   UNL     1      -1.267  -0.760   0.010  0.00  0.00    +0.059 A 
ATOM     25  C   UNL     1      -2.487  -0.082   0.031  0.00  0.00    +0.015 A 
ATOM     26  C   UNL     1      -3.669  -0.794   0.033  0.00  0.00    +0.001 A 
ATOM     27  C   UNL     1      -3.646  -2.177   0.026  0.00  0.00    +0.000 A 
ATOM     28  C   UNL     1      -2.441  -2.856   0.011  0.00  0.00    +0.001 A 
ATOM     29  C   UNL     1      -1.252  -2.156   0.002  0.00  0.00    +0.015 A 
ENDBRANCH  22  24
ENDBRANCH  21  22
ENDBRANCH  20  21
ENDBRANCH  17  20
ENDBRANCH   5  16
BRANCH   1  30
ATOM     30  C   UNL     1       4.293   6.411   0.005  0.00  0.00    +0.342 C 
ATOM     31  O   UNL     1       4.882   6.280  -1.052  0.00  0.00    -0.245 OA
BRANCH  30  32
ATOM     32  O   UNL     1       4.957   6.264   1.170  0.00  0.00    -0.461 OA
BRANCH  32  34
ATOM     33  C   UNL     1       6.948   5.821   2.499  0.00  0.00    +0.048 C 
ATOM     34  C   UNL     1       6.372   5.949   1.087  0.00  0.00    +0.229 C 
ENDBRANCH  32  34
ENDBRANCH  30  32
ENDBRANCH   1  30
TORSDOF 8
