REMARK  Name = ZINC02521112
REMARK  8 active torsions:
REMARK  status: ('A' for Active; 'I' for Inactive)
REMARK    1  A    between atoms: C_3  and  C_8
REMARK    2  A    between atoms: N_10  and  C_11
REMARK    3  A    between atoms: C_11  and  C_12
REMARK    4  A    between atoms: N_14  and  N_15
REMARK    5  A    between atoms: C_16  and  C_17
REMARK    6  A    between atoms: C_20  and  O_23
REMARK    7  A    between atoms: O_23  and  C_24
REMARK    8  A    between atoms: C_24  and  C_26
REMARK                            x       y       z     vdW  Elec       q    Type
REMARK                         _______ _______ _______ _____ _____    ______ ____
ROOT
ATOM      1  N   UNL     1       2.903   3.858   0.049  0.00  0.00    -0.188 NA
ATOM      2  C   UNL     1       3.138   5.132  -0.029  0.00  0.00    +0.138 C 
ENDROOT
BRANCH   2   3
ATOM      3  C   UNL     1       4.526   5.627  -0.032  0.00  0.00    -0.005 A 
ATOM      4  C   UNL     1       5.591   4.727   0.055  0.00  0.00    +0.013 A 
ATOM      5  C   UNL     1       6.888   5.194   0.047  0.00  0.00    +0.047 A 
ATOM      6  C   UNL     1       7.136   6.558  -0.037  0.00  0.00    +0.132 A 
ATOM      7  C   UNL     1       6.080   7.457  -0.118  0.00  0.00    +0.047 A 
ATOM      8  C   UNL     1       4.781   6.999  -0.116  0.00  0.00    +0.013 A 
BRANCH   6   9
ATOM      9  O   UNL     1       8.416   7.014  -0.040  0.00  0.00    -0.422 OA
BRANCH   9  10
ATOM     10  C   UNL     1       8.824   7.696   1.049  0.00  0.00    +0.346 C 
ATOM     11  O   UNL     1       8.096   7.788   2.017  0.00  0.00    -0.244 OA
BRANCH  10  12
ATOM     12  C   UNL     1      10.156   8.331   1.065  0.00  0.00    +0.078 A 
ATOM     13  C   UNL     1      10.997   8.227  -0.047  0.00  0.00    +0.018 A 
ATOM     14  C   UNL     1      12.240   8.822  -0.025  0.00  0.00    +0.021 A 
ATOM     15  C   UNL     1      12.658   9.522   1.095  0.00  0.00    +0.042 A 
ATOM     16  C   UNL     1      11.831   9.630   2.200  0.00  0.00    +0.040 A 
ATOM     17  C   UNL     1      10.581   9.043   2.190  0.00  0.00    +0.056 A 
ATOM     18 CL   UNL     1       9.542   9.185   3.574  0.00  0.00    -0.083 Cl
ATOM     19 CL   UNL     1      14.226  10.268   1.113  0.00  0.00    -0.083 Cl
ENDBRANCH  10  12
ENDBRANCH   9  10
ENDBRANCH   6   9
ENDBRANCH   2   3
BRANCH   1  22
ATOM     20  C   UNL     1       1.340   2.064   0.134  0.00  0.00    +0.249 C 
ATOM     21  O   UNL     1       2.263   1.281   0.204  0.00  0.00    -0.272 OA
ATOM     22  N   UNL     1       1.583   3.388   0.052  0.00  0.00    -0.206 N 
ATOM     23  H   UNL     1       0.845   4.014  -0.004  0.00  0.00    +0.177 HD
BRANCH  20  24
ATOM     24  C   UNL     1      -0.080   1.558   0.137  0.00  0.00    +0.202 C 
BRANCH  24  27
ATOM     25  C   UNL     1      -1.242  -0.580   0.252  0.00  0.00    +0.245 C 
ATOM     26  O   UNL     1      -2.296   0.023   0.190  0.00  0.00    -0.270 OA
ATOM     27  N   UNL     1      -0.076   0.097   0.232  0.00  0.00    -0.303 N 
ATOM     28  H   UNL     1       0.764  -0.385   0.281  0.00  0.00    +0.150 HD
BRANCH  25  31
ATOM     29  C   UNL     1      -0.034  -4.127   0.509  0.00  0.00    +0.002 A 
ATOM     30  C   UNL     1      -0.031  -2.751   0.413  0.00  0.00    +0.013 A 
ATOM     31  C   UNL     1      -1.239  -2.055   0.348  0.00  0.00    +0.038 A 
ATOM     32  C   UNL     1      -2.445  -2.759   0.369  0.00  0.00    +0.033 A 
ATOM     33  C   UNL     1      -2.434  -4.136   0.459  0.00  0.00    +0.042 A 
ATOM     34  C   UNL     1      -1.232  -4.819   0.529  0.00  0.00    +0.020 A 
ATOM     35 CL   UNL     1      -3.932  -5.014   0.485  0.00  0.00    -0.084 Cl
ENDBRANCH  25  31
ENDBRANCH  24  27
ENDBRANCH  20  24
ENDBRANCH   1  22
TORSDOF 8
