REMARK  Name = ZINC03404401
REMARK  13 active torsions:
REMARK  status: ('A' for Active; 'I' for Inactive)
REMARK    1  A    between atoms: C_1  and  C_2
REMARK    2  A    between atoms: C_2  and  C_3
REMARK    3  A    between atoms: C_3  and  C_4
REMARK    4  A    between atoms: C_3  and  N_6
REMARK    5  A    between atoms: C_4  and  C_5
REMARK    6  A    between atoms: C_7  and  C_24
REMARK    7  A    between atoms: C_10  and  S_11
REMARK    8  A    between atoms: S_11  and  C_12
REMARK    9  A    between atoms: C_12  and  C_13
REMARK   10  A    between atoms: N_15  and  C_16
REMARK   11  A    between atoms: C_17  and  C_21
REMARK   12  A    between atoms: C_24  and  O_25
REMARK   13  A    between atoms: O_25  and  C_26
REMARK                            x       y       z     vdW  Elec       q    Type
REMARK                         _______ _______ _______ _____ _____    ______ ____
ROOT
ATOM      1  N   UNL     1       2.040  -8.006  -0.062  0.00  0.00    -0.300 N 
ATOM      2  C   UNL     1       3.222  -8.694  -0.078  0.00  0.00    +0.172 A 
ATOM      3  N   UNL     1       4.183  -7.814  -0.083  0.00  0.00    -0.130 NA
ATOM      4  N   UNL     1       3.693  -6.625  -0.076  0.00  0.00    -0.122 NA
ATOM      5  C   UNL     1       2.382  -6.684  -0.058  0.00  0.00    +0.192 A 
ENDROOT
BRANCH   1   6
ATOM      6  C   UNL     1       0.689  -8.571  -0.051  0.00  0.00    +0.091 C 
BRANCH   6   8
ATOM      7  C   UNL     1       0.644  -8.690   2.445  0.00  0.00    +0.006 C 
ATOM      8  C   UNL     1      -0.047  -8.109   1.209  0.00  0.00    +0.022 C 
ENDBRANCH   6   8
BRANCH   6   9
ATOM      9  C   UNL     1      -0.073  -8.094  -1.289  0.00  0.00    +0.022 C 
ATOM     10  C   UNL     1       0.591  -8.660  -2.546  0.00  0.00    +0.006 C 
ENDBRANCH   6   9
ENDBRANCH   1   6
BRANCH   5  11
ATOM     11  S   UNL     1       1.272  -5.316  -0.039  0.00  0.00    -0.077 S 
BRANCH  11  12
ATOM     12  C   UNL     1       2.458  -3.949  -0.043  0.00  0.00    +0.173 C 
BRANCH  12  13
ATOM     13  C   UNL     1       1.715  -2.638  -0.029  0.00  0.00    +0.228 C 
ATOM     14  O   UNL     1       0.502  -2.629  -0.017  0.00  0.00    -0.275 OA
ATOM     15  N   UNL     1       2.397  -1.476  -0.029  0.00  0.00    -0.279 N 
ATOM     16  H   UNL     1       3.367  -1.483  -0.039  0.00  0.00    +0.155 HD
BRANCH  15  17
ATOM     17  C   UNL     1       1.713  -0.270  -0.016  0.00  0.00    +0.084 A 
ATOM     18  C   UNL     1       2.234   1.018  -0.014  0.00  0.00    +0.065 A 
ATOM     19  C   UNL     1       1.283   2.104   0.001  0.00  0.00    +0.022 A 
ATOM     20  C   UNL     1      -0.022   1.776   0.012  0.00  0.00    +0.048 A 
ATOM     21  S   UNL     1       0.002  -0.004   0.002  0.00  0.00    -0.081 S 
BRANCH  18  22
ATOM     22  C   UNL     1       3.680   1.263  -0.026  0.00  0.00    +0.244 C 
ATOM     23  O   UNL     1       4.456   0.326  -0.038  0.00  0.00    -0.270 OA
ATOM     24  N   UNL     1       4.149   2.527  -0.024  0.00  0.00    -0.325 N 
ATOM     25  H   UNL     1       3.531   3.274  -0.014  0.00  0.00    +0.145 HD
ATOM     26  H   UNL     1       5.106   2.688  -0.032  0.00  0.00    +0.145 HD
ENDBRANCH  18  22
ENDBRANCH  15  17
ENDBRANCH  12  13
ENDBRANCH  11  12
ENDBRANCH   5  11
BRANCH   2  27
ATOM     27  C   UNL     1       3.384 -10.192  -0.088  0.00  0.00    +0.305 C 
BRANCH  27  28
ATOM     28  O   UNL     1       3.421 -10.658  -1.438  0.00  0.00    -0.483 OA
BRANCH  28  29
ATOM     29  C   UNL     1       3.563 -11.997  -1.626  0.00  0.00    +0.139 A 
ATOM     30  C   UNL     1       3.671 -12.844  -0.532  0.00  0.00    +0.047 A 
ATOM     31  C   UNL     1       3.810 -14.204  -0.725  0.00  0.00    +0.004 A 
ATOM     32  C   UNL     1       3.853 -14.722  -2.007  0.00  0.00    +0.002 A 
ATOM     33  C   UNL     1       3.752 -13.880  -3.099  0.00  0.00    +0.023 A 
ATOM     34  C   UNL     1       3.607 -12.518  -2.911  0.00  0.00    +0.083 A 
ATOM     35 CL   UNL     1       3.480 -11.461  -4.283  0.00  0.00    -0.080 Cl
ENDBRANCH  28  29
ENDBRANCH  27  28
ENDBRANCH   2  27
TORSDOF 11
