REMARK  Name = ZINC16011443
REMARK  5 active torsions:
REMARK  status: ('A' for Active; 'I' for Inactive)
REMARK    1  A    between atoms: C_1  and  C_2
REMARK    2  A    between atoms: C_5  and  N_9
REMARK    3  A    between atoms: C_29  and  C_31
REMARK    4  A    between atoms: C_31  and  C_32
REMARK    5  A    between atoms: C_31  and  C_33
REMARK                            x       y       z     vdW  Elec       q    Type
REMARK                         _______ _______ _______ _____ _____    ______ ____
ROOT
ATOM      1  N   UNL     1      -0.282  -3.615  -0.363  0.00  0.00    -0.209 N 
ATOM      2  C   UNL     1      -1.305  -4.472  -0.265  0.00  0.00    +0.232 C 
ATOM      3  O   UNL     1      -2.477  -4.179  -0.364  0.00  0.00    -0.274 OA
ATOM      4  C   UNL     1      -0.771  -5.864  -0.015  0.00  0.00    +0.107 C 
ATOM      5  C   UNL     1       0.769  -5.660   0.003  0.00  0.00    +0.123 C 
ATOM      6  C   UNL     1       0.926  -4.174  -0.230  0.00  0.00    +0.233 C 
ATOM      7  O   UNL     1       1.982  -3.581  -0.284  0.00  0.00    -0.274 OA
ATOM      8  C   UNL     1       1.275  -6.437  -1.219  0.00  0.00    +0.136 C 
ATOM      9  C   UNL     1       1.793  -7.794  -0.834  0.00  0.00    +0.003 A 
ATOM     10  C   UNL     1       1.226  -8.886  -0.216  0.00  0.00    +0.008 A 
ATOM     11  C   UNL     1       1.979 -10.024   0.007  0.00  0.00    +0.000 A 
ATOM     12  C   UNL     1       3.303 -10.062  -0.391  0.00  0.00    +0.002 A 
ATOM     13  C   UNL     1       3.876  -8.971  -1.010  0.00  0.00    +0.023 A 
ATOM     14  C   UNL     1       3.124  -7.821  -1.240  0.00  0.00    +0.039 A 
ATOM     15  N   UNL     1       3.472  -6.609  -1.840  0.00  0.00    -0.283 N 
ATOM     16  C   UNL     1       2.441  -5.742  -1.867  0.00  0.00    +0.243 C 
ATOM     17  O   UNL     1       2.451  -4.619  -2.326  0.00  0.00    -0.273 OA
ATOM     18  N   UNL     1       0.127  -6.537  -2.139  0.00  0.00    -0.295 NA
ATOM     19  C   UNL     1      -1.056  -6.750  -1.246  0.00  0.00    +0.070 C 
ATOM     20  H   UNL     1       4.353  -6.413  -2.195  0.00  0.00    +0.155 HD
ATOM     21  H   UNL     1       0.016  -5.687  -2.672  0.00  0.00    +0.124 HD
ENDROOT
BRANCH   1  26
ATOM     22  C   UNL     1      -1.012   1.938  -1.289  0.00  0.00    +0.044 C 
ATOM     23  C   UNL     1      -0.818   0.464  -1.042  0.00  0.00    -0.049 A 
ATOM     24  C   UNL     1      -0.688  -0.403  -2.112  0.00  0.00    +0.005 A 
ATOM     25  C   UNL     1      -0.510  -1.755  -1.890  0.00  0.00    +0.025 A 
ATOM     26  C   UNL     1      -0.462  -2.243  -0.591  0.00  0.00    +0.058 A 
ATOM     27  C   UNL     1      -0.594  -1.370   0.481  0.00  0.00    +0.040 A 
ATOM     28  C   UNL     1      -0.765  -0.018   0.252  0.00  0.00    +0.020 A 
ATOM     29 BR   UNL     1      -0.530  -2.030   2.252  0.00  0.00    -0.048 Br
ENDBRANCH   1  26
BRANCH  19  30
ATOM     30  C   UNL     1      -2.358  -6.318  -1.923  0.00  0.00    +0.001 C 
ATOM     31  C   UNL     1      -2.546  -7.109  -3.219  0.00  0.00    +0.009 C 
ATOM     32  C   UNL     1      -3.535  -6.589  -0.985  0.00  0.00    +0.009 C 
ENDBRANCH  19  30
TORSDOF 2
