REMARK  Name = ZINC12898876
REMARK  10 active torsions:
REMARK  status: ('A' for Active; 'I' for Inactive)
REMARK    1  A    between atoms: C_1  and  C_2
REMARK    2  A    between atoms: C_2  and  C_38
REMARK    3  A    between atoms: C_9  and  C_21
REMARK    4  A    between atoms: C_17  and  C_19
REMARK    5  A    between atoms: C_17  and  C_20
REMARK    6  A    between atoms: N_23  and  C_24
REMARK    7  A    between atoms: C_24  and  C_25
REMARK    8  A    between atoms: N_27  and  C_28
REMARK    9  A    between atoms: C_31  and  S_34
REMARK   10  A    between atoms: S_34  and  N_37
REMARK                            x       y       z     vdW  Elec       q    Type
REMARK                         _______ _______ _______ _____ _____    ______ ____
ROOT
ATOM      1  C   UNL     1      -0.947   3.473   5.816  0.00  0.00    +0.245 C 
ATOM      2  O   UNL     1       0.054   2.799   5.930  0.00  0.00    -0.273 OA
ATOM      3  N   UNL     1      -1.212   4.444   6.713  0.00  0.00    -0.304 N 
ATOM      4  H   UNL     1      -2.013   4.983   6.622  0.00  0.00    +0.149 HD
ENDROOT
BRANCH   1  11
ATOM      5  C   UNL     1      -2.561   4.674   0.297  0.00  0.00    +0.074 C 
ATOM      6  C   UNL     1      -2.379   5.250   1.703  0.00  0.00    +0.166 C 
ATOM      7  O   UNL     1      -0.988   5.509   1.942  0.00  0.00    -0.341 OA
ATOM      8  C   UNL     1      -0.589   4.676   3.062  0.00  0.00    +0.187 C 
ATOM      9  C   UNL     1      -1.932   4.449   3.779  0.00  0.00    +0.191 C 
ATOM     10  O   UNL     1      -2.848   4.300   2.680  0.00  0.00    -0.340 OA
ATOM     11  C   UNL     1      -1.896   3.226   4.671  0.00  0.00    +0.238 C 
ATOM     12  O   UNL     1      -1.461   2.085   3.938  0.00  0.00    -0.333 OA
ATOM     13  C   UNL     1      -0.122   2.188   3.439  0.00  0.00    +0.286 C 
ATOM     14  C   UNL     1      -0.017   3.395   2.492  0.00  0.00    +0.209 C 
ATOM     15  O   UNL     1      -0.702   2.963   1.309  0.00  0.00    -0.338 OA
ATOM     16  C   UNL     1      -0.664   1.526   1.317  0.00  0.00    +0.168 C 
ATOM     17  O   UNL     1       0.041   1.091   2.495  0.00  0.00    -0.318 OA
ATOM     18  C   UNL     1       0.062   1.023   0.068  0.00  0.00    +0.074 C 
ATOM     19  C   UNL     1      -2.092   0.976   1.339  0.00  0.00    +0.074 C 
ATOM     20  C   UNL     1      -3.172   6.552   1.831  0.00  0.00    +0.074 C 
ENDBRANCH   1  11
BRANCH   3  21
ATOM     21  C   UNL     1      -0.290   4.684   7.825  0.00  0.00    +0.200 C 
BRANCH  21  22
ATOM     22  C   UNL     1      -0.812   5.813   8.676  0.00  0.00    +0.234 C 
ATOM     23  O   UNL     1      -1.852   6.363   8.381  0.00  0.00    -0.274 OA
ATOM     24  N   UNL     1      -0.123   6.212   9.763  0.00  0.00    -0.284 N 
ATOM     25  H   UNL     1       0.746   5.826   9.956  0.00  0.00    +0.155 HD
BRANCH  24  26
ATOM     26  C   UNL     1      -0.661   7.183  10.615  0.00  0.00    +0.034 A 
ATOM     27  C   UNL     1       0.174   8.096  11.245  0.00  0.00    +0.025 A 
ATOM     28  C   UNL     1      -0.361   9.057  12.081  0.00  0.00    +0.030 A 
ATOM     29  C   UNL     1      -1.725   9.103  12.300  0.00  0.00    +0.105 A 
ATOM     30  C   UNL     1      -2.559   8.192  11.678  0.00  0.00    +0.030 A 
ATOM     31  C   UNL     1      -2.031   7.232  10.836  0.00  0.00    +0.025 A 
BRANCH  29  32
ATOM     32  S   UNL     1      -2.403  10.325  13.372  0.00  0.00    +0.056 S 
ATOM     33  O   UNL     1      -1.473  11.400  13.402  0.00  0.00    -0.153 OA
ATOM     34  O   UNL     1      -3.758  10.501  12.983  0.00  0.00    -0.153 OA
BRANCH  32  35
ATOM     35  N   UNL     1      -2.428   9.679  14.897  0.00  0.00    -0.204 NA
ATOM     36  H   UNL     1      -2.340  10.258  15.670  0.00  0.00    +0.144 HD
ATOM     37  H   UNL     1      -2.532   8.722  15.016  0.00  0.00    +0.144 HD
ENDBRANCH  32  35
ENDBRANCH  29  32
ENDBRANCH  24  26
ENDBRANCH  21  22
ENDBRANCH   3  21
TORSDOF 6
