REMARK  Name = ZINC21256598
REMARK  10 active torsions:
REMARK  status: ('A' for Active; 'I' for Inactive)
REMARK    1  A    between atoms: C_1  and  C_2
REMARK    2  A    between atoms: C_2  and  O_3
REMARK    3  A    between atoms: O_3  and  C_4
REMARK    4  A    between atoms: C_7  and  C_11
REMARK    5  A    between atoms: C_16  and  C_21
REMARK    6  A    between atoms: C_24  and  O_27
REMARK    7  A    between atoms: O_27  and  C_28
REMARK    8  A    between atoms: C_28  and  C_29
REMARK    9  A    between atoms: C_29  and  C_30
REMARK   10  A    between atoms: C_29  and  C_31
REMARK                            x       y       z     vdW  Elec       q    Type
REMARK                         _______ _______ _______ _____ _____    ______ ____
ROOT
ATOM      1  C   UNL     1       1.213   2.152   0.002  0.00  0.00    +0.136 C 
ATOM      2  C   UNL     1       2.004   1.883  -1.257  0.00  0.00    +0.036 C 
ATOM      3  C   UNL     1       1.739   0.930  -2.165  0.00  0.00    +0.017 C 
ATOM      4  C   UNL     1       2.652   0.742  -3.367  0.00  0.00    +0.059 C 
ATOM      5  C   UNL     1       3.215   2.093  -3.805  0.00  0.00    +0.032 C 
ATOM      6  C   UNL     1       4.009   2.671  -2.628  0.00  0.00    +0.088 C 
ATOM      7  C   UNL     1       3.107   2.750  -1.433  0.00  0.00    +0.163 C 
ATOM      8  O   UNL     1       3.333   3.590  -0.584  0.00  0.00    -0.292 OA
ATOM      9  N   UNL     1       0.693   0.066  -2.112  0.00  0.00    -0.316 N 
ATOM     10  C   UNL     1       0.318  -0.656  -0.982  0.00  0.00    +0.052 A 
ATOM     11  C   UNL     1       0.339  -2.038  -0.947  0.00  0.00    +0.025 A 
ATOM     12  C   UNL     1      -0.122  -2.695   0.182  0.00  0.00    +0.002 A 
ATOM     13  C   UNL     1      -0.597  -1.973   1.262  0.00  0.00    +0.002 A 
ATOM     14  C   UNL     1      -0.597  -0.589   1.236  0.00  0.00    +0.025 A 
ATOM     15  C   UNL     1      -0.120   0.072   0.114  0.00  0.00    +0.049 A 
ATOM     16  N   UNL     1      -0.058   1.462   0.065  0.00  0.00    -0.331 N 
ATOM     17  H   UNL     1       0.073  -0.103  -3.005  0.00  0.00    +0.152 HD
ATOM     18  H   UNL     1      -0.996   2.037   0.074  0.00  0.00    +0.147 HD
ENDROOT
BRANCH   1  22
ATOM     19  C   UNL     1       3.570   0.966   3.364  0.00  0.00    +0.139 A 
ATOM     20  C   UNL     1       3.126   0.015   2.457  0.00  0.00    +0.047 A 
ATOM     21  C   UNL     1       2.364   0.401   1.371  0.00  0.00    +0.009 A 
ATOM     22  C   UNL     1       2.043   1.734   1.188  0.00  0.00    -0.021 A 
ATOM     23  C   UNL     1       2.489   2.684   2.087  0.00  0.00    +0.029 A 
ATOM     24  C   UNL     1       3.247   2.303   3.179  0.00  0.00    +0.083 A 
ATOM     25 CL   UNL     1       3.801   3.495   4.312  0.00  0.00    -0.080 Cl
BRANCH  19  26
ATOM     26  O   UNL     1       4.320   0.588   4.433  0.00  0.00    -0.491 OA
BRANCH  26  28
ATOM     27  C   UNL     1       5.462  -1.035   5.812  0.00  0.00    +0.048 C 
ATOM     28  C   UNL     1       4.614  -0.805   4.560  0.00  0.00    +0.226 C 
ENDBRANCH  26  28
ENDBRANCH  19  26
ENDBRANCH   1  22
BRANCH   5  29
ATOM     29  C   UNL     1       4.124   1.907  -4.993  0.00  0.00    -0.043 A 
ATOM     30  C   UNL     1       5.226   1.078  -4.895  0.00  0.00    +0.007 A 
ATOM     31  C   UNL     1       6.058   0.901  -5.983  0.00  0.00    +0.046 A 
ATOM     32  C   UNL     1       5.792   1.565  -7.173  0.00  0.00    +0.121 A 
ATOM     33  C   UNL     1       4.688   2.400  -7.267  0.00  0.00    +0.046 A 
ATOM     34  C   UNL     1       3.857   2.569  -6.177  0.00  0.00    +0.007 A 
BRANCH  32  35
ATOM     35  O   UNL     1       6.612   1.396  -8.244  0.00  0.00    -0.492 OA
BRANCH  35  36
ATOM     36  C   UNL     1       7.729   0.521  -8.074  0.00  0.00    +0.232 C 
BRANCH  36  37
ATOM     37  C   UNL     1       8.529   0.458  -9.377  0.00  0.00    +0.020 C 
ATOM     38  C   UNL     1       9.792  -0.378  -9.160  0.00  0.00    +0.010 C 
ATOM     39  C   UNL     1       7.674  -0.185 -10.470  0.00  0.00    +0.010 C 
ENDBRANCH  36  37
ENDBRANCH  35  36
ENDBRANCH  32  35
ENDBRANCH   5  29
TORSDOF 7
