REMARK  Name = ZINC39532540
REMARK  12 active torsions:
REMARK  status: ('A' for Active; 'I' for Inactive)
REMARK    1  A    between atoms: C_1  and  C_2
REMARK    2  A    between atoms: C_2  and  C_3
REMARK    3  A    between atoms: C_6  and  C_9
REMARK    4  A    between atoms: C_9  and  C_11
REMARK    5  A    between atoms: C_9  and  N_20
REMARK    6  A    between atoms: C_11  and  N_12
REMARK    7  A    between atoms: N_12  and  C_13
REMARK    8  A    between atoms: C_13  and  C_14
REMARK    9  A    between atoms: C_24  and  S_27
REMARK   10  A    between atoms: S_27  and  C_30
REMARK   11  A    between atoms: C_30  and  C_31
REMARK   12  A    between atoms: C_30  and  C_32
REMARK                            x       y       z     vdW  Elec       q    Type
REMARK                         _______ _______ _______ _____ _____    ______ ____
ROOT
ATOM      1  C   UNL     1       2.878  -1.723  -3.926  0.00  0.00    +0.070 C 
ENDROOT
BRANCH   1   2
ATOM      2  N   UNL     1       4.081  -0.960  -4.283  0.00  0.00    -0.293 NA
ATOM      3  C   UNL     1       5.060  -0.977  -3.188  0.00  0.00    +0.100 C 
ATOM      4  C   UNL     1       6.328  -0.240  -3.628  0.00  0.00    +0.098 C 
ATOM      5  N   UNL     1       5.985   1.139  -4.002  0.00  0.00    -0.293 NA
ATOM      6  C   UNL     1       5.005   1.156  -5.098  0.00  0.00    +0.212 C 
ATOM      7  C   UNL     1       3.738   0.420  -4.657  0.00  0.00    +0.127 C 
ATOM      8  H   UNL     1       5.645   1.655  -3.205  0.00  0.00    +0.124 HD
BRANCH   6   9
ATOM      9  S   UNL     1       4.594   2.873  -5.514  0.00  0.00    -0.012 S 
ATOM     10  O   UNL     1       3.735   2.868  -6.647  0.00  0.00    -0.173 OA
ATOM     11  O   UNL     1       4.171   3.534  -4.330  0.00  0.00    -0.173 OA
BRANCH   9  12
ATOM     12  C   UNL     1       6.197   3.559  -6.013  0.00  0.00    +0.126 C 
ATOM     13  C   UNL     1       6.689   2.844  -7.273  0.00  0.00    +0.031 C 
ATOM     14  C   UNL     1       6.044   5.054  -6.303  0.00  0.00    +0.031 C 
ENDBRANCH   9  12
ENDBRANCH   6   9
ENDBRANCH   1   2
BRANCH   1  18
ATOM     15  C   UNL     1       1.463  -0.447  -0.103  0.00  0.00    -0.048 A 
ATOM     16  C   UNL     1       0.793  -0.066  -1.250  0.00  0.00    +0.004 A 
ATOM     17  C   UNL     1       1.251  -0.479  -2.487  0.00  0.00    +0.005 A 
ATOM     18  C   UNL     1       2.379  -1.272  -2.577  0.00  0.00    -0.032 A 
ATOM     19  C   UNL     1       3.050  -1.653  -1.430  0.00  0.00    +0.005 A 
ATOM     20  C   UNL     1       2.594  -1.237  -0.193  0.00  0.00    +0.004 A 
BRANCH  15  22
ATOM     21  C   UNL     1       1.613   1.339   1.611  0.00  0.00    +0.009 C 
ATOM     22  C   UNL     1       0.963   0.002   1.246  0.00  0.00    +0.032 C 
ENDBRANCH  15  22
ENDBRANCH   1  18
BRANCH   1  23
ATOM     23  C   UNL     1       3.217  -3.214  -3.872  0.00  0.00    -0.058 C 
BRANCH  23  24
ATOM     24  N   UNL     1       3.815  -3.627  -5.149  0.00  0.00    +0.383 N 
ATOM     25  H   UNL     1       3.160  -3.458  -5.897  0.00  0.00    -0.085 HD
ATOM     26  H   UNL     1       4.657  -3.096  -5.313  0.00  0.00    -0.085 HD
BRANCH  24  27
ATOM     27  C   UNL     1       4.141  -5.058  -5.097  0.00  0.00    -0.047 C 
BRANCH  27  28
ATOM     28  C   UNL     1       4.754  -5.481  -6.407  0.00  0.00    -0.064 A 
ATOM     29  C   UNL     1       3.947  -5.933  -7.434  0.00  0.00    +0.002 A 
ATOM     30  C   UNL     1       4.509  -6.321  -8.636  0.00  0.00    +0.000 A 
ATOM     31  C   UNL     1       5.879  -6.257  -8.810  0.00  0.00    +0.000 A 
ATOM     32  C   UNL     1       6.686  -5.805  -7.784  0.00  0.00    +0.000 A 
ATOM     33  C   UNL     1       6.123  -5.412  -6.583  0.00  0.00    +0.002 A 
ENDBRANCH  27  28
ENDBRANCH  24  27
ENDBRANCH  23  24
ENDBRANCH   1  23
TORSDOF 9
