REMARK  Name = ZINC59384683
REMARK  6 active torsions:
REMARK  status: ('A' for Active; 'I' for Inactive)
REMARK    1  A    between atoms: C_1  and  C_2
REMARK    2  A    between atoms: C_3  and  C_19
REMARK    3  A    between atoms: C_4  and  C_10
REMARK    4  A    between atoms: C_14  and  N_16
REMARK    5  A    between atoms: N_21  and  N_22
REMARK    6  A    between atoms: C_23  and  C_24
REMARK                            x       y       z     vdW  Elec       q    Type
REMARK                         _______ _______ _______ _____ _____    ______ ____
ROOT
ATOM      1  C   UNL     1       0.658   1.366   0.081  0.00  0.00    +0.061 C 
ATOM      2  C   UNL     1       0.360  -0.111   0.045  0.00  0.00    +0.017 C 
ATOM      3  C   UNL     1      -0.922  -0.528  -0.024  0.00  0.00    +0.057 C 
ATOM      4  C   UNL     1      -1.176  -2.022  -0.058  0.00  0.00    +0.139 C 
ATOM      5  N   UNL     1       0.004  -2.901  -0.013  0.00  0.00    -0.315 N 
ATOM      6  C   UNL     1       1.225  -2.333   0.055  0.00  0.00    +0.135 C 
ATOM      7  S   UNL     1       2.606  -3.343   0.108  0.00  0.00    -0.019 S 
ATOM      8  N   UNL     1       1.392  -1.005   0.077  0.00  0.00    -0.300 N 
ATOM      9  H   UNL     1      -0.094  -3.866  -0.031  0.00  0.00    +0.149 HD
ATOM     10  H   UNL     1       2.297  -0.658   0.122  0.00  0.00    +0.154 HD
ENDROOT
BRANCH   4  11
ATOM     11  C   UNL     1      -1.939  -2.334  -1.319  0.00  0.00    -0.020 A 
ATOM     12  C   UNL     1      -1.292  -2.318  -2.541  0.00  0.00    +0.006 A 
ATOM     13  C   UNL     1      -1.992  -2.604  -3.698  0.00  0.00    +0.003 A 
ATOM     14  C   UNL     1      -3.339  -2.908  -3.634  0.00  0.00    +0.033 A 
ATOM     15  C   UNL     1      -3.986  -2.925  -2.412  0.00  0.00    +0.127 A 
ATOM     16  C   UNL     1      -3.285  -2.643  -1.255  0.00  0.00    +0.038 A 
BRANCH  15  17
ATOM     17  N   UNL     1      -5.429  -3.249  -2.343  0.00  0.00    +0.056 N 
ATOM     18  O   UNL     1      -6.041  -3.499  -3.356  0.00  0.00    -0.126 OA
ATOM     19  O   UNL     1      -5.995  -3.264  -1.275  0.00  0.00    -0.126 OA
ENDBRANCH  15  17
ENDBRANCH   4  11
BRANCH   3  20
ATOM     20  C   UNL     1      -1.992   0.398  -0.063  0.00  0.00    +0.263 C 
ATOM     21  O   UNL     1      -2.657   0.603   0.937  0.00  0.00    -0.269 OA
ATOM     22  N   UNL     1      -2.275   1.053  -1.206  0.00  0.00    -0.203 N 
ATOM     23  H   UNL     1      -1.795   0.837  -2.021  0.00  0.00    +0.178 HD
BRANCH  22  24
ATOM     24  N   UNL     1      -3.263   2.046  -1.218  0.00  0.00    -0.187 NA
ATOM     25  C   UNL     1      -3.536   2.677  -2.319  0.00  0.00    +0.141 C 
BRANCH  25  26
ATOM     26  C   UNL     1      -4.576   3.722  -2.331  0.00  0.00    +0.030 A 
ATOM     27  C   UNL     1      -4.876   4.400  -3.516  0.00  0.00    +0.012 A 
ATOM     28  C   UNL     1      -5.850   5.376  -3.520  0.00  0.00    +0.001 A 
ATOM     29  C   UNL     1      -6.530   5.687  -2.356  0.00  0.00    +0.003 A 
ATOM     30  C   UNL     1      -6.240   5.022  -1.178  0.00  0.00    +0.039 A 
ATOM     31  C   UNL     1      -5.271   4.037  -1.159  0.00  0.00    +0.132 A 
ATOM     32  F   UNL     1      -4.992   3.384  -0.010  0.00  0.00    -0.205 F 
ENDBRANCH  25  26
ENDBRANCH  22  24
ENDBRANCH   3  20
TORSDOF 5
