REMARK  Name = ZINC07990043
REMARK  8 active torsions:
REMARK  status: ('A' for Active; 'I' for Inactive)
REMARK    1  A    between atoms: C_1  and  N_50
REMARK    2  A    between atoms: C_2  and  N_50
REMARK    3  A    between atoms: C_3  and  C_9
REMARK    4  A    between atoms: C_3  and  N_50
REMARK    5  A    between atoms: C_9  and  N_10
REMARK    6  A    between atoms: C_11  and  C_13
REMARK    7  A    between atoms: C_13  and  N_14
REMARK    8  A    between atoms: C_15  and  C_17
REMARK                            x       y       z     vdW  Elec       q    Type
REMARK                         _______ _______ _______ _____ _____    ______ ____
ROOT
ATOM      1  N   UNL     1       0.579  -0.847  -1.298  0.00  0.00    -0.315 N 
ATOM      2  C   UNL     1       1.895  -0.767  -1.575  0.00  0.00    +0.230 C 
ATOM      3  O   UNL     1       2.637  -0.163  -0.830  0.00  0.00    -0.274 OA
ATOM      4  H   UNL     1      -0.013  -1.334  -1.892  0.00  0.00    +0.149 HD
ENDROOT
BRANCH   1   5
ATOM      5  C   UNL     1       0.044  -0.204  -0.095  0.00  0.00    +0.092 C 
BRANCH   5   6
ATOM      6  C   UNL     1      -1.470  -0.416  -0.034  0.00  0.00    -0.050 C 
ATOM      7  C   UNL     1      -2.048   0.365   1.147  0.00  0.00    -0.010 C 
ATOM      8  C   UNL     1      -1.410  -0.130   2.447  0.00  0.00    -0.001 C 
ATOM      9  C   UNL     1      -1.709  -1.620   2.627  0.00  0.00    -0.000 C 
ATOM     10  C   UNL     1      -1.131  -2.401   1.445  0.00  0.00    -0.001 C 
ATOM     11  C   UNL     1      -1.769  -1.906   0.145  0.00  0.00    -0.010 C 
BRANCH   6  14
ATOM     12  C   UNL     1      -3.524  -0.223  -1.302  0.00  0.00    -0.096 C 
ATOM     13  C   UNL     1      -1.823   1.491  -1.484  0.00  0.00    -0.096 C 
ATOM     14  N   UNL     1      -2.070   0.045  -1.304  0.00  0.00    +0.381 N 
ATOM     15  H   UNL     1      -1.638  -0.467  -2.082  0.00  0.00    -0.082 HD
ENDBRANCH   6  14
ENDBRANCH   5   6
ENDBRANCH   1   5
BRANCH   2  16
ATOM     16  C   UNL     1       2.446  -1.429  -2.812  0.00  0.00    +0.200 C 
BRANCH  16  17
ATOM     17  N   UNL     1       3.891  -1.198  -2.887  0.00  0.00    -0.303 N 
ATOM     18  C   UNL     1       4.601  -1.701  -3.917  0.00  0.00    +0.246 C 
ATOM     19  O   UNL     1       4.043  -2.345  -4.783  0.00  0.00    -0.270 OA
ATOM     20  H   UNL     1       4.337  -0.684  -2.196  0.00  0.00    +0.150 HD
BRANCH  18  21
ATOM     21  C   UNL     1       6.059  -1.469  -3.992  0.00  0.00    +0.051 A 
ATOM     22  C   UNL     1       6.702  -0.724  -3.002  0.00  0.00    +0.014 A 
ATOM     23  C   UNL     1       8.063  -0.515  -3.076  0.00  0.00    +0.001 A 
ATOM     24  C   UNL     1       8.790  -1.032  -4.134  0.00  0.00    +0.001 A 
ATOM     25  C   UNL     1       8.159  -1.766  -5.122  0.00  0.00    +0.016 A 
ATOM     26  C   UNL     1       6.798  -1.988  -5.058  0.00  0.00    +0.030 A 
ATOM     27 BR   UNL     1       5.936  -2.991  -6.409  0.00  0.00    -0.050 Br
ENDBRANCH  18  21
ENDBRANCH  16  17
ENDBRANCH   2  16
TORSDOF 6
