REMARK  Name = ZINC64202137
REMARK  11 active torsions:
REMARK  status: ('A' for Active; 'I' for Inactive)
REMARK    1  A    between atoms: C_1  and  C_2
REMARK    2  A    between atoms: C_2  and  C_3
REMARK    3  A    between atoms: C_3  and  C_4
REMARK    4  A    between atoms: C_4  and  C_6
REMARK    5  A    between atoms: C_4  and  N_7
REMARK    6  A    between atoms: C_8  and  C_10
REMARK    7  A    between atoms: C_10  and  C_12
REMARK    8  A    between atoms: C_10  and  N_22
REMARK    9  A    between atoms: C_12  and  C_13
REMARK   10  A    between atoms: N_22  and  S_23
REMARK   11  A    between atoms: S_23  and  C_26
REMARK                            x       y       z     vdW  Elec       q    Type
REMARK                         _______ _______ _______ _____ _____    ______ ____
ROOT
ATOM      1  C   UNL     1      -2.345  -4.283  -1.025  0.00  0.00    +0.166 C 
ENDROOT
BRANCH   1   3
ATOM      2  N   UNL     1      -0.631  -2.534  -1.375  0.00  0.00    -0.311 N 
ATOM      3  C   UNL     1      -0.935  -3.763  -0.912  0.00  0.00    +0.232 C 
ATOM      4  O   UNL     1      -0.074  -4.449  -0.404  0.00  0.00    -0.274 OA
ATOM      5  H   UNL     1      -1.320  -1.985  -1.781  0.00  0.00    +0.149 HD
BRANCH   2   6
ATOM      6  C   UNL     1       0.739  -2.027  -1.265  0.00  0.00    +0.070 C 
ATOM      7  C   UNL     1       1.562  -2.520  -2.457  0.00  0.00    +0.028 C 
BRANCH   6   8
ATOM      8  C   UNL     1       0.718  -0.497  -1.257  0.00  0.00    +0.022 C 
BRANCH   8  10
ATOM      9  C   UNL     1      -0.019   1.526   0.010  0.00  0.00    +0.004 C 
ATOM     10  C   UNL     1       0.002  -0.004   0.002  0.00  0.00    -0.002 C 
ENDBRANCH   8  10
ENDBRANCH   6   8
ENDBRANCH   2   6
ENDBRANCH   1   3
BRANCH   1  11
ATOM     11  N   UNL     1      -2.415  -5.631  -0.454  0.00  0.00    -0.178 NA
ATOM     12  H   UNL     1      -2.186  -6.400  -0.998  0.00  0.00    +0.149 HD
BRANCH  11  13
ATOM     13  S   UNL     1      -2.885  -5.839   1.120  0.00  0.00    +0.059 S 
ATOM     14  O   UNL     1      -2.878  -7.239   1.364  0.00  0.00    -0.153 OA
ATOM     15  O   UNL     1      -2.121  -4.927   1.896  0.00  0.00    -0.153 OA
BRANCH  13  16
ATOM     16  C   UNL     1      -4.564  -5.316   1.236  0.00  0.00    +0.105 A 
ATOM     17  C   UNL     1      -4.858  -3.998   1.532  0.00  0.00    +0.030 A 
ATOM     18  C   UNL     1      -6.174  -3.587   1.623  0.00  0.00    +0.022 A 
ATOM     19  C   UNL     1      -7.198  -4.495   1.417  0.00  0.00    +0.041 A 
ATOM     20  C   UNL     1      -6.903  -5.814   1.121  0.00  0.00    +0.022 A 
ATOM     21  C   UNL     1      -5.586  -6.223   1.025  0.00  0.00    +0.030 A 
ATOM     22 CL   UNL     1      -8.852  -3.980   1.532  0.00  0.00    -0.084 Cl
ENDBRANCH  13  16
ENDBRANCH  11  13
ENDBRANCH   1  11
BRANCH   1  23
ATOM     23  C   UNL     1      -2.753  -4.332  -2.499  0.00  0.00    +0.063 C 
BRANCH  23  24
ATOM     24  C   UNL     1      -4.202  -4.736  -2.605  0.00  0.00    -0.040 C 
ATOM     25  C   UNL     1      -5.269  -3.912  -2.715  0.00  0.00    -0.001 A 
ATOM     26  C   UNL     1      -5.396  -2.451  -2.766  0.00  0.00    +0.010 A 
ATOM     27  C   UNL     1      -6.628  -1.903  -2.881  0.00  0.00    +0.001 A 
ATOM     28  C   UNL     1      -7.782  -2.695  -2.953  0.00  0.00    +0.002 A 
ATOM     29  C   UNL     1      -7.746  -4.043  -2.913  0.00  0.00    +0.026 A 
ATOM     30  C   UNL     1      -6.503  -4.725  -2.793  0.00  0.00    +0.043 A 
ATOM     31  N   UNL     1      -6.211  -6.002  -2.734  0.00  0.00    -0.380 N 
ATOM     32  C   UNL     1      -4.755  -6.143  -2.617  0.00  0.00    +0.144 C 
ATOM     33  H   UNL     1      -6.849  -6.731  -2.765  0.00  0.00    +0.160 HD
ENDBRANCH  23  24
ENDBRANCH   1  23
TORSDOF 9
