REMARK  Name = ZINC33403655
REMARK  10 active torsions:
REMARK  status: ('A' for Active; 'I' for Inactive)
REMARK    1  A    between atoms: C_1  and  C_2
REMARK    2  A    between atoms: C_2  and  C_3
REMARK    3  A    between atoms: C_7  and  C_40
REMARK    4  A    between atoms: C_8  and  N_9
REMARK    5  A    between atoms: C_14  and  C_26
REMARK    6  A    between atoms: C_17  and  C_22
REMARK    7  A    between atoms: C_17  and  C_23
REMARK    8  A    between atoms: C_29  and  C_32
REMARK    9  A    between atoms: C_33  and  C_34
REMARK   10  A    between atoms: C_40  and  C_41
REMARK                            x       y       z     vdW  Elec       q    Type
REMARK                         _______ _______ _______ _____ _____    ______ ____
ROOT
ATOM      1  N   UNL     1       3.374  -0.854  -0.559  0.00  0.00    -0.209 N 
ATOM      2  C   UNL     1       4.213  -1.194  -1.583  0.00  0.00    +0.229 C 
ATOM      3  O   UNL     1       4.137  -0.830  -2.737  0.00  0.00    -0.275 OA
ATOM      4  C   UNL     1       5.243  -2.104  -0.995  0.00  0.00    +0.077 C 
ATOM      5  C   UNL     1       6.712  -1.980  -1.361  0.00  0.00    -0.027 C 
ATOM      6  N   UNL     1       7.463  -2.090  -0.075  0.00  0.00    +0.395 N 
ATOM      7  C   UNL     1       6.461  -2.092   1.046  0.00  0.00    +0.045 C 
ATOM      8  C   UNL     1       5.280  -1.457   0.438  0.00  0.00    +0.086 C 
ATOM      9  C   UNL     1       3.897  -1.148   0.676  0.00  0.00    +0.229 C 
ATOM     10  O   UNL     1       3.317  -1.148   1.740  0.00  0.00    -0.275 OA
ATOM     11  C   UNL     1       6.128  -3.523   1.473  0.00  0.00    +0.002 C 
ATOM     12  H   UNL     1       8.045  -3.023  -0.068  0.00  0.00    -0.083 HD
ATOM     13  H   UNL     1       8.145  -1.232   0.026  0.00  0.00    -0.083 HD
ENDROOT
BRANCH   1  19
ATOM     14  C   UNL     1       0.989  -1.061  -0.894  0.00  0.00    -0.026 A 
ATOM     15  C   UNL     1      -0.248  -0.477  -1.081  0.00  0.00    +0.005 A 
ATOM     16  C   UNL     1      -0.365   0.900  -1.125  0.00  0.00    +0.001 A 
ATOM     17  C   UNL     1       0.756   1.697  -0.981  0.00  0.00    +0.005 A 
ATOM     18  C   UNL     1       1.996   1.118  -0.793  0.00  0.00    -0.026 A 
ATOM     19  C   UNL     1       2.117  -0.264  -0.749  0.00  0.00    +0.050 A 
BRANCH  14  21
ATOM     20  C   UNL     1       1.079  -3.032   0.609  0.00  0.00    +0.009 C 
ATOM     21  C   UNL     1       1.115  -2.562  -0.847  0.00  0.00    +0.033 C 
ENDBRANCH  14  21
BRANCH  18  22
ATOM     22  C   UNL     1       3.218   1.987  -0.635  0.00  0.00    +0.033 C 
ATOM     23  C   UNL     1       3.906   2.151  -1.992  0.00  0.00    +0.009 C 
ENDBRANCH  18  22
ENDBRANCH   1  19
BRANCH   5  24
ATOM     24  C   UNL     1       6.976  -0.644  -2.005  0.00  0.00    -0.061 A 
ATOM     25  C   UNL     1       6.981  -0.533  -3.385  0.00  0.00    +0.002 A 
ATOM     26  C   UNL     1       7.218   0.687  -3.981  0.00  0.00    +0.008 A 
ATOM     27  C   UNL     1       7.463   1.812  -3.189  0.00  0.00    -0.025 A 
ATOM     28  C   UNL     1       7.461   1.692  -1.797  0.00  0.00    +0.008 A 
ATOM     29  C   UNL     1       7.218   0.466  -1.215  0.00  0.00    +0.002 A 
BRANCH  27  30
ATOM     30  C   UNL     1       7.722   3.119  -3.820  0.00  0.00    +0.008 C 
ATOM     31  C   UNL     1       7.723   3.231  -5.157  0.00  0.00    +0.008 C 
BRANCH  31  32
ATOM     32  C   UNL     1       7.982   4.538  -5.788  0.00  0.00    -0.025 A 
ATOM     33  C   UNL     1       8.222   5.664  -4.996  0.00  0.00    +0.008 A 
ATOM     34  C   UNL     1       8.467   6.883  -5.593  0.00  0.00    +0.001 A 
ATOM     35  C   UNL     1       8.468   6.994  -6.972  0.00  0.00    +0.000 A 
ATOM     36  C   UNL     1       8.227   5.884  -7.762  0.00  0.00    +0.001 A 
ATOM     37  C   UNL     1       7.984   4.658  -7.180  0.00  0.00    +0.008 A 
ENDBRANCH  31  32
ENDBRANCH  27  30
ENDBRANCH   5  24
BRANCH   7  38
ATOM     38  C   UNL     1       6.967  -1.291   2.218  0.00  0.00    +0.346 C 
ATOM     39  O   UNL     1       6.198  -0.631   2.875  0.00  0.00    -0.248 OA
ATOM     40  O   UNL     1       8.272  -1.312   2.531  0.00  0.00    -0.248 OA
ENDBRANCH   7  38
TORSDOF 7
