REMARK  Name = ZINC39966740
REMARK  11 active torsions:
REMARK  status: ('A' for Active; 'I' for Inactive)
REMARK    1  A    between atoms: C_1  and  C_2
REMARK    2  A    between atoms: C_2  and  C_3
REMARK    3  A    between atoms: C_4  and  C_34
REMARK    4  A    between atoms: C_6  and  N_11
REMARK    5  A    between atoms: C_7  and  C_8
REMARK    6  A    between atoms: C_12  and  C_14
REMARK    7  A    between atoms: C_14  and  S_15
REMARK    8  A    between atoms: S_15  and  C_16
REMARK    9  A    between atoms: C_19  and  C_24
REMARK   10  A    between atoms: N_20  and  C_21
REMARK   11  A    between atoms: C_21  and  C_22
REMARK                            x       y       z     vdW  Elec       q    Type
REMARK                         _______ _______ _______ _____ _____    ______ ____
ROOT
ATOM      1  S   UNL     1      -8.082  -3.033  -2.075  0.00  0.00    -0.077 S 
ENDROOT
BRANCH   1   2
ATOM      2  C   UNL     1      -9.118  -3.377  -3.458  0.00  0.00    +0.193 A 
ATOM      3  N   UNL     1      -8.807  -3.219  -4.723  0.00  0.00    -0.122 NA
ATOM      4  N   UNL     1      -9.795  -3.566  -5.468  0.00  0.00    -0.128 NA
ATOM      5  C   UNL     1     -10.799  -3.967  -4.724  0.00  0.00    +0.166 A 
ATOM      6  N   UNL     1     -10.396  -3.865  -3.413  0.00  0.00    -0.298 N 
BRANCH   5   7
ATOM      7  C   UNL     1     -12.113  -4.445  -5.204  0.00  0.00    +0.030 A 
ATOM      8  C   UNL     1     -12.648  -5.597  -4.705  0.00  0.00    +0.057 A 
ATOM      9  S   UNL     1     -14.191  -5.701  -5.598  0.00  0.00    -0.101 S 
ATOM     10  C   UNL     1     -14.021  -4.217  -6.556  0.00  0.00    -0.006 A 
ATOM     11  C   UNL     1     -12.823  -3.710  -6.175  0.00  0.00    -0.026 A 
ATOM     12  C   UNL     1     -12.260  -2.425  -6.775  0.00  0.00    +0.036 C 
ATOM     13  C   UNL     1     -13.398  -1.535  -7.259  0.00  0.00    +0.005 C 
ATOM     14  C   UNL     1     -13.752  -1.851  -8.711  0.00  0.00    +0.001 C 
ATOM     15  C   UNL     1     -14.250  -3.288  -8.828  0.00  0.00    +0.005 C 
ATOM     16  C   UNL     1     -14.991  -3.653  -7.543  0.00  0.00    +0.043 C 
ENDBRANCH   5   7
BRANCH   6  17
ATOM     17  C   UNL     1     -11.172  -4.203  -2.218  0.00  0.00    +0.152 C 
BRANCH  17  18
ATOM     18  C   UNL     1     -12.038  -3.031  -1.833  0.00  0.00    -0.013 C 
ATOM     19  C   UNL     1     -13.332  -3.188  -1.699  0.00  0.00    +0.005 C 
ENDBRANCH  17  18
ENDBRANCH   6  17
ENDBRANCH   1   2
BRANCH   1  20
ATOM     20  C   UNL     1      -6.545  -2.421  -2.821  0.00  0.00    +0.173 C 
BRANCH  20  22
ATOM     21  N   UNL     1      -4.338  -1.609  -2.053  0.00  0.00    -0.279 N 
ATOM     22  C   UNL     1      -5.558  -2.085  -1.733  0.00  0.00    +0.228 C 
ATOM     23  O   UNL     1      -5.861  -2.242  -0.569  0.00  0.00    -0.275 OA
ATOM     24  H   UNL     1      -4.096  -1.484  -2.983  0.00  0.00    +0.155 HD
BRANCH  21  28
ATOM     25  C   UNL     1      -1.404  -0.568   0.028  0.00  0.00    -0.024 A 
ATOM     26  C   UNL     1      -2.053  -0.856   1.171  0.00  0.00    -0.008 A 
ATOM     27  S   UNL     1      -3.637  -1.439   0.608  0.00  0.00    -0.078 S 
ATOM     28  C   UNL     1      -3.430  -1.300  -1.052  0.00  0.00    +0.084 A 
ATOM     29  C   UNL     1      -2.144  -0.799  -1.192  0.00  0.00    +0.068 A 
ATOM     30  C   UNL     1      -1.557  -0.720   2.588  0.00  0.00    +0.052 C 
BRANCH  29  31
ATOM     31  C   UNL     1      -1.564  -0.523  -2.510  0.00  0.00    +0.244 C 
ATOM     32  O   UNL     1      -0.948  -1.393  -3.098  0.00  0.00    -0.270 OA
ATOM     33  N   UNL     1      -1.712   0.694  -3.070  0.00  0.00    -0.325 N 
ATOM     34  H   UNL     1      -2.203   1.387  -2.601  0.00  0.00    +0.145 HD
ATOM     35  H   UNL     1      -1.328   0.876  -3.942  0.00  0.00    +0.145 HD
ENDBRANCH  29  31
BRANCH  25  37
ATOM     36  C   UNL     1      -0.032   1.497   0.074  0.00  0.00    +0.009 C 
ATOM     37  C   UNL     1       0.004  -0.032   0.020  0.00  0.00    +0.033 C 
ENDBRANCH  25  37
ENDBRANCH  21  28
ENDBRANCH  20  22
ENDBRANCH   1  20
TORSDOF 9
