REMARK  Name = ZINC36598566
REMARK  19 active torsions:
REMARK  status: ('A' for Active; 'I' for Inactive)
REMARK    1  A    between atoms: C_1  and  C_2
REMARK    2  A    between atoms: C_5  and  C_7
REMARK    3  A    between atoms: C_7  and  N_8
REMARK    4  A    between atoms: N_8  and  C_9
REMARK    5  A    between atoms: C_9  and  C_11
REMARK    6  A    between atoms: C_9  and  C_18
REMARK    7  A    between atoms: C_16  and  O_17
REMARK    8  A    between atoms: N_20  and  C_21
REMARK    9  A    between atoms: C_21  and  C_22
REMARK   10  A    between atoms: C_21  and  C_23
REMARK   11  A    between atoms: C_21  and  C_24
REMARK   12  A    between atoms: C_24  and  C_25
REMARK   13  A    between atoms: C_25  and  C_26
REMARK   14  A    between atoms: C_25  and  C_27
REMARK   15  A    between atoms: C_25  and  C_28
REMARK   16  A    between atoms: C_29  and  C_31
REMARK   17  A    between atoms: C_31  and  C_32
REMARK   18  A    between atoms: C_32  and  C_34
REMARK   19  A    between atoms: C_32  and  C_35
REMARK                            x       y       z     vdW  Elec       q    Type
REMARK                         _______ _______ _______ _____ _____    ______ ____
ROOT
ATOM      1  C   UNL     1       3.720  -3.823  -2.502  0.00  0.00    +0.196 C 
ENDROOT
BRANCH   1   2
ATOM      2  C   UNL     1       3.050  -2.527  -2.880  0.00  0.00    +0.023 A 
ATOM      3  C   UNL     1       1.920  -2.110  -2.204  0.00  0.00    +0.009 A 
ATOM      4  C   UNL     1       1.305  -0.922  -2.551  0.00  0.00    +0.001 A 
ATOM      5  C   UNL     1       1.819  -0.147  -3.575  0.00  0.00    +0.004 A 
ATOM      6  C   UNL     1       2.949  -0.560  -4.254  0.00  0.00    +0.046 A 
ATOM      7  C   UNL     1       3.571  -1.749  -3.904  0.00  0.00    +0.122 A 
BRANCH   7   8
ATOM      8  O   UNL     1       4.687  -2.155  -4.566  0.00  0.00    -0.506 OA
ATOM      9  H   UNL     1       4.506  -2.703  -5.342  0.00  0.00    +0.292 HD
ENDBRANCH   7   8
ENDBRANCH   1   2
BRANCH   1  10
ATOM     10  C   UNL     1       4.903  -3.536  -1.613  0.00  0.00    +0.239 C 
ATOM     11  O   UNL     1       4.945  -3.998  -0.492  0.00  0.00    -0.273 OA
ATOM     12  N   UNL     1       5.913  -2.767  -2.063  0.00  0.00    -0.308 N 
ATOM     13  H   UNL     1       5.880  -2.397  -2.960  0.00  0.00    +0.149 HD
BRANCH  12  14
ATOM     14  C   UNL     1       7.063  -2.488  -1.199  0.00  0.00    +0.030 C 
ATOM     15  C   UNL     1       6.657  -1.484  -0.119  0.00  0.00    +0.031 C 
ATOM     16  C   UNL     1       7.532  -3.786  -0.539  0.00  0.00    +0.031 C 
BRANCH  14  17
ATOM     17  C   UNL     1       8.201  -1.903  -2.038  0.00  0.00    +0.031 C 
BRANCH  17  18
ATOM     18  C   UNL     1       8.297  -2.657  -3.366  0.00  0.00    -0.036 C 
ATOM     19  C   UNL     1       7.269  -2.092  -4.348  0.00  0.00    +0.010 C 
ATOM     20  C   UNL     1       9.702  -2.491  -3.947  0.00  0.00    +0.010 C 
ATOM     21  C   UNL     1       8.014  -4.142  -3.130  0.00  0.00    +0.010 C 
ENDBRANCH  17  18
ENDBRANCH  14  17
ENDBRANCH  12  14
ENDBRANCH   1  10
BRANCH   1  22
ATOM     22  N   UNL     1       2.767  -4.675  -1.786  0.00  0.00    -0.278 N 
ATOM     23  C   UNL     1       2.329  -4.316  -0.563  0.00  0.00    +0.217 C 
ATOM     24  O   UNL     1       2.631  -3.236  -0.104  0.00  0.00    -0.276 OA
BRANCH  22  25
ATOM     25  C   UNL     1       2.290  -5.916  -2.401  0.00  0.00    +0.183 C 
BRANCH  25  30
ATOM     26  C   UNL     1       6.235  -9.058  -2.371  0.00  0.00    +0.086 C 
ATOM     27  C   UNL     1       4.921  -8.416  -2.006  0.00  0.00    +0.102 A 
ATOM     28  C   UNL     1       4.093  -8.822  -1.027  0.00  0.00    +0.045 A 
ATOM     29  C   UNL     1       2.987  -7.941  -1.035  0.00  0.00    +0.046 A 
ATOM     30  C   UNL     1       3.206  -7.050  -2.019  0.00  0.00    +0.122 A 
ATOM     31  O   UNL     1       4.382  -7.340  -2.600  0.00  0.00    -0.463 OA
ENDBRANCH  25  30
ENDBRANCH  22  25
BRANCH  23  32
ATOM     32  C   UNL     1       1.463  -5.258   0.233  0.00  0.00    +0.104 C 
BRANCH  32  33
ATOM     33  C   UNL     1       1.107  -4.614   1.574  0.00  0.00    +0.025 C 
ATOM     34  C   UNL     1       0.241  -3.376   1.331  0.00  0.00    +0.013 C 
BRANCH  33  35
ATOM     35  C   UNL     1       0.346  -5.601   2.420  0.00  0.00    -0.044 A 
ATOM     36  C   UNL     1      -0.852  -6.121   1.966  0.00  0.00    +0.004 A 
ATOM     37  C   UNL     1      -1.550  -7.027   2.742  0.00  0.00    +0.000 A 
ATOM     38  C   UNL     1      -1.051  -7.414   3.972  0.00  0.00    +0.000 A 
ATOM     39  C   UNL     1       0.147  -6.894   4.425  0.00  0.00    +0.000 A 
ATOM     40  C   UNL     1       0.848  -5.992   3.647  0.00  0.00    +0.004 A 
ENDBRANCH  33  35
ENDBRANCH  32  33
ENDBRANCH  23  32
ENDBRANCH   1  22
TORSDOF 12
