REMARK  Name = ZINC39609210
REMARK  9 active torsions:
REMARK  status: ('A' for Active; 'I' for Inactive)
REMARK    1  A    between atoms: C_1  and  C_2
REMARK    2  A    between atoms: C_5  and  C_9
REMARK    3  A    between atoms: C_7  and  C_8
REMARK    4  A    between atoms: C_9  and  C_10
REMARK    5  A    between atoms: C_10  and  N_11
REMARK    6  A    between atoms: C_12  and  C_14
REMARK    7  A    between atoms: C_25  and  C_27
REMARK    8  A    between atoms: C_30  and  O_33
REMARK    9  A    between atoms: O_33  and  C_34
REMARK                            x       y       z     vdW  Elec       q    Type
REMARK                         _______ _______ _______ _____ _____    ______ ____
ROOT
ATOM      1  C   UNL     1       2.859  -8.054   0.528  0.00  0.00    +0.100 C 
ATOM      2  C   UNL     1       2.180  -8.858   1.660  0.00  0.00    +0.121 C 
ATOM      3  N   UNL     1       3.038 -10.053   1.837  0.00  0.00    -0.296 N 
ATOM      4  C   UNL     1       4.421  -9.539   1.690  0.00  0.00    +0.115 C 
ATOM      5  C   UNL     1       4.329  -8.503   0.552  0.00  0.00    -0.004 C 
ATOM      6  C   UNL     1       5.240  -7.315   0.846  0.00  0.00    -0.010 C 
ATOM      7  C   UNL     1       6.700  -7.775   0.806  0.00  0.00    -0.082 C 
ATOM      8  N   UNL     1       7.004  -8.334  -0.517  0.00  0.00    +0.379 N 
ATOM      9  C   UNL     1       6.189  -9.532  -0.752  0.00  0.00    -0.082 C 
ATOM     10  C   UNL     1       4.707  -9.147  -0.779  0.00  0.00    -0.010 C 
ATOM     11  C   UNL     1       2.649 -11.321   2.077  0.00  0.00    +0.247 C 
ATOM     12  O   UNL     1       1.469 -11.611   2.043  0.00  0.00    -0.270 OA
ATOM     13  H   UNL     1       6.801  -7.646  -1.226  0.00  0.00    -0.086 HD
ATOM     14  H   UNL     1       7.981  -8.580  -0.560  0.00  0.00    -0.086 HD
ENDROOT
BRANCH  11  15
ATOM     15  C   UNL     1       3.656 -12.357   2.380  0.00  0.00    +0.037 A 
ATOM     16  C   UNL     1       4.921 -11.989   2.846  0.00  0.00    +0.016 A 
ATOM     17  C   UNL     1       5.857 -12.958   3.128  0.00  0.00    +0.047 A 
ATOM     18  C   UNL     1       5.546 -14.301   2.950  0.00  0.00    +0.130 A 
ATOM     19  C   UNL     1       4.289 -14.671   2.487  0.00  0.00    +0.047 A 
ATOM     20  C   UNL     1       3.345 -13.708   2.208  0.00  0.00    +0.016 A 
BRANCH  18  21
ATOM     21  O   UNL     1       6.472 -15.254   3.228  0.00  0.00    -0.406 OA
BRANCH  21  22
ATOM     22  C   UNL     1       6.085 -16.614   3.023  0.00  0.00    +0.575 C 
ATOM     23  F   UNL     1       5.743 -16.803   1.679  0.00  0.00    -0.133 F 
ATOM     24  F   UNL     1       7.151 -17.457   3.356  0.00  0.00    -0.133 F 
ATOM     25  F   UNL     1       4.984 -16.913   3.831  0.00  0.00    -0.133 F 
ENDBRANCH  21  22
ENDBRANCH  18  21
ENDBRANCH  11  15
BRANCH   1  27
ATOM     26  N   UNL     1       2.705  -5.703  -0.225  0.00  0.00    -0.315 N 
ATOM     27  C   UNL     1       2.757  -6.575   0.801  0.00  0.00    +0.218 C 
ATOM     28  O   UNL     1       2.723  -6.171   1.944  0.00  0.00    -0.275 OA
ATOM     29  H   UNL     1       2.732  -6.027  -1.139  0.00  0.00    +0.149 HD
BRANCH  26  30
ATOM     30  C   UNL     1       2.606  -4.266   0.040  0.00  0.00    +0.109 C 
BRANCH  30  31
ATOM     31  C   UNL     1       2.563  -3.504  -1.286  0.00  0.00    +0.054 C 
BRANCH  31  36
ATOM     32  C   UNL     1       2.174   2.166  -0.244  0.00  0.00    +0.044 C 
ATOM     33  C   UNL     1       2.275   0.688  -0.515  0.00  0.00    -0.048 A 
ATOM     34  C   UNL     1       3.516   0.090  -0.632  0.00  0.00    +0.004 A 
ATOM     35  C   UNL     1       3.610  -1.267  -0.881  0.00  0.00    +0.004 A 
ATOM     36  C   UNL     1       2.462  -2.026  -1.014  0.00  0.00    -0.046 A 
ATOM     37  C   UNL     1       1.221  -1.428  -0.897  0.00  0.00    +0.007 A 
ATOM     38  C   UNL     1       1.127  -0.072  -0.643  0.00  0.00    -0.047 A 
ATOM     39  C   UNL     1      -0.225   0.579  -0.510  0.00  0.00    +0.044 C 
ENDBRANCH  31  36
ENDBRANCH  30  31
ENDBRANCH  26  30
ENDBRANCH   1  27
TORSDOF 7
