REMARK  Name = ZINC39636456
REMARK  6 active torsions:
REMARK  status: ('A' for Active; 'I' for Inactive)
REMARK    1  A    between atoms: C_1  and  C_2
REMARK    2  A    between atoms: C_5  and  C_33
REMARK    3  A    between atoms: C_6  and  C_8
REMARK    4  A    between atoms: C_8  and  N_9
REMARK    5  A    between atoms: C_10  and  C_12
REMARK    6  A    between atoms: C_23  and  C_25
REMARK                            x       y       z     vdW  Elec       q    Type
REMARK                         _______ _______ _______ _____ _____    ______ ____
ROOT
ATOM      1  C   UNL     1       3.763  -4.525   4.105  0.00  0.00    +0.100 C 
ATOM      2  C   UNL     1       4.405  -3.124   4.222  0.00  0.00    +0.121 C 
ATOM      3  N   UNL     1       4.387  -2.824   5.673  0.00  0.00    -0.296 N 
ATOM      4  C   UNL     1       4.721  -4.115   6.321  0.00  0.00    +0.115 C 
ATOM      5  C   UNL     1       3.976  -5.173   5.484  0.00  0.00    -0.004 C 
ATOM      6  C   UNL     1       4.824  -6.434   5.349  0.00  0.00    -0.010 C 
ATOM      7  C   UNL     1       4.973  -7.093   6.723  0.00  0.00    -0.082 C 
ATOM      8  N   UNL     1       3.646  -7.426   7.255  0.00  0.00    +0.379 N 
ATOM      9  C   UNL     1       2.869  -6.199   7.469  0.00  0.00    -0.082 C 
ATOM     10  C   UNL     1       2.631  -5.502   6.126  0.00  0.00    -0.010 C 
ATOM     11  C   UNL     1       4.126  -1.644   6.269  0.00  0.00    +0.247 C 
ATOM     12  O   UNL     1       3.744  -0.699   5.606  0.00  0.00    -0.270 OA
ATOM     13  H   UNL     1       3.161  -8.019   6.598  0.00  0.00    -0.086 HD
ATOM     14  H   UNL     1       3.749  -7.914   8.132  0.00  0.00    -0.086 HD
ENDROOT
BRANCH  11  15
ATOM     15  C   UNL     1       4.305  -1.498   7.729  0.00  0.00    +0.038 A 
ATOM     16  C   UNL     1       5.130  -2.383   8.426  0.00  0.00    +0.014 A 
ATOM     17  C   UNL     1       5.293  -2.243   9.788  0.00  0.00    +0.022 A 
ATOM     18  C   UNL     1       4.641  -1.225  10.466  0.00  0.00    +0.059 A 
ATOM     19  C   UNL     1       3.822  -0.343   9.780  0.00  0.00    +0.060 A 
ATOM     20  C   UNL     1       3.656  -0.470   8.415  0.00  0.00    +0.034 A 
ATOM     21 CL   UNL     1       3.009   0.929  10.637  0.00  0.00    -0.082 Cl
ATOM     22 CL   UNL     1       4.851  -1.056  12.180  0.00  0.00    -0.082 Cl
ENDBRANCH  11  15
BRANCH   1  24
ATOM     23  N   UNL     1       1.643  -5.416   3.196  0.00  0.00    -0.311 N 
ATOM     24  C   UNL     1       2.291  -4.404   3.804  0.00  0.00    +0.218 C 
ATOM     25  O   UNL     1       1.691  -3.395   4.109  0.00  0.00    -0.275 OA
ATOM     26  H   UNL     1       2.123  -6.223   2.952  0.00  0.00    +0.149 HD
BRANCH  23  27
ATOM     27  C   UNL     1       0.212  -5.298   2.903  0.00  0.00    +0.139 C 
BRANCH  27  33
ATOM     28  C   UNL     1      -1.040  -7.771  -1.264  0.00  0.00    +0.044 C 
ATOM     29  C   UNL     1      -0.867  -7.740   0.233  0.00  0.00    -0.050 A 
ATOM     30  C   UNL     1      -1.148  -8.865   0.985  0.00  0.00    +0.003 A 
ATOM     31  C   UNL     1      -0.990  -8.836   2.358  0.00  0.00    +0.004 A 
ATOM     32  C   UNL     1      -0.549  -7.681   2.979  0.00  0.00    -0.046 A 
ATOM     33  C   UNL     1      -0.268  -6.557   2.226  0.00  0.00    -0.027 A 
ATOM     34  C   UNL     1      -0.422  -6.587   0.853  0.00  0.00    +0.008 A 
ATOM     35  C   UNL     1      -0.377  -7.649   4.475  0.00  0.00    +0.044 C 
ENDBRANCH  27  33
ENDBRANCH  23  27
ENDBRANCH   1  24
TORSDOF 4
