REMARK  Name = ZINC57416034
REMARK  7 active torsions:
REMARK  status: ('A' for Active; 'I' for Inactive)
REMARK    1  A    between atoms: C_1  and  O_2
REMARK    2  A    between atoms: O_2  and  C_3
REMARK    3  A    between atoms: C_3  and  C_5
REMARK    4  A    between atoms: C_6  and  C_18
REMARK    5  A    between atoms: C_11  and  C_13
REMARK    6  A    between atoms: C_18  and  N_19
REMARK    7  A    between atoms: C_25  and  C_27
REMARK                            x       y       z     vdW  Elec       q    Type
REMARK                         _______ _______ _______ _____ _____    ______ ____
ROOT
ATOM      1  C   UNL     1       1.208  -2.186  -0.995  0.00  0.00    +0.080 C 
ATOM      2  C   UNL     1       1.105  -2.663  -2.254  0.00  0.00    +0.038 C 
ATOM      3  N   UNL     1       0.554  -3.888  -2.501  0.00  0.00    -0.271 N 
ATOM      4  C   UNL     1       0.084  -4.697  -1.543  0.00  0.00    +0.304 C 
ATOM      5  O   UNL     1      -0.389  -5.771  -1.861  0.00  0.00    -0.252 OA
ATOM      6  N   UNL     1       0.117  -4.360  -0.239  0.00  0.00    -0.288 N 
ATOM      7  C   UNL     1       0.698  -3.059   0.134  0.00  0.00    +0.150 C 
ATOM      8  H   UNL     1       0.501  -4.189  -3.421  0.00  0.00    +0.156 HD
ATOM      9  H   UNL     1      -0.230  -4.961   0.439  0.00  0.00    +0.151 HD
ENDROOT
BRANCH   7  10
ATOM     10  C   UNL     1       1.843  -3.310   1.081  0.00  0.00    +0.015 A 
ATOM     11  C   UNL     1       2.120  -2.710   2.264  0.00  0.00    +0.013 A 
ATOM     12  C   UNL     1       3.239  -3.107   2.972  0.00  0.00    +0.008 A 
ATOM     13  C   UNL     1       4.026  -4.085   2.462  0.00  0.00    +0.045 A 
ATOM     14  S   UNL     1       3.183  -4.482   0.939  0.00  0.00    -0.099 S 
ENDBRANCH   7  10
BRANCH   1  15
ATOM     15  C   UNL     1       1.779  -0.918  -0.738  0.00  0.00    +0.339 C 
ATOM     16  O   UNL     1       2.294  -0.288  -1.643  0.00  0.00    -0.245 OA
BRANCH  15  18
ATOM     17  C   UNL     1       2.346   0.880   0.698  0.00  0.00    +0.280 C 
ATOM     18  O   UNL     1       1.751  -0.406   0.510  0.00  0.00    -0.465 OA
ENDBRANCH  15  18
ENDBRANCH   1  15
BRANCH   2  19
ATOM     19  C   UNL     1       1.605  -1.830  -3.406  0.00  0.00    +0.136 C 
BRANCH  19  20
ATOM     20  N   UNL     1       3.044  -2.061  -3.589  0.00  0.00    -0.294 NA
ATOM     21  C   UNL     1       3.296  -3.399  -4.139  0.00  0.00    +0.104 C 
ATOM     22  C   UNL     1       4.805  -3.669  -4.145  0.00  0.00    +0.123 C 
ATOM     23  N   UNL     1       5.473  -2.569  -4.856  0.00  0.00    -0.293 N 
ATOM     24  C   UNL     1       5.164  -1.189  -4.451  0.00  0.00    +0.123 C 
ATOM     25  C   UNL     1       3.641  -1.017  -4.433  0.00  0.00    +0.104 C 
ATOM     26  C   UNL     1       6.346  -2.818  -5.852  0.00  0.00    +0.282 C 
ATOM     27  O   UNL     1       6.639  -3.966  -6.131  0.00  0.00    -0.267 OA
BRANCH  26  28
ATOM     28  C   UNL     1       6.944  -1.706  -6.599  0.00  0.00    +0.189 A 
ATOM     29  C   UNL     1       7.734  -1.817  -7.707  0.00  0.00    +0.054 A 
ATOM     30  C   UNL     1       8.079  -0.511  -8.089  0.00  0.00    +0.042 A 
ATOM     31  C   UNL     1       7.491   0.329  -7.208  0.00  0.00    +0.196 A 
ATOM     32  O   UNL     1       6.804  -0.395  -6.315  0.00  0.00    -0.458 OA
ENDBRANCH  26  28
ENDBRANCH  19  20
ENDBRANCH   2  19
TORSDOF 6
