REMARK  Name = ZINC16009601
REMARK  1 active torsions:
REMARK  status: ('A' for Active; 'I' for Inactive)
REMARK    1  A    between atoms: N_24  and  C_27
REMARK                            x       y       z     vdW  Elec       q    Type
REMARK                         _______ _______ _______ _____ _____    ______ ____
ROOT
ATOM      1  C   UNL     1       1.273  -0.659   0.190  0.00  0.00    +0.002 A 
ATOM      2  C   UNL     1       0.060   0.006   0.147  0.00  0.00    +0.004 A 
ATOM      3  C   UNL     1       0.030   1.383   0.136  0.00  0.00    -0.026 A 
ATOM      4  C   UNL     1       1.210   2.119   0.168  0.00  0.00    +0.054 A 
ATOM      5  C   UNL     1       2.427   1.442   0.210  0.00  0.00    +0.062 A 
ATOM      6  C   UNL     1       2.452   0.061   0.220  0.00  0.00    +0.022 A 
ATOM      7 CL   UNL     1       3.915   2.335   0.249  0.00  0.00    -0.082 Cl
ATOM      8  N   UNL     1       0.927   3.487   0.152  0.00  0.00    -0.285 N 
ATOM      9  C   UNL     1      -0.396   3.732   0.105  0.00  0.00    +0.212 C 
ATOM     10  O   UNL     1      -0.931   4.820   0.076  0.00  0.00    -0.277 OA
ATOM     11  C   UNL     1      -1.082   2.392   0.087  0.00  0.00    +0.053 C 
ATOM     12  C   UNL     1      -2.030   2.238   1.282  0.00  0.00    +0.089 C 
ATOM     13  C   UNL     1      -3.425   2.586   0.718  0.00  0.00    +0.074 C 
ATOM     14  C   UNL     1      -3.205   2.882  -0.778  0.00  0.00    -0.054 C 
ATOM     15  N   UNL     1      -1.908   2.225  -1.121  0.00  0.00    +0.395 N 
ATOM     16  C   UNL     1      -2.249   0.794  -1.302  0.00  0.00    -0.076 C 
ATOM     17  C   UNL     1      -3.631   0.790  -1.984  0.00  0.00    -0.020 C 
ATOM     18  C   UNL     1      -4.262   2.149  -1.624  0.00  0.00    -0.016 C 
ATOM     19  C   UNL     1      -4.173   1.280   0.865  0.00  0.00    +0.228 C 
ATOM     20  O   UNL     1      -5.327   1.093   0.542  0.00  0.00    -0.275 OA
ATOM     21  N   UNL     1      -3.363   0.362   1.405  0.00  0.00    -0.210 N 
ATOM     22  C   UNL     1      -2.129   0.802   1.678  0.00  0.00    +0.229 C 
ATOM     23  O   UNL     1      -1.241   0.139   2.169  0.00  0.00    -0.275 OA
ATOM     24  H   UNL     1       1.748   4.219   0.178  0.00  0.00    +0.155 HD
ATOM     25  H   UNL     1      -1.384   2.617  -2.005  0.00  0.00    -0.079 HD
ENDROOT
BRANCH  21  26
ATOM     26  C   UNL     1      -3.774  -0.953   1.664  0.00  0.00    +0.044 A 
ATOM     27  C   UNL     1      -3.232  -2.006   0.940  0.00  0.00    +0.025 A 
ATOM     28  C   UNL     1      -3.634  -3.301   1.201  0.00  0.00    +0.017 A 
ATOM     29  C   UNL     1      -4.584  -3.549   2.176  0.00  0.00    +0.018 A 
ATOM     30  C   UNL     1      -5.130  -2.500   2.895  0.00  0.00    +0.017 A 
ATOM     31  C   UNL     1      -4.727  -1.204   2.642  0.00  0.00    +0.025 A 
ATOM     32 BR   UNL     1      -5.138  -5.323   2.526  0.00  0.00    -0.050 Br
ENDBRANCH  21  26
TORSDOF 1
