REMARK  Name = ZINC59112838
REMARK  16 active torsions:
REMARK  status: ('A' for Active; 'I' for Inactive)
REMARK    1  A    between atoms: C_1  and  C_2
REMARK    2  A    between atoms: C_4  and  C_35
REMARK    3  A    between atoms: C_6  and  N_8
REMARK    4  A    between atoms: N_8  and  C_9
REMARK    5  A    between atoms: C_9  and  N_11
REMARK    6  A    between atoms: N_11  and  C_12
REMARK    7  A    between atoms: C_12  and  C_13
REMARK    8  A    between atoms: C_13  and  C_34
REMARK    9  A    between atoms: C_15  and  N_22
REMARK   10  A    between atoms: C_18  and  C_20
REMARK   11  A    between atoms: C_18  and  C_21
REMARK   12  A    between atoms: N_22  and  C_23
REMARK   13  A    between atoms: C_23  and  N_25
REMARK   14  A    between atoms: N_25  and  C_26
REMARK   15  A    between atoms: C_28  and  C_33
REMARK   16  A    between atoms: C_30  and  C_32
REMARK                            x       y       z     vdW  Elec       q    Type
REMARK                         _______ _______ _______ _____ _____    ______ ____
ROOT
ATOM      1  C   UNL     1       0.322  -3.310   6.513  0.00  0.00    -0.014 C 
ATOM      2  C   UNL     1      -0.750  -4.273   6.027  0.00  0.00    +0.030 C 
ATOM      3  C   UNL     1      -1.404  -5.065   7.146  0.00  0.00    +0.073 C 
ATOM      4  C   UNL     1      -1.923  -4.161   8.250  0.00  0.00    +0.028 C 
ATOM      5  C   UNL     1      -0.887  -3.182   8.777  0.00  0.00    -0.033 C 
ATOM      6  C   UNL     1      -0.135  -2.456   7.680  0.00  0.00    +0.014 C 
ATOM      7  C   UNL     1       0.078  -3.879   9.740  0.00  0.00    +0.011 C 
ATOM      8  C   UNL     1      -1.645  -2.113   9.604  0.00  0.00    +0.011 C 
ATOM      9  C   UNL     1       1.618  -4.054   6.843  0.00  0.00    +0.013 C 
ENDROOT
BRANCH   3  10
ATOM     10  N   UNL     1      -0.534  -6.116   7.660  0.00  0.00    -0.323 N 
ATOM     11  H   UNL     1       0.426  -6.059   7.527  0.00  0.00    +0.148 HD
BRANCH  10  12
ATOM     12  C   UNL     1      -1.062  -7.166   8.319  0.00  0.00    +0.135 C 
ATOM     13  S   UNL     1      -2.755  -7.266   8.552  0.00  0.00    -0.019 S 
BRANCH  12  14
ATOM     14  N   UNL     1      -0.258  -8.138   8.794  0.00  0.00    -0.297 N 
ATOM     15  H   UNL     1       0.705  -8.045   8.729  0.00  0.00    +0.154 HD
BRANCH  14  16
ATOM     16  C   UNL     1      -0.812  -9.281   9.380  0.00  0.00    +0.033 A 
ATOM     17  C   UNL     1      -1.907  -9.903   8.793  0.00  0.00    +0.026 A 
ATOM     18  C   UNL     1      -2.452 -11.031   9.374  0.00  0.00    -0.048 A 
ATOM     19  C   UNL     1      -1.909 -11.541  10.539  0.00  0.00    +0.006 A 
ATOM     20  C   UNL     1      -0.820 -10.924  11.126  0.00  0.00    -0.048 A 
ATOM     21  C   UNL     1      -0.266  -9.799  10.547  0.00  0.00    +0.026 A 
ATOM     22  C   UNL     1      -0.232 -11.484  12.396  0.00  0.00    +0.044 C 
ATOM     23  C   UNL     1      -3.639 -11.706   8.738  0.00  0.00    +0.044 C 
ENDBRANCH  14  16
ENDBRANCH  12  14
ENDBRANCH  10  12
ENDBRANCH   3  10
BRANCH   1  24
ATOM     24  C   UNL     1       0.644  -2.353   5.338  0.00  0.00    +0.110 C 
BRANCH  24  25
ATOM     25  N   UNL     1       1.091  -3.133   4.181  0.00  0.00    -0.326 N 
ATOM     26  H   UNL     1       1.145  -4.100   4.240  0.00  0.00    +0.148 HD
BRANCH  25  27
ATOM     27  C   UNL     1       1.428  -2.508   3.036  0.00  0.00    +0.135 C 
ATOM     28  S   UNL     1       1.333  -0.802   2.932  0.00  0.00    -0.019 S 
BRANCH  27  29
ATOM     29  N   UNL     1       1.840  -3.226   1.972  0.00  0.00    -0.297 N 
ATOM     30  H   UNL     1       1.806  -4.195   1.998  0.00  0.00    +0.154 HD
BRANCH  29  36
ATOM     31  C   UNL     1       4.362   0.485  -0.038  0.00  0.00    +0.044 C 
ATOM     32  C   UNL     1       3.542  -0.772  -0.173  0.00  0.00    -0.048 A 
ATOM     33  C   UNL     1       3.261  -1.282  -1.428  0.00  0.00    +0.006 A 
ATOM     34  C   UNL     1       2.510  -2.436  -1.556  0.00  0.00    -0.048 A 
ATOM     35  C   UNL     1       2.037  -3.083  -0.431  0.00  0.00    +0.026 A 
ATOM     36  C   UNL     1       2.317  -2.573   0.830  0.00  0.00    +0.033 A 
ATOM     37  C   UNL     1       3.077  -1.417   0.956  0.00  0.00    +0.026 A 
ATOM     38  C   UNL     1       2.205  -2.988  -2.925  0.00  0.00    +0.044 C 
ENDBRANCH  29  36
ENDBRANCH  27  29
ENDBRANCH  25  27
ENDBRANCH  24  25
ENDBRANCH   1  24
TORSDOF 9
