REMARK  Name = ZINC54613733
REMARK  12 active torsions:
REMARK  status: ('A' for Active; 'I' for Inactive)
REMARK    1  A    between atoms: C_1  and  C_2
REMARK    2  A    between atoms: C_2  and  O_3
REMARK    3  A    between atoms: O_3  and  C_4
REMARK    4  A    between atoms: C_6  and  C_15
REMARK    5  A    between atoms: C_9  and  O_10
REMARK    6  A    between atoms: O_10  and  C_11
REMARK    7  A    between atoms: C_11  and  C_12
REMARK    8  A    between atoms: C_11  and  C_13
REMARK    9  A    between atoms: C_17  and  C_26
REMARK   10  A    between atoms: C_18  and  C_25
REMARK   11  A    between atoms: N_28  and  C_29
REMARK   12  A    between atoms: C_33  and  C_35
REMARK                            x       y       z     vdW  Elec       q    Type
REMARK                         _______ _______ _______ _____ _____    ______ ____
ROOT
ATOM      1  C   UNL     1       0.753  -4.922   0.044  0.00  0.00    +0.177 C 
ATOM      2  C   UNL     1       0.675  -5.718  -1.232  0.00  0.00    +0.060 C 
ATOM      3  C   UNL     1       0.374  -7.024  -1.262  0.00  0.00    +0.018 C 
ATOM      4  N   UNL     1       0.123  -7.744  -0.120  0.00  0.00    -0.287 N 
ATOM      5  C   UNL     1       0.445  -7.151   1.093  0.00  0.00    +0.218 A 
ATOM      6  N   UNL     1       0.747  -5.832   1.186  0.00  0.00    -0.221 N 
ATOM      7  N   UNL     1       1.022  -5.581   2.529  0.00  0.00    -0.156 NA
ATOM      8  C   UNL     1       0.875  -6.718   3.163  0.00  0.00    +0.247 A 
ATOM      9  N   UNL     1       0.523  -7.667   2.289  0.00  0.00    -0.201 NA
ATOM     10  C   UNL     1       0.309  -7.725  -2.595  0.00  0.00    +0.061 C 
ATOM     11  H   UNL     1      -0.264  -8.633  -0.160  0.00  0.00    +0.155 HD
ENDROOT
BRANCH   1  14
ATOM     12  C   UNL     1      -1.327  -1.777   0.285  0.00  0.00    +0.163 A 
ATOM     13  C   UNL     1      -0.237  -2.630   0.205  0.00  0.00    +0.055 A 
ATOM     14  C   UNL     1      -0.433  -3.996   0.132  0.00  0.00    -0.014 A 
ATOM     15  C   UNL     1      -1.714  -4.516   0.138  0.00  0.00    +0.025 A 
ATOM     16  C   UNL     1      -2.806  -3.670   0.218  0.00  0.00    +0.063 A 
ATOM     17  C   UNL     1      -2.616  -2.299   0.298  0.00  0.00    +0.176 A 
ATOM     18 BR   UNL     1      -4.556  -4.385   0.225  0.00  0.00    -0.046 Br
BRANCH  12  19
ATOM     19  O   UNL     1      -1.135  -0.432   0.357  0.00  0.00    -0.489 OA
BRANCH  19  21
ATOM     20  C   UNL     1       0.231   1.560   0.427  0.00  0.00    +0.048 C 
ATOM     21  C   UNL     1       0.216   0.033   0.339  0.00  0.00    +0.226 C 
ENDBRANCH  19  21
ENDBRANCH  12  19
BRANCH  17  22
ATOM     22  O   UNL     1      -3.688  -1.466   0.383  0.00  0.00    -0.485 OA
BRANCH  22  23
ATOM     23  C   UNL     1      -4.242  -0.995  -0.848  0.00  0.00    +0.168 C 
ATOM     24  C   UNL     1      -5.326  -1.964  -1.323  0.00  0.00    +0.051 C 
ATOM     25  C   UNL     1      -4.855   0.390  -0.633  0.00  0.00    +0.051 C 
ENDBRANCH  22  23
ENDBRANCH  17  22
ENDBRANCH   1  14
BRANCH   2  26
ATOM     26  C   UNL     1       0.932  -5.056  -2.456  0.00  0.00    +0.248 C 
ATOM     27  O   UNL     1       2.075  -4.773  -2.767  0.00  0.00    -0.270 OA
ATOM     28  N   UNL     1      -0.089  -4.739  -3.277  0.00  0.00    -0.282 N 
ATOM     29  H   UNL     1      -1.004  -4.906  -3.001  0.00  0.00    +0.155 HD
BRANCH  28  30
ATOM     30  C   UNL     1       0.171  -4.170  -4.528  0.00  0.00    +0.034 A 
ATOM     31  C   UNL     1      -0.638  -4.478  -5.614  0.00  0.00    +0.023 A 
ATOM     32  C   UNL     1      -0.379  -3.915  -6.848  0.00  0.00    +0.002 A 
ATOM     33  C   UNL     1       0.685  -3.045  -7.003  0.00  0.00    +0.003 A 
ATOM     34  C   UNL     1       1.493  -2.737  -5.923  0.00  0.00    -0.049 A 
ATOM     35  C   UNL     1       1.235  -3.292  -4.685  0.00  0.00    +0.026 A 
ATOM     36  C   UNL     1       2.652  -1.789  -6.097  0.00  0.00    +0.044 C 
ENDBRANCH  28  30
ENDBRANCH   2  26
TORSDOF 7
