REMARK  Name = ZINC22788866
REMARK  8 active torsions:
REMARK  status: ('A' for Active; 'I' for Inactive)
REMARK    1  A    between atoms: C_1  and  C_2
REMARK    2  A    between atoms: N_11  and  C_15
REMARK    3  A    between atoms: C_15  and  N_16
REMARK    4  A    between atoms: N_19  and  C_22
REMARK    5  A    between atoms: C_22  and  C_23
REMARK    6  A    between atoms: N_25  and  C_26
REMARK    7  A    between atoms: C_29  and  O_32
REMARK    8  A    between atoms: O_32  and  C_33
REMARK                            x       y       z     vdW  Elec       q    Type
REMARK                         _______ _______ _______ _____ _____    ______ ____
ROOT
ATOM      1  N   UNL     1      -2.859   0.213   5.451  0.00  0.00    -0.290 NA
ATOM      2  C   UNL     1      -2.553  -1.166   5.856  0.00  0.00    +0.067 C 
ATOM      3  C   UNL     1      -1.499  -1.146   6.966  0.00  0.00    -0.063 C 
ATOM      4  N   UNL     1      -2.004  -0.365   8.104  0.00  0.00    +0.387 N 
ATOM      5  C   UNL     1      -2.311   1.014   7.698  0.00  0.00    -0.063 C 
ATOM      6  C   UNL     1      -3.364   0.994   6.589  0.00  0.00    +0.067 C 
ATOM      7  H   UNL     1      -2.938  -0.833   8.449  0.00  0.00    -0.081 HD
ENDROOT
BRANCH   1   8
ATOM      8  C   UNL     1      -3.813   0.234   4.333  0.00  0.00    +0.204 C 
BRANCH   8  18
ATOM      9  C   UNL     1       0.198   0.051   2.399  0.00  0.00    +0.010 C 
ATOM     10  C   UNL     1      -0.438   0.534   1.094  0.00  0.00    +0.018 C 
ATOM     11  C   UNL     1       0.183  -0.219  -0.086  0.00  0.00    +0.006 C 
ATOM     12  C   UNL     1      -0.469   0.250  -1.388  0.00  0.00    +0.000 C 
ATOM     13  C   UNL     1      -1.970  -0.040  -1.343  0.00  0.00    +0.003 C 
ATOM     14  C   UNL     1      -2.599   0.714  -0.169  0.00  0.00    +0.035 C 
ATOM     15  C   UNL     1      -1.940   0.270   1.133  0.00  0.00    +0.115 C 
ATOM     16  C   UNL     1      -2.569   0.976   2.311  0.00  0.00    +0.248 C 
ATOM     17  O   UNL     1      -2.594   2.170   2.524  0.00  0.00    -0.273 OA
ATOM     18  N   UNL     1      -3.098  -0.001   3.077  0.00  0.00    -0.211 N 
ATOM     19  C   UNL     1      -2.888  -1.212   2.545  0.00  0.00    +0.310 C 
ATOM     20  O   UNL     1      -3.270  -2.248   3.052  0.00  0.00    -0.252 OA
ATOM     21  N   UNL     1      -2.206  -1.152   1.385  0.00  0.00    -0.285 N 
ATOM     22  H   UNL     1      -1.853  -1.912   0.673  0.00  0.00    +0.151 HD
ENDBRANCH   8  18
ENDBRANCH   1   8
BRANCH   4  23
ATOM     23  C   UNL     1      -1.050  -0.386   9.221  0.00  0.00    +0.019 C 
BRANCH  23  24
ATOM     24  C   UNL     1      -1.702   0.197  10.448  0.00  0.00    +0.201 C 
ATOM     25  O   UNL     1      -2.880   0.483  10.431  0.00  0.00    -0.278 OA
ATOM     26  N   UNL     1      -0.975   0.401  11.565  0.00  0.00    -0.287 N 
ATOM     27  H   UNL     1       0.109   0.213  11.558  0.00  0.00    +0.155 HD
BRANCH  26  28
ATOM     28  C   UNL     1      -1.600   0.853  12.735  0.00  0.00    +0.034 A 
ATOM     29  C   UNL     1      -2.657   1.749  12.656  0.00  0.00    +0.027 A 
ATOM     30  C   UNL     1      -3.276   2.190  13.809  0.00  0.00    +0.048 A 
ATOM     31  C   UNL     1      -2.833   1.746  15.047  0.00  0.00    +0.130 A 
ATOM     32  C   UNL     1      -1.773   0.855  15.127  0.00  0.00    +0.048 A 
ATOM     33  C   UNL     1      -1.158   0.409  13.974  0.00  0.00    +0.027 A 
BRANCH  31  34
ATOM     34  O   UNL     1      -3.439   2.185  16.182  0.00  0.00    -0.406 OA
BRANCH  34  35
ATOM     35  C   UNL     1      -4.524   3.101  16.026  0.00  0.00    +0.575 C 
ATOM     36  F   UNL     1      -5.536   2.502  15.268  0.00  0.00    -0.133 F 
ATOM     37  F   UNL     1      -5.028   3.447  17.285  0.00  0.00    -0.133 F 
ATOM     38  F   UNL     1      -4.072   4.253  15.373  0.00  0.00    -0.133 F 
ENDBRANCH  34  35
ENDBRANCH  31  34
ENDBRANCH  26  28
ENDBRANCH  23  24
ENDBRANCH   4  23
TORSDOF 7
