REMARK  Name = ZINC39741148
REMARK  12 active torsions:
REMARK  status: ('A' for Active; 'I' for Inactive)
REMARK    1  A    between atoms: C_1  and  C_2
REMARK    2  A    between atoms: C_2  and  C_3
REMARK    3  A    between atoms: C_3  and  C_4
REMARK    4  A    between atoms: C_7  and  C_33
REMARK    5  A    between atoms: C_9  and  C_30
REMARK    6  A    between atoms: N_11  and  C_12
REMARK    7  A    between atoms: C_12  and  C_13
REMARK    8  A    between atoms: C_16  and  C_19
REMARK    9  A    between atoms: C_24  and  C_25
REMARK   10  A    between atoms: C_33  and  C_34
REMARK   11  A    between atoms: C_33  and  C_35
REMARK   12  A    between atoms: C_33  and  O_36
REMARK                            x       y       z     vdW  Elec       q    Type
REMARK                         _______ _______ _______ _____ _____    ______ ____
ROOT
ATOM      1  C   UNL     1      -1.546  -2.916   0.715  0.00  0.00    -0.064 A 
ATOM      2  C   UNL     1      -2.342  -2.018   1.402  0.00  0.00    +0.002 A 
ATOM      3  C   UNL     1      -3.555  -1.623   0.875  0.00  0.00    +0.009 A 
ATOM      4  C   UNL     1      -3.977  -2.130  -0.352  0.00  0.00    -0.017 A 
ATOM      5  C   UNL     1      -3.171  -3.035  -1.040  0.00  0.00    +0.009 A 
ATOM      6  C   UNL     1      -1.958  -3.419  -0.506  0.00  0.00    +0.002 A 
ENDROOT
BRANCH   4   7
ATOM      7  C   UNL     1      -5.280  -1.709  -0.924  0.00  0.00    -0.011 A 
ATOM      8  C   UNL     1      -6.433  -1.753  -0.143  0.00  0.00    +0.009 A 
ATOM      9  C   UNL     1      -7.642  -1.359  -0.679  0.00  0.00    +0.001 A 
ATOM     10  C   UNL     1      -7.711  -0.923  -1.990  0.00  0.00    +0.000 A 
ATOM     11  C   UNL     1      -6.569  -0.879  -2.770  0.00  0.00    +0.008 A 
ATOM     12  C   UNL     1      -5.354  -1.264  -2.242  0.00  0.00    +0.005 A 
BRANCH  12  13
ATOM     13  C   UNL     1      -4.110  -1.209  -3.091  0.00  0.00    +0.243 C 
ATOM     14  N   UNL     1      -2.968  -0.715  -2.304  0.00  0.00    -0.262 N 
ATOM     15  N   UNL     1      -2.598   0.332  -2.855  0.00  0.00    -0.053 NA
ATOM     16  N   UNL     1      -3.373   0.635  -3.971  0.00  0.00    -0.053 NA
ATOM     17  N   UNL     1      -4.259  -0.209  -4.162  0.00  0.00    -0.262 N 
ATOM     18  H   UNL     1      -2.583  -1.125  -1.514  0.00  0.00    +0.187 HD
ATOM     19  H   UNL     1      -4.918  -0.212  -4.874  0.00  0.00    +0.187 HD
ENDBRANCH  12  13
ENDBRANCH   4   7
BRANCH   1  20
ATOM     20  C   UNL     1      -0.223  -3.344   1.296  0.00  0.00    -0.045 C 
BRANCH  20  25
ATOM     21  C   UNL     1       1.048  -2.594  -0.610  0.00  0.00    -0.201 C 
ATOM     22  N   UNL     1       2.443  -3.030  -0.814  0.00  0.00    +0.362 NA
ATOM     23  C   UNL     1       3.166  -2.552   0.390  0.00  0.00    -0.110 C 
ATOM     24  C   UNL     1       2.113  -2.759   1.508  0.00  0.00    +0.025 C 
ATOM     25  N   UNL     1       0.831  -2.428   0.840  0.00  0.00    +0.377 N 
ATOM     26  H   UNL     1       0.574  -1.474   1.042  0.00  0.00    -0.083 HD
BRANCH  24  27
ATOM     27  C   UNL     1       2.115  -4.190   1.980  0.00  0.00    +0.341 C 
ATOM     28  O   UNL     1       2.540  -4.465   3.089  0.00  0.00    -0.248 OA
ATOM     29  O   UNL     1       1.691  -5.073   1.253  0.00  0.00    -0.248 OA
ENDBRANCH  24  27
BRANCH  23  30
ATOM     30  C   UNL     1       4.414  -3.398   0.648  0.00  0.00    +0.040 C 
ATOM     31  C   UNL     1       5.423  -3.176  -0.480  0.00  0.00    +0.039 C 
ATOM     32  C   UNL     1       5.042  -2.988   1.982  0.00  0.00    +0.039 C 
BRANCH  30  33
ATOM     33  O   UNL     1       4.051  -4.779   0.698  0.00  0.00    -0.391 OA
ATOM     34  H   UNL     1       3.851  -5.102   1.587  0.00  0.00    +0.210 HD
ENDBRANCH  30  33
ENDBRANCH  23  30
BRANCH  21  35
ATOM     35  C   UNL     1       0.814  -1.261  -1.324  0.00  0.00    -0.042 C 
BRANCH  35  37
ATOM     36  C   UNL     1       0.686  -0.134  -3.550  0.00  0.00    +0.004 C 
ATOM     37  C   UNL     1       0.920  -1.467  -2.837  0.00  0.00    -0.007 C 
ENDBRANCH  35  37
ENDBRANCH  21  35
ENDBRANCH  20  25
ENDBRANCH   1  20
TORSDOF 9
