REMARK  Name = ZINC17189486
REMARK  12 active torsions:
REMARK  status: ('A' for Active; 'I' for Inactive)
REMARK    1  A    between atoms: C_1  and  C_2
REMARK    2  A    between atoms: C_2  and  C_3
REMARK    3  A    between atoms: C_3  and  C_5
REMARK    4  A    between atoms: C_3  and  C_6
REMARK    5  A    between atoms: C_6  and  C_7
REMARK    6  A    between atoms: C_8  and  C_35
REMARK    7  A    between atoms: C_16  and  S_18
REMARK    8  A    between atoms: S_18  and  C_19
REMARK    9  A    between atoms: C_19  and  C_20
REMARK   10  A    between atoms: N_22  and  C_23
REMARK   11  A    between atoms: C_25  and  C_32
REMARK   12  A    between atoms: C_27  and  C_29
REMARK                            x       y       z     vdW  Elec       q    Type
REMARK                         _______ _______ _______ _____ _____    ______ ____
ROOT
ATOM      1  C   UNL     1      -6.106   2.868   0.150  0.00  0.00    +0.227 C 
ATOM      2  O   UNL     1      -5.065   3.490   0.148  0.00  0.00    -0.275 OA
ATOM      3  N   UNL     1      -6.089   1.524   0.041  0.00  0.00    -0.285 N 
ATOM      4  H   UNL     1      -6.922   1.033  -0.035  0.00  0.00    +0.155 HD
ENDROOT
BRANCH   3   5
ATOM      5  C   UNL     1      -4.869   0.838   0.036  0.00  0.00    +0.035 A 
ATOM      6  C   UNL     1      -4.728  -0.319  -0.716  0.00  0.00    +0.036 A 
ATOM      7  C   UNL     1      -3.513  -1.006  -0.722  0.00  0.00    +0.039 A 
ATOM      8  C   UNL     1      -2.441  -0.527   0.028  0.00  0.00    +0.026 A 
ATOM      9  C   UNL     1      -2.585   0.635   0.782  0.00  0.00    +0.039 A 
ATOM     10  C   UNL     1      -3.805   1.314   0.788  0.00  0.00    +0.036 A 
BRANCH   9  11
ATOM     11  C   UNL     1      -1.450   1.146   1.580  0.00  0.00    +0.242 C 
ATOM     12  O   UNL     1      -1.577   2.160   2.238  0.00  0.00    -0.270 OA
ATOM     13  N   UNL     1      -0.274   0.487   1.578  0.00  0.00    -0.325 N 
ATOM     14  H   UNL     1      -0.173  -0.323   1.053  0.00  0.00    +0.145 HD
ATOM     15  H   UNL     1       0.472   0.824   2.098  0.00  0.00    +0.145 HD
ENDBRANCH   9  11
BRANCH   7  16
ATOM     16  C   UNL     1      -3.364  -2.239  -1.524  0.00  0.00    +0.242 C 
ATOM     17  O   UNL     1      -4.300  -2.656  -2.178  0.00  0.00    -0.270 OA
ATOM     18  N   UNL     1      -2.191  -2.902  -1.529  0.00  0.00    -0.325 N 
ATOM     19  H   UNL     1      -1.444  -2.570  -1.007  0.00  0.00    +0.145 HD
ATOM     20  H   UNL     1      -2.093  -3.711  -2.055  0.00  0.00    +0.145 HD
ENDBRANCH   7  16
ENDBRANCH   3   5
BRANCH   1  21
ATOM     21  C   UNL     1      -7.419   3.597   0.274  0.00  0.00    +0.173 C 
BRANCH  21  22
ATOM     22  S   UNL     1      -7.112   5.376   0.402  0.00  0.00    -0.078 S 
BRANCH  22  32
ATOM     23  C   UNL     1     -12.777   7.160   0.828  0.00  0.00    -0.023 A 
ATOM     24  C   UNL     1     -13.648   6.141   0.788  0.00  0.00    -0.007 A 
ATOM     25  S   UNL     1     -12.602   4.708   0.621  0.00  0.00    -0.073 S 
ATOM     26  C   UNL     1     -11.024   5.518   0.609  0.00  0.00    +0.117 A 
ATOM     27  C   UNL     1     -11.354   6.881   0.735  0.00  0.00    +0.075 A 
ATOM     28  C   UNL     1     -10.250   7.790   0.753  0.00  0.00    +0.261 A 
ATOM     29  O   UNL     1     -10.439   8.989   0.860  0.00  0.00    -0.267 OA
ATOM     30  N   UNL     1      -8.999   7.303   0.657  0.00  0.00    -0.301 N 
ATOM     31  H   UNL     1      -8.247   7.916   0.673  0.00  0.00    +0.171 HD
ATOM     32  C   UNL     1      -8.768   5.964   0.532  0.00  0.00    +0.170 A 
ATOM     33  N   UNL     1      -9.766   5.104   0.513  0.00  0.00    -0.216 NA
ATOM     34  C   UNL     1     -15.152   6.196   0.867  0.00  0.00    +0.052 C 
BRANCH  23  35
ATOM     35  C   UNL     1     -13.268   8.578   0.967  0.00  0.00    +0.040 C 
BRANCH  35  36
ATOM     36  C   UNL     1     -13.363   8.942   2.450  0.00  0.00    -0.010 C 
ATOM     37  C   UNL     1     -11.963   8.935   3.068  0.00  0.00    +0.008 C 
BRANCH  36  39
ATOM     38  C   UNL     1     -14.189  10.648   4.078  0.00  0.00    +0.004 C 
ATOM     39  C   UNL     1     -13.978  10.335   2.595  0.00  0.00    +0.000 C 
ENDBRANCH  36  39
ENDBRANCH  35  36
ENDBRANCH  23  35
ENDBRANCH  22  32
ENDBRANCH  21  22
ENDBRANCH   1  21
TORSDOF 9
