REMARK  Name = ZINC17306090
REMARK  11 active torsions:
REMARK  status: ('A' for Active; 'I' for Inactive)
REMARK    1  A    between atoms: C_1  and  C_2
REMARK    2  A    between atoms: C_2  and  C_4
REMARK    3  A    between atoms: C_2  and  N_54
REMARK    4  A    between atoms: C_7  and  N_10
REMARK    5  A    between atoms: C_15  and  N_54
REMARK    6  A    between atoms: C_16  and  C_17
REMARK    7  A    between atoms: C_16  and  N_54
REMARK    8  A    between atoms: N_19  and  C_20
REMARK    9  A    between atoms: C_20  and  C_21
REMARK   10  A    between atoms: C_24  and  S_27
REMARK   11  A    between atoms: S_27  and  N_30
REMARK                            x       y       z     vdW  Elec       q    Type
REMARK                         _______ _______ _______ _____ _____    ______ ____
ROOT
ATOM      1  C   UNL     1      -0.712   1.867  -3.602  0.00  0.00    +0.019 C 
ENDROOT
BRANCH   1   2
ATOM      2  C   UNL     1       0.268   1.377  -2.566  0.00  0.00    +0.197 C 
ATOM      3  O   UNL     1       1.161   0.622  -2.886  0.00  0.00    -0.278 OA
ATOM      4  N   UNL     1       0.150   1.779  -1.285  0.00  0.00    -0.313 N 
ATOM      5  H   UNL     1      -0.565   2.383  -1.030  0.00  0.00    +0.149 HD
BRANCH   4   6
ATOM      6  C   UNL     1       1.102   1.303  -0.278  0.00  0.00    +0.139 C 
BRANCH   6   7
ATOM      7  C   UNL     1       0.753   1.895   1.063  0.00  0.00    -0.030 A 
ATOM      8  C   UNL     1       1.307   3.100   1.452  0.00  0.00    +0.007 A 
ATOM      9  C   UNL     1       0.983   3.645   2.680  0.00  0.00    +0.029 A 
ATOM     10  C   UNL     1       0.112   2.980   3.523  0.00  0.00    +0.105 A 
ATOM     11  C   UNL     1      -0.438   1.772   3.136  0.00  0.00    +0.029 A 
ATOM     12  C   UNL     1      -0.117   1.229   1.906  0.00  0.00    +0.007 A 
BRANCH  10  13
ATOM     13  S   UNL     1      -0.298   3.672   5.091  0.00  0.00    +0.056 S 
ATOM     14  O   UNL     1      -0.077   5.072   4.987  0.00  0.00    -0.153 OA
ATOM     15  O   UNL     1      -1.556   3.125   5.461  0.00  0.00    -0.153 OA
BRANCH  13  16
ATOM     16  N   UNL     1       0.808   3.100   6.183  0.00  0.00    -0.204 NA
ATOM     17  H   UNL     1       1.053   3.638   6.952  0.00  0.00    +0.144 HD
ATOM     18  H   UNL     1       1.209   2.226   6.054  0.00  0.00    +0.144 HD
ENDBRANCH  13  16
ENDBRANCH  10  13
ENDBRANCH   6   7
ENDBRANCH   4   6
ENDBRANCH   1   2
BRANCH   1  20
ATOM     19  C   UNL     1      -0.563  -0.166  -4.908  0.00  0.00    -0.095 C 
ATOM     20  N   UNL     1      -0.343   1.296  -4.914  0.00  0.00    +0.388 N 
ATOM     21  H   UNL     1       0.650   1.483  -5.093  0.00  0.00    -0.081 HD
BRANCH  20  23
ATOM     22  C   UNL     1      -0.728   1.337  -7.332  0.00  0.00    -0.008 C 
ATOM     23  C   UNL     1      -1.149   1.923  -5.983  0.00  0.00    -0.041 C 
BRANCH  23  24
ATOM     24  C   UNL     1      -0.895   3.408  -5.979  0.00  0.00    -0.061 A 
ATOM     25  C   UNL     1       0.398   3.887  -5.869  0.00  0.00    +0.004 A 
ATOM     26  C   UNL     1       0.634   5.247  -5.871  0.00  0.00    +0.028 A 
ATOM     27  C   UNL     1      -0.428   6.135  -5.972  0.00  0.00    +0.067 A 
ATOM     28  C   UNL     1      -1.725   5.652  -6.077  0.00  0.00    +0.028 A 
ATOM     29  C   UNL     1      -1.955   4.290  -6.081  0.00  0.00    +0.004 A 
BRANCH  27  30
ATOM     30  N   UNL     1      -0.192   7.517  -5.969  0.00  0.00    -0.220 N 
ATOM     31  C   UNL     1       1.003   8.132  -5.869  0.00  0.00    +0.225 A 
ATOM     32  N   UNL     1       0.798   9.424  -5.907  0.00  0.00    -0.222 NA
ATOM     33  C   UNL     1      -0.506   9.672  -6.021  0.00  0.00    +0.245 A 
ATOM     34  N   UNL     1      -1.153   8.536  -6.064  0.00  0.00    -0.154 NA
ENDBRANCH  27  30
ENDBRANCH  23  24
ENDBRANCH  20  23
ENDBRANCH   1  20
TORSDOF 9
