REMARK  Name = ZINC13896471
REMARK  4 active torsions:
REMARK  status: ('A' for Active; 'I' for Inactive)
REMARK    1  A    between atoms: C_1  and  C_2
REMARK    2  A    between atoms: C_6  and  N_8
REMARK    3  A    between atoms: C_9  and  C_11
REMARK    4  A    between atoms: N_21  and  O_22
REMARK                            x       y       z     vdW  Elec       q    Type
REMARK                         _______ _______ _______ _____ _____    ______ ____
ROOT
ATOM      1  C   UNL     1      -0.176  -4.861   3.640  0.00  0.00    +0.100 A 
ATOM      2  C   UNL     1      -0.149  -6.236   3.652  0.00  0.00    +0.030 A 
ATOM      3  C   UNL     1      -0.197  -6.904   4.956  0.00  0.00    +0.020 A 
ATOM      4  C   UNL     1       0.094  -8.268   5.072  0.00  0.00    +0.027 A 
ATOM      5  C   UNL     1       0.045  -8.873   6.309  0.00  0.00    +0.020 A 
ATOM      6  C   UNL     1      -0.290  -8.137   7.437  0.00  0.00    +0.034 A 
ATOM      7  C   UNL     1      -0.580  -6.790   7.337  0.00  0.00    +0.062 A 
ATOM      8  C   UNL     1      -0.538  -6.162   6.101  0.00  0.00    +0.151 A 
ATOM      9  O   UNL     1      -0.827  -4.842   5.987  0.00  0.00    -0.435 OA
ATOM     10  C   UNL     1      -0.247  -4.174   4.950  0.00  0.00    +0.239 A 
ATOM     11  N   UNL     1       0.227  -2.969   5.104  0.00  0.00    -0.196 N 
ATOM     12 BR   UNL     1      -1.034  -5.803   8.885  0.00  0.00    -0.046 Br
ATOM     13 BR   UNL     1       0.436 -10.716   6.470  0.00  0.00    -0.050 Br
ATOM     14  H   UNL     1       0.727  -2.550   4.387  0.00  0.00    +0.210 HD
ENDROOT
BRANCH   1  16
ATOM     15  N   UNL     1      -0.298  -2.766   2.390  0.00  0.00    -0.281 N 
ATOM     16  C   UNL     1      -0.132  -4.104   2.379  0.00  0.00    +0.253 C 
ATOM     17  O   UNL     1       0.056  -4.685   1.327  0.00  0.00    -0.270 OA
ATOM     18  H   UNL     1      -0.395  -2.296   3.233  0.00  0.00    +0.155 HD
BRANCH  15  24
ATOM     19  C   UNL     1      -2.089   0.951  -0.282  0.00  0.00    +0.044 C 
ATOM     20  C   UNL     1      -1.191  -0.250  -0.138  0.00  0.00    -0.049 A 
ATOM     21  C   UNL     1      -0.399  -0.652  -1.198  0.00  0.00    +0.003 A 
ATOM     22  C   UNL     1       0.426  -1.754  -1.070  0.00  0.00    +0.002 A 
ATOM     23  C   UNL     1       0.462  -2.457   0.119  0.00  0.00    +0.023 A 
ATOM     24  C   UNL     1      -0.332  -2.056   1.185  0.00  0.00    +0.034 A 
ATOM     25  C   UNL     1      -1.155  -0.945   1.055  0.00  0.00    +0.026 A 
ENDBRANCH  15  24
ENDBRANCH   1  16
BRANCH  11  26
ATOM     26  O   UNL     1       0.011  -2.273   6.319  0.00  0.00    -0.431 OA
ATOM     27  H   UNL     1       0.400  -1.388   6.339  0.00  0.00    +0.325 HD
ENDBRANCH  11  26
TORSDOF 3
