REMARK  Name = ZINC13163803
REMARK  6 active torsions:
REMARK  status: ('A' for Active; 'I' for Inactive)
REMARK    1  A    between atoms: C_6  and  N_7
REMARK    2  A    between atoms: C_8  and  C_10
REMARK    3  A    between atoms: C_10  and  S_11
REMARK    4  A    between atoms: S_11  and  C_12
REMARK    5  A    between atoms: N_17  and  C_18
REMARK    6  A    between atoms: C_18  and  C_19
REMARK                            x       y       z     vdW  Elec       q    Type
REMARK                         _______ _______ _______ _____ _____    ______ ____
ROOT
ATOM      1  N   UNL     1      -1.240   2.065   0.019  0.00  0.00    -0.284 N 
ATOM      2  C   UNL     1      -2.396   1.379  -0.081  0.00  0.00    +0.227 C 
ATOM      3  O   UNL     1      -2.382   0.166  -0.088  0.00  0.00    -0.275 OA
ATOM      4  H   UNL     1      -1.256   3.032   0.090  0.00  0.00    +0.155 HD
ENDROOT
BRANCH   1  10
ATOM      5  C   UNL     1       0.078   0.134   0.618  0.00  0.00    +0.052 A 
ATOM      6  C   UNL     1       1.288  -0.542   0.613  0.00  0.00    +0.069 A 
ATOM      7  C   UNL     1       2.406   0.034   0.006  0.00  0.00    +0.068 A 
ATOM      8  C   UNL     1       2.304   1.282  -0.592  0.00  0.00    +0.045 A 
ATOM      9  C   UNL     1       1.098   1.953  -0.584  0.00  0.00    +0.041 A 
ATOM     10  C   UNL     1      -0.017   1.382   0.020  0.00  0.00    +0.050 A 
ATOM     11 BR   UNL     1       0.961   3.654  -1.399  0.00  0.00    -0.048 Br
ATOM     12  N   UNL     1       3.457  -0.869   0.159  0.00  0.00    -0.306 N 
ATOM     13  H   UNL     1       4.364  -0.745  -0.162  0.00  0.00    +0.170 HD
ATOM     14  C   UNL     1       2.999  -1.943   0.829  0.00  0.00    +0.325 A 
ATOM     15  O   UNL     1       3.663  -2.918   1.128  0.00  0.00    -0.247 OA
ATOM     16  N   UNL     1       1.694  -1.776   1.116  0.00  0.00    -0.306 N 
ATOM     17  H   UNL     1       1.133  -2.407   1.593  0.00  0.00    +0.170 HD
ENDBRANCH   1  10
BRANCH   2  18
ATOM     18  C   UNL     1      -3.705   2.118  -0.184  0.00  0.00    +0.172 C 
BRANCH  18  19
ATOM     19  S   UNL     1      -5.066   0.924  -0.304  0.00  0.00    -0.088 S 
BRANCH  19  20
ATOM     20  C   UNL     1      -6.507   1.931  -0.417  0.00  0.00    +0.160 A 
ATOM     21  N   UNL     1      -6.611   3.246  -0.417  0.00  0.00    -0.133 NA
ATOM     22  N   UNL     1      -7.850   3.835  -0.516  0.00  0.00    -0.125 NA
ATOM     23  C   UNL     1      -8.928   3.083  -0.611  0.00  0.00    +0.182 A 
ATOM     24  S   UNL     1      -8.219   1.444  -0.569  0.00  0.00    -0.025 S 
ATOM     25  N   UNL     1     -10.261   3.463  -0.719  0.00  0.00    -0.320 N 
ATOM     26  H   UNL     1     -10.955   2.788  -0.781  0.00  0.00    +0.148 HD
BRANCH  25  27
ATOM     27  C   UNL     1     -10.618   4.884  -0.739  0.00  0.00    +0.135 C 
BRANCH  27  28
ATOM     28  C   UNL     1     -12.136   5.026  -0.864  0.00  0.00    +0.135 C 
ATOM     29  C   UNL     1     -12.526   6.514  -1.014  0.00  0.00    +0.035 C 
ATOM     30  C   UNL     1     -13.840   6.640  -0.211  0.00  0.00    +0.031 C 
ATOM     31  C   UNL     1     -14.089   5.214   0.329  0.00  0.00    +0.160 C 
ATOM     32  O   UNL     1     -12.784   4.596   0.352  0.00  0.00    -0.375 OA
ENDBRANCH  27  28
ENDBRANCH  25  27
ENDBRANCH  19  20
ENDBRANCH  18  19
ENDBRANCH   2  18
TORSDOF 6
