REMARK  Name = ZINC39467330
REMARK  6 active torsions:
REMARK  status: ('A' for Active; 'I' for Inactive)
REMARK    1  A    between atoms: C_4  and  O_7
REMARK    2  A    between atoms: O_7  and  S_8
REMARK    3  A    between atoms: S_8  and  C_11
REMARK    4  A    between atoms: C_23  and  O_24
REMARK    5  A    between atoms: P_27  and  C_30
REMARK    6  A    between atoms: C_35  and  O_36
REMARK                            x       y       z     vdW  Elec       q    Type
REMARK                         _______ _______ _______ _____ _____    ______ ____
ROOT
ATOM      1  C   UNL     1       3.071  -2.384   1.880  0.00  0.00    +0.165 C 
ATOM      2  C   UNL     1       3.652  -3.562   2.105  0.00  0.00    +0.009 C 
ATOM      3  C   UNL     1       2.800  -4.716   2.553  0.00  0.00    +0.006 C 
ATOM      4  C   UNL     1       3.621  -5.775   3.279  0.00  0.00    -0.046 C 
ATOM      5  N   UNL     1       2.754  -6.904   3.659  0.00  0.00    +0.398 N 
ATOM      6  C   UNL     1       1.674  -6.476   4.546  0.00  0.00    -0.020 C 
ATOM      7  C   UNL     1       0.829  -5.370   3.896  0.00  0.00    -0.002 C 
ATOM      8  C   UNL     1       1.732  -4.198   3.525  0.00  0.00    +0.019 C 
ATOM      9  C   UNL     1       0.956  -3.099   2.852  0.00  0.00    +0.024 C 
ATOM     10  C   UNL     1       1.613  -2.239   2.067  0.00  0.00    +0.141 C 
ATOM     11  C   UNL     1       0.714  -7.630   4.861  0.00  0.00    +0.157 C 
ATOM     12  O   UNL     1       1.432  -8.674   5.545  0.00  0.00    -0.316 OA
ATOM     13  P   UNL     1       2.827  -9.190   4.886  0.00  0.00    +0.291 P 
ATOM     14  O   UNL     1       2.553 -10.149   3.792  0.00  0.00    -0.269 OA
ATOM     15  N   UNL     1       3.567  -7.818   4.296  0.00  0.00    -0.288 NA
ATOM     16  H   UNL     1       4.521  -7.669   4.379  0.00  0.00    +0.111 HD
ATOM     17  H   UNL     1       2.363  -7.324   2.828  0.00  0.00    -0.055 HD
ENDROOT
BRANCH  13  18
ATOM     18  C   UNL     1       3.872  -9.963   6.151  0.00  0.00    +0.091 A 
ATOM     19  C   UNL     1       4.769  -9.197   6.870  0.00  0.00    +0.018 A 
ATOM     20  C   UNL     1       5.566  -9.786   7.834  0.00  0.00    +0.001 A 
ATOM     21  C   UNL     1       5.467 -11.143   8.082  0.00  0.00    +0.004 A 
ATOM     22  C   UNL     1       4.572 -11.913   7.366  0.00  0.00    +0.046 A 
ATOM     23  C   UNL     1       3.767 -11.324   6.402  0.00  0.00    +0.131 A 
BRANCH  23  24
ATOM     24  O   UNL     1       2.881 -12.079   5.700  0.00  0.00    -0.506 OA
ATOM     25  H   UNL     1       3.244 -12.457   4.888  0.00  0.00    +0.292 HD
ENDBRANCH  23  24
ENDBRANCH  13  18
BRANCH   1  26
ATOM     26  S   UNL     1       4.038  -1.003   1.368  0.00  0.00    +0.154 S 
ATOM     27  O   UNL     1       5.394  -1.429   1.383  0.00  0.00    -0.131 OA
ATOM     28  O   UNL     1       3.583   0.113   2.120  0.00  0.00    -0.131 OA
BRANCH  26  29
ATOM     29  O   UNL     1       3.687  -0.721  -0.086  0.00  0.00    -0.342 OA
BRANCH  29  33
ATOM     30  C   UNL     1       5.313  -3.409  -2.759  0.00  0.00    +0.000 A 
ATOM     31  C   UNL     1       4.074  -3.657  -2.198  0.00  0.00    +0.004 A 
ATOM     32  C   UNL     1       3.527  -2.759  -1.303  0.00  0.00    +0.048 A 
ATOM     33  C   UNL     1       4.223  -1.607  -0.966  0.00  0.00    +0.157 A 
ATOM     34  C   UNL     1       5.466  -1.360  -1.530  0.00  0.00    +0.048 A 
ATOM     35  C   UNL     1       6.008  -2.262  -2.425  0.00  0.00    +0.004 A 
ENDBRANCH  29  33
ENDBRANCH  26  29
ENDBRANCH   1  26
BRANCH  10  36
ATOM     36  O   UNL     1       0.940  -1.239   1.440  0.00  0.00    -0.505 OA
ATOM     37  H   UNL     1      -0.009  -1.227   1.625  0.00  0.00    +0.292 HD
ENDBRANCH  10  36
TORSDOF 6
