REMARK  Name = ZINC38547404
REMARK  7 active torsions:
REMARK  status: ('A' for Active; 'I' for Inactive)
REMARK    1  A    between atoms: C_1  and  C_2
REMARK    2  A    between atoms: C_6  and  N_8
REMARK    3  A    between atoms: N_8  and  C_9
REMARK    4  A    between atoms: C_9  and  C_11
REMARK    5  A    between atoms: C_9  and  C_17
REMARK    6  A    between atoms: C_21  and  N_22
REMARK    7  A    between atoms: C_23  and  C_25
REMARK                            x       y       z     vdW  Elec       q    Type
REMARK                         _______ _______ _______ _____ _____    ______ ____
ROOT
ATOM      1  C   UNL     1       0.800  -4.540   3.708  0.00  0.00    +0.011 A 
ATOM      2  C   UNL     1       1.815  -5.493   3.622  0.00  0.00    -0.030 A 
ATOM      3  C   UNL     1       2.408  -5.859   4.790  0.00  0.00    -0.005 A 
ATOM      4  S   UNL     1       1.570  -4.890   6.015  0.00  0.00    -0.078 S 
ATOM      5  C   UNL     1       0.456  -4.025   4.919  0.00  0.00    +0.078 A 
ATOM      6  C   UNL     1       3.509  -6.851   4.981  0.00  0.00    +0.043 C 
ATOM      7  C   UNL     1       3.639  -7.682   3.695  0.00  0.00    +0.005 C 
ATOM      8  C   UNL     1       3.650  -6.731   2.495  0.00  0.00    +0.005 C 
ATOM      9  C   UNL     1       2.264  -6.115   2.303  0.00  0.00    +0.036 C 
ENDROOT
BRANCH   5  10
ATOM     10  N   UNL     1      -0.515  -3.070   5.225  0.00  0.00    -0.273 N 
ATOM     11  C   UNL     1      -0.627  -2.602   6.484  0.00  0.00    +0.284 C 
ATOM     12  O   UNL     1       0.118  -3.013   7.354  0.00  0.00    -0.266 OA
ATOM     13  H   UNL     1      -1.110  -2.743   4.532  0.00  0.00    +0.156 HD
BRANCH  11  14
ATOM     14  C   UNL     1      -1.647  -1.599   6.806  0.00  0.00    +0.189 A 
ATOM     15  C   UNL     1      -1.864  -1.040   8.033  0.00  0.00    +0.054 A 
ATOM     16  C   UNL     1      -2.929  -0.137   7.882  0.00  0.00    +0.042 A 
ATOM     17  C   UNL     1      -3.310  -0.184   6.587  0.00  0.00    +0.196 A 
ATOM     18  O   UNL     1      -2.532  -1.063   5.940  0.00  0.00    -0.458 OA
ENDBRANCH  11  14
ENDBRANCH   5  10
BRANCH   1  19
ATOM     19  C   UNL     1       0.090  -4.078   2.462  0.00  0.00    +0.153 C 
BRANCH  19  20
ATOM     20  C   UNL     1      -1.303  -4.654   2.434  0.00  0.00    +0.066 A 
ATOM     21  C   UNL     1      -2.389  -3.810   2.299  0.00  0.00    +0.025 A 
ATOM     22  C   UNL     1      -3.665  -4.350   2.275  0.00  0.00    +0.003 A 
ATOM     23  C   UNL     1      -3.802  -5.725   2.387  0.00  0.00    +0.020 A 
ATOM     24  C   UNL     1      -2.670  -6.506   2.519  0.00  0.00    +0.111 A 
ATOM     25  N   UNL     1      -1.470  -5.958   2.533  0.00  0.00    -0.258 NA
ENDBRANCH  19  20
BRANCH  19  26
ATOM     26  N   UNL     1       0.013  -2.615   2.457  0.00  0.00    -0.318 N 
ATOM     27  H   UNL     1       0.031  -2.126   3.295  0.00  0.00    +0.148 HD
BRANCH  26  33
ATOM     28  C   UNL     1      -0.326   1.589   0.192  0.00  0.00    +0.063 C 
ATOM     29  C   UNL     1      -0.250   0.085   0.135  0.00  0.00    +0.014 A 
ATOM     30  C   UNL     1      -0.281  -0.553  -1.089  0.00  0.00    +0.021 A 
ATOM     31  C   UNL     1      -0.211  -1.939  -1.136  0.00  0.00    +0.005 A 
ATOM     32  C   UNL     1      -0.112  -2.636   0.056  0.00  0.00    +0.041 A 
ATOM     33  C   UNL     1      -0.086  -1.928   1.253  0.00  0.00    +0.097 A 
ATOM     34  N   UNL     1      -0.150  -0.605   1.255  0.00  0.00    -0.347 N 
ATOM     35  H   UNL     1      -0.126  -0.132   2.102  0.00  0.00    +0.167 HD
ENDBRANCH  26  33
ENDBRANCH  19  26
ENDBRANCH   1  19
TORSDOF 6
