REMARK  Name = ZINC45192072
REMARK  7 active torsions:
REMARK  status: ('A' for Active; 'I' for Inactive)
REMARK    1  A    between atoms: C_1  and  C_2
REMARK    2  A    between atoms: C_2  and  N_9
REMARK    3  A    between atoms: N_9  and  N_10
REMARK    4  A    between atoms: N_13  and  C_14
REMARK    5  A    between atoms: C_14  and  C_15
REMARK    6  A    between atoms: C_20  and  C_21
REMARK    7  A    between atoms: C_21  and  N_22
REMARK                            x       y       z     vdW  Elec       q    Type
REMARK                         _______ _______ _______ _____ _____    ______ ____
ROOT
ATOM      1  N   UNL     1      -2.107  -0.036  -1.006  0.00  0.00    -0.234 N 
ATOM      2  C   UNL     1      -3.404  -0.376  -1.133  0.00  0.00    +0.314 C 
ATOM      3  O   UNL     1      -4.049   0.031  -2.081  0.00  0.00    -0.252 OA
ATOM      4  N   UNL     1      -3.988  -1.167  -0.211  0.00  0.00    -0.294 N 
ATOM      5  H   UNL     1      -1.687   0.533  -1.669  0.00  0.00    +0.171 HD
ATOM      6  H   UNL     1      -3.473  -1.491   0.545  0.00  0.00    +0.151 HD
ENDROOT
BRANCH   1   7
ATOM      7  N   UNL     1      -1.382  -0.492   0.059  0.00  0.00    -0.232 NA
ATOM      8  H   UNL     1      -1.821  -0.237   0.931  0.00  0.00    +0.145 HD
BRANCH   7  10
ATOM      9  C   UNL     1      -0.019   1.526   0.010  0.00  0.00    +0.031 C 
ATOM     10  C   UNL     1       0.002  -0.004   0.002  0.00  0.00    +0.054 C 
ATOM     11  C   UNL     1       0.632  -0.478  -1.307  0.00  0.00    +0.047 C 
ATOM     12  C   UNL     1       2.169  -0.637  -1.140  0.00  0.00    +0.168 C 
ATOM     13  S   UNL     1       2.220  -1.358   0.560  0.00  0.00    -0.029 S 
ATOM     14  O   UNL     1       3.389  -0.902   1.226  0.00  0.00    -0.174 OA
ATOM     15  O   UNL     1       1.952  -2.752   0.484  0.00  0.00    -0.174 OA
ATOM     16  C   UNL     1       0.751  -0.495   1.257  0.00  0.00    +0.189 C 
ENDBRANCH   7  10
ENDBRANCH   1   7
BRANCH   4  17
ATOM     17  C   UNL     1      -5.398  -1.536  -0.349  0.00  0.00    +0.141 C 
BRANCH  17  18
ATOM     18  C   UNL     1      -5.802  -2.419   0.803  0.00  0.00    -0.029 A 
ATOM     19  C   UNL     1      -5.864  -3.790   0.636  0.00  0.00    +0.005 A 
ATOM     20  C   UNL     1      -6.234  -4.599   1.694  0.00  0.00    +0.000 A 
ATOM     21  C   UNL     1      -6.543  -4.037   2.919  0.00  0.00    +0.000 A 
ATOM     22  C   UNL     1      -6.480  -2.667   3.086  0.00  0.00    +0.002 A 
ATOM     23  C   UNL     1      -6.106  -1.858   2.030  0.00  0.00    -0.059 A 
BRANCH  23  24
ATOM     24  C   UNL     1      -6.032  -0.364   2.214  0.00  0.00    -0.043 C 
BRANCH  24  25
ATOM     25  N   UNL     1      -7.248   0.257   1.670  0.00  0.00    +0.382 N 
ATOM     26  C   UNL     1      -8.423  -0.100   2.506  0.00  0.00    -0.078 C 
ATOM     27  C   UNL     1      -9.443   1.020   2.181  0.00  0.00    -0.020 C 
ATOM     28  C   UNL     1      -8.548   2.273   2.043  0.00  0.00    -0.020 C 
ATOM     29  C   UNL     1      -7.141   1.730   1.734  0.00  0.00    -0.078 C 
ATOM     30  H   UNL     1      -7.395  -0.041   0.718  0.00  0.00    -0.081 HD
ENDBRANCH  24  25
ENDBRANCH  23  24
ENDBRANCH  17  18
ENDBRANCH   4  17
TORSDOF 6
