REMARK  Name = ZINC59310286
REMARK  5 active torsions:
REMARK  status: ('A' for Active; 'I' for Inactive)
REMARK    1  A    between atoms: C_9  and  C_17
REMARK    2  A    between atoms: N_18  and  N_19
REMARK    3  A    between atoms: C_22  and  S_25
REMARK    4  A    between atoms: S_25  and  C_26
REMARK    5  A    between atoms: C_26  and  C_27
REMARK                            x       y       z     vdW  Elec       q    Type
REMARK                         _______ _______ _______ _____ _____    ______ ____
ROOT
ATOM      1  N   UNL     1       3.830  -6.363   0.027  0.00  0.00    -0.205 N 
ATOM      2  C   UNL     1       2.651  -7.078   0.138  0.00  0.00    +0.232 A 
ATOM      3  N   UNL     1       1.444  -6.566   0.252  0.00  0.00    -0.186 NA
ATOM      4  C   UNL     1       0.543  -7.551   0.337  0.00  0.00    +0.211 A 
ATOM      5  N   UNL     1       1.167  -8.704   0.279  0.00  0.00    -0.144 NA
ATOM      6  N   UNL     1       2.536  -8.423   0.144  0.00  0.00    -0.245 N 
ATOM      7  H   UNL     1       4.675  -6.832  -0.057  0.00  0.00    +0.177 HD
ATOM      8  H   UNL     1       3.256  -9.068   0.071  0.00  0.00    +0.192 HD
ENDROOT
BRANCH   1  10
ATOM      9  C   UNL     1       4.896  -4.301  -0.068  0.00  0.00    +0.139 C 
ATOM     10  N   UNL     1       3.804  -4.963   0.035  0.00  0.00    -0.188 NA
BRANCH   9  19
ATOM     11  C   UNL     1      -0.016   1.312  -0.038  0.00  0.00    +0.001 A 
ATOM     12  C   UNL     1       1.244   2.079  -0.034  0.00  0.00    +0.008 A 
ATOM     13  C   UNL     1       2.388   1.440  -0.037  0.00  0.00    -0.017 A 
ATOM     14  C   UNL     1       3.684   2.140  -0.032  0.00  0.00    +0.009 A 
ATOM     15  C   UNL     1       4.804   1.449  -0.035  0.00  0.00    +0.009 A 
ATOM     16  C   UNL     1       4.823  -0.021  -0.043  0.00  0.00    -0.017 A 
ATOM     17  C   UNL     1       6.110  -0.745  -0.046  0.00  0.00    +0.009 A 
ATOM     18  C   UNL     1       6.128  -2.061  -0.054  0.00  0.00    +0.010 A 
ATOM     19  C   UNL     1       4.868  -2.829  -0.059  0.00  0.00    +0.002 A 
ATOM     20  C   UNL     1       3.724  -2.189  -0.056  0.00  0.00    -0.008 A 
ATOM     21  C   UNL     1       3.709  -0.714  -0.048  0.00  0.00    -0.002 A 
ATOM     22  C   UNL     1       2.402  -0.035  -0.045  0.00  0.00    -0.002 A 
ATOM     23  C   UNL     1       1.289  -0.728  -0.049  0.00  0.00    -0.017 A 
ATOM     24  C   UNL     1       0.002  -0.004  -0.046  0.00  0.00    +0.008 A 
ATOM     25  C   UNL     1       1.308  -2.198  -0.057  0.00  0.00    +0.009 A 
ATOM     26  C   UNL     1       2.427  -2.889  -0.060  0.00  0.00    +0.010 A 
ENDBRANCH   9  19
ENDBRANCH   1  10
BRANCH   4  27
ATOM     27  S   UNL     1      -1.198  -7.335   0.502  0.00  0.00    -0.075 S 
BRANCH  27  28
ATOM     28  C   UNL     1      -1.846  -9.029   0.564  0.00  0.00    +0.173 C 
BRANCH  28  29
ATOM     29  C   UNL     1      -3.345  -8.988   0.705  0.00  0.00    +0.229 C 
ATOM     30  O   UNL     1      -3.921  -7.921   0.760  0.00  0.00    -0.275 OA
ATOM     31  N   UNL     1      -4.048 -10.136   0.772  0.00  0.00    -0.263 N 
ATOM     32  C   UNL     1      -5.431 -10.099   0.903  0.00  0.00    +0.187 A 
ATOM     33  N   UNL     1      -6.232  -9.053   0.973  0.00  0.00    -0.126 NA
ATOM     34  N   UNL     1      -7.484  -9.178   1.092  0.00  0.00    -0.148 NA
ATOM     35  C   UNL     1      -8.005 -10.386   1.149  0.00  0.00    +0.183 A 
ATOM     36  S   UNL     1      -6.525 -11.378   1.006  0.00  0.00    -0.039 S 
ATOM     37  H   UNL     1      -3.587 -10.989   0.728  0.00  0.00    +0.157 HD
ENDBRANCH  28  29
ENDBRANCH  27  28
ENDBRANCH   4  27
TORSDOF 5
