REMARK  Name = ZINC34786424
REMARK  9 active torsions:
REMARK  status: ('A' for Active; 'I' for Inactive)
REMARK    1  A    between atoms: C_1  and  C_2
REMARK    2  A    between atoms: C_7  and  N_8
REMARK    3  A    between atoms: N_8  and  N_9
REMARK    4  A    between atoms: N_9  and  N_32
REMARK    5  A    between atoms: C_20  and  C_25
REMARK    6  A    between atoms: C_22  and  C_24
REMARK    7  A    between atoms: C_28  and  C_30
REMARK    8  A    between atoms: C_28  and  C_31
REMARK    9  A    between atoms: N_32  and  C_33
REMARK                            x       y       z     vdW  Elec       q    Type
REMARK                         _______ _______ _______ _____ _____    ______ ____
ROOT
ATOM      1  N   UNL     1      -0.150  -0.729   3.750  0.00  0.00    -0.151 N 
ATOM      2  C   UNL     1       1.019  -0.799   4.486  0.00  0.00    +0.170 A 
ATOM      3  C   UNL     1       1.137  -1.721   5.564  0.00  0.00    +0.054 A 
ATOM      4  C   UNL     1       0.154  -2.679   6.063  0.00  0.00    -0.020 A 
ATOM      5  C   UNL     1       0.521  -3.448   7.111  0.00  0.00    +0.021 A 
ATOM      6  S   UNL     1       2.176  -2.949   7.492  0.00  0.00    -0.071 S 
ATOM      7  C   UNL     1       2.374  -1.705   6.242  0.00  0.00    +0.116 A 
ATOM      8  N   UNL     1       3.344  -0.885   5.889  0.00  0.00    -0.203 NA
ATOM      9  C   UNL     1       3.177  -0.048   4.877  0.00  0.00    +0.254 A 
ATOM     10  N   UNL     1       2.041  -0.013   4.193  0.00  0.00    -0.192 NA
ATOM     11  N   UNL     1       4.216   0.812   4.522  0.00  0.00    -0.202 N 
ATOM     12  C   UNL     1       5.435   0.886   5.119  0.00  0.00    +0.045 A 
ATOM     13  C   UNL     1       6.148   1.840   4.478  0.00  0.00    +0.048 A 
ATOM     14  C   UNL     1       5.346   2.367   3.459  0.00  0.00    +0.061 A 
ATOM     15  N   UNL     1       4.193   1.750   3.481  0.00  0.00    -0.169 NA
ATOM     16  C   UNL     1       5.745   3.456   2.497  0.00  0.00    +0.067 C 
ATOM     17  C   UNL     1       5.906   0.055   6.285  0.00  0.00    +0.066 C 
ATOM     18  C   UNL     1      -0.320  -4.489   7.784  0.00  0.00    +0.203 C 
ATOM     19  O   UNL     1      -1.676  -4.314   7.344  0.00  0.00    -0.368 OA
ATOM     20  C   UNL     1      -1.802  -4.190   5.925  0.00  0.00    +0.068 C 
ATOM     21  C   UNL     1      -1.240  -2.844   5.460  0.00  0.00    +0.071 C 
ATOM     22  C   UNL     1      -1.030  -5.324   5.246  0.00  0.00    +0.041 C 
ATOM     23  C   UNL     1      -3.279  -4.284   5.537  0.00  0.00    +0.041 C 
ENDROOT
BRANCH   1  24
ATOM     24  N   UNL     1      -1.367  -0.460   4.392  0.00  0.00    -0.246 N 
ATOM     25  H   UNL     1      -2.033  -1.159   4.480  0.00  0.00    +0.172 HD
BRANCH  24  32
ATOM     26  C   UNL     1      -3.944   0.064   5.475  0.00  0.00    +0.046 C 
ATOM     27  C   UNL     1      -2.864   1.114   5.443  0.00  0.00    -0.028 A 
ATOM     28  C   UNL     1      -3.108   2.374   5.954  0.00  0.00    +0.005 A 
ATOM     29  C   UNL     1      -2.118   3.337   5.925  0.00  0.00    +0.000 A 
ATOM     30  C   UNL     1      -0.879   3.044   5.385  0.00  0.00    +0.002 A 
ATOM     31  C   UNL     1      -0.627   1.787   4.872  0.00  0.00    +0.025 A 
ATOM     32  C   UNL     1      -1.619   0.814   4.904  0.00  0.00    +0.049 A 
ENDBRANCH  24  32
ENDBRANCH   1  24
BRANCH   1  33
ATOM     33  N   UNL     1      -0.118  -0.927   2.364  0.00  0.00    -0.246 N 
ATOM     34  H   UNL     1      -0.169  -0.167   1.764  0.00  0.00    +0.172 HD
BRANCH  33  35
ATOM     35  C   UNL     1      -0.013  -2.220   1.845  0.00  0.00    +0.046 A 
ATOM     36  C   UNL     1       0.177  -3.299   2.699  0.00  0.00    +0.024 A 
ATOM     37  C   UNL     1       0.281  -4.576   2.183  0.00  0.00    +0.002 A 
ATOM     38  C   UNL     1       0.195  -4.781   0.819  0.00  0.00    +0.000 A 
ATOM     39  C   UNL     1       0.006  -3.709  -0.034  0.00  0.00    +0.002 A 
ATOM     40  C   UNL     1      -0.104  -2.430   0.475  0.00  0.00    +0.024 A 
ENDBRANCH  33  35
ENDBRANCH   1  33
TORSDOF 4
