REMARK  Name = ZINC09671510
REMARK  8 active torsions:
REMARK  status: ('A' for Active; 'I' for Inactive)
REMARK    1  A    between atoms: C_1  and  C_2
REMARK    2  A    between atoms: C_6  and  S_8
REMARK    3  A    between atoms: S_8  and  N_11
REMARK    4  A    between atoms: N_11  and  C_12
REMARK    5  A    between atoms: C_12  and  C_14
REMARK    6  A    between atoms: C_12  and  C_25
REMARK    7  A    between atoms: C_14  and  C_15
REMARK    8  A    between atoms: C_31  and  C_33
REMARK                            x       y       z     vdW  Elec       q    Type
REMARK                         _______ _______ _______ _____ _____    ______ ____
ROOT
ATOM      1  C   UNL     1      -3.178   0.240  -2.975  0.00  0.00    +0.167 C 
ENDROOT
BRANCH   1   2
ATOM      2  C   UNL     1      -2.003  -0.279  -2.188  0.00  0.00    +0.235 C 
ATOM      3  O   UNL     1      -1.065  -0.790  -2.764  0.00  0.00    -0.274 OA
ATOM      4  N   UNL     1      -1.993  -0.175  -0.844  0.00  0.00    -0.293 N 
ATOM      5  C   UNL     1      -3.023   0.492  -0.027  0.00  0.00    +0.108 C 
ATOM      6  C   UNL     1      -2.910  -0.170   1.370  0.00  0.00    +0.021 C 
ATOM      7  C   UNL     1      -1.377  -0.374   1.495  0.00  0.00    +0.029 C 
ATOM      8  C   UNL     1      -0.953  -0.707   0.049  0.00  0.00    +0.113 C 
BRANCH   8   9
ATOM      9  C   UNL     1       0.370  -0.057  -0.261  0.00  0.00    +0.010 A 
ATOM     10  C   UNL     1       1.605  -0.613  -0.304  0.00  0.00    +0.013 A 
ATOM     11  C   UNL     1       2.690   0.185  -0.614  0.00  0.00    +0.008 A 
ATOM     12  C   UNL     1       2.486   1.502  -0.866  0.00  0.00    +0.045 A 
ATOM     13  S   UNL     1       0.718   1.646  -0.667  0.00  0.00    -0.100 S 
ENDBRANCH   8   9
ENDBRANCH   1   2
BRANCH   1  14
ATOM     14  N   UNL     1      -2.885   0.148  -4.408  0.00  0.00    -0.178 NA
ATOM     15  H   UNL     1      -2.370  -0.599  -4.751  0.00  0.00    +0.149 HD
BRANCH  14  16
ATOM     16  S   UNL     1      -3.434   1.319  -5.442  0.00  0.00    +0.059 S 
ATOM     17  O   UNL     1      -2.938   0.987  -6.732  0.00  0.00    -0.153 OA
ATOM     18  O   UNL     1      -4.821   1.477  -5.177  0.00  0.00    -0.153 OA
BRANCH  16  24
ATOM     19  C   UNL     1       0.481   4.764  -5.793  0.00  0.00    +0.044 C 
ATOM     20  C   UNL     1      -0.838   4.374  -5.177  0.00  0.00    -0.049 A 
ATOM     21  C   UNL     1      -1.439   5.203  -4.248  0.00  0.00    +0.003 A 
ATOM     22  C   UNL     1      -2.649   4.845  -3.684  0.00  0.00    +0.002 A 
ATOM     23  C   UNL     1      -3.261   3.662  -4.052  0.00  0.00    +0.028 A 
ATOM     24  C   UNL     1      -2.657   2.831  -4.977  0.00  0.00    +0.106 A 
ATOM     25  C   UNL     1      -1.447   3.188  -5.542  0.00  0.00    +0.032 A 
ENDBRANCH  16  24
ENDBRANCH  14  16
ENDBRANCH   1  14
BRANCH   1  26
ATOM     26  C   UNL     1      -4.418  -0.597  -2.653  0.00  0.00    +0.067 C 
BRANCH  26  27
ATOM     27  C   UNL     1      -4.182  -2.025  -3.073  0.00  0.00    -0.020 A 
ATOM     28  C   UNL     1      -4.479  -2.567  -4.265  0.00  0.00    +0.087 A 
ATOM     29  N   UNL     1      -4.121  -3.887  -4.279  0.00  0.00    -0.360 N 
ATOM     30  H   UNL     1      -4.237  -4.488  -5.032  0.00  0.00    +0.165 HD
ATOM     31  C   UNL     1      -3.571  -4.237  -3.066  0.00  0.00    +0.047 A 
ATOM     32  C   UNL     1      -3.580  -3.084  -2.259  0.00  0.00    +0.003 A 
ATOM     33  C   UNL     1      -3.082  -3.143  -0.957  0.00  0.00    +0.010 A 
ATOM     34  C   UNL     1      -2.578  -4.318  -0.475  0.00  0.00    +0.001 A 
ATOM     35  C   UNL     1      -2.562  -5.456  -1.269  0.00  0.00    +0.002 A 
ATOM     36  C   UNL     1      -3.054  -5.422  -2.556  0.00  0.00    +0.026 A 
ENDBRANCH  26  27
ENDBRANCH   1  26
TORSDOF 7
