REMARK  Name = ZINC58989037
REMARK  7 active torsions:
REMARK  status: ('A' for Active; 'I' for Inactive)
REMARK    1  A    between atoms: C_3  and  C_7
REMARK    2  A    between atoms: C_10  and  S_13
REMARK    3  A    between atoms: N_11  and  N_12
REMARK    4  A    between atoms: S_13  and  C_14
REMARK    5  A    between atoms: C_14  and  C_15
REMARK    6  A    between atoms: N_17  and  N_18
REMARK    7  A    between atoms: C_19  and  C_20
REMARK                            x       y       z     vdW  Elec       q    Type
REMARK                         _______ _______ _______ _____ _____    ______ ____
ROOT
ATOM      1  S   UNL     1       7.557   2.347   0.340  0.00  0.00    -0.075 S 
ENDROOT
BRANCH   1   5
ATOM      2  C   UNL     1       3.680   2.029  -0.023  0.00  0.00    +0.183 A 
ATOM      3  N   UNL     1       3.891   3.297  -0.286  0.00  0.00    -0.127 NA
ATOM      4  N   UNL     1       5.146   3.560  -0.204  0.00  0.00    -0.121 NA
ATOM      5  C   UNL     1       5.814   2.474   0.116  0.00  0.00    +0.209 A 
ATOM      6  N   UNL     1       4.905   1.464   0.249  0.00  0.00    -0.224 N 
BRANCH   2   9
ATOM      7  C   UNL     1      -0.017   1.379   0.010  0.00  0.00    +0.020 A 
ATOM      8  C   UNL     1       1.181   2.073   0.002  0.00  0.00    +0.014 A 
ATOM      9  C   UNL     1       2.373   1.339  -0.013  0.00  0.00    +0.039 A 
ATOM     10  C   UNL     1       2.306  -0.055  -0.020  0.00  0.00    +0.122 A 
ATOM     11  N   UNL     1       1.141  -0.670  -0.013  0.00  0.00    -0.263 NA
ATOM     12  C   UNL     1       0.002  -0.004   0.002  0.00  0.00    +0.111 A 
ENDBRANCH   2   9
BRANCH   6  13
ATOM     13  N   UNL     1       5.158   0.163   0.579  0.00  0.00    -0.295 N 
ATOM     14  H   UNL     1       5.330  -0.393  -0.245  0.00  0.00    +0.163 HD
ATOM     15  H   UNL     1       5.930   0.098   1.226  0.00  0.00    +0.163 HD
ENDBRANCH   6  13
ENDBRANCH   1   5
BRANCH   1  16
ATOM     16  C   UNL     1       8.163   4.028   0.028  0.00  0.00    +0.174 C 
BRANCH  16  17
ATOM     17  C   UNL     1       9.662   4.060   0.189  0.00  0.00    +0.242 C 
ATOM     18  O   UNL     1      10.261   3.047   0.485  0.00  0.00    -0.273 OA
ATOM     19  N   UNL     1      10.335   5.212   0.004  0.00  0.00    -0.206 N 
ATOM     20  H   UNL     1       9.855   6.021  -0.233  0.00  0.00    +0.177 HD
BRANCH  19  21
ATOM     21  N   UNL     1      11.728   5.242   0.153  0.00  0.00    -0.188 NA
ATOM     22  C   UNL     1      12.376   6.352  -0.025  0.00  0.00    +0.139 C 
BRANCH  22  23
ATOM     23  C   UNL     1      13.842   6.383   0.132  0.00  0.00    +0.013 A 
ATOM     24  C   UNL     1      14.542   7.577  -0.053  0.00  0.00    +0.012 A 
ATOM     25  C   UNL     1      15.913   7.600   0.096  0.00  0.00    +0.021 A 
ATOM     26  C   UNL     1      16.596   6.441   0.428  0.00  0.00    +0.042 A 
ATOM     27  C   UNL     1      15.909   5.254   0.613  0.00  0.00    +0.040 A 
ATOM     28  C   UNL     1      14.536   5.218   0.473  0.00  0.00    +0.051 A 
ATOM     29 CL   UNL     1      13.675   3.730   0.713  0.00  0.00    -0.083 Cl
ATOM     30 CL   UNL     1      18.322   6.479   0.612  0.00  0.00    -0.083 Cl
ENDBRANCH  22  23
ENDBRANCH  19  21
ENDBRANCH  16  17
ENDBRANCH   1  16
TORSDOF 7
