REMARK  Name = ZINC09781005
REMARK  9 active torsions:
REMARK  status: ('A' for Active; 'I' for Inactive)
REMARK    1  A    between atoms: C_1  and  C_2
REMARK    2  A    between atoms: C_4  and  N_9
REMARK    3  A    between atoms: C_6  and  C_8
REMARK    4  A    between atoms: N_9  and  S_10
REMARK    5  A    between atoms: S_10  and  C_13
REMARK    6  A    between atoms: C_16  and  N_19
REMARK    7  A    between atoms: C_20  and  C_22
REMARK    8  A    between atoms: C_29  and  C_34
REMARK    9  A    between atoms: C_31  and  C_33
REMARK                            x       y       z     vdW  Elec       q    Type
REMARK                         _______ _______ _______ _____ _____    ______ ____
ROOT
ATOM      1  C   UNL     1       5.239   6.324   7.091  0.00  0.00    +0.109 A 
ATOM      2  C   UNL     1       5.317   5.121   7.768  0.00  0.00    +0.030 A 
ATOM      3  C   UNL     1       4.559   4.043   7.355  0.00  0.00    +0.025 A 
ATOM      4  C   UNL     1       3.717   4.169   6.258  0.00  0.00    +0.034 A 
ATOM      5  C   UNL     1       3.645   5.377   5.576  0.00  0.00    +0.025 A 
ATOM      6  C   UNL     1       4.403   6.452   5.997  0.00  0.00    +0.030 A 
ENDROOT
BRANCH   4   7
ATOM      7  N   UNL     1       2.947   3.080   5.836  0.00  0.00    -0.281 N 
ATOM      8  C   UNL     1       1.729   3.284   5.297  0.00  0.00    +0.252 C 
ATOM      9  O   UNL     1       1.258   4.404   5.265  0.00  0.00    -0.270 OA
ATOM     10  H   UNL     1       3.291   2.178   5.932  0.00  0.00    +0.155 HD
BRANCH   8  11
ATOM     11  C   UNL     1       0.967   2.147   4.746  0.00  0.00    +0.079 A 
ATOM     12  C   UNL     1       1.506   0.861   4.783  0.00  0.00    +0.017 A 
ATOM     13  C   UNL     1       0.796  -0.203   4.269  0.00  0.00    +0.001 A 
ATOM     14  C   UNL     1      -0.459   0.004   3.717  0.00  0.00    +0.007 A 
ATOM     15  C   UNL     1      -1.002   1.269   3.679  0.00  0.00    +0.001 A 
ATOM     16  C   UNL     1      -0.305   2.359   4.184  0.00  0.00    +0.137 A 
ATOM     17  O   UNL     1      -1.009   3.510   4.027  0.00  0.00    -0.487 OA
ATOM     18  C   UNL     1      -2.394   3.194   3.809  0.00  0.00    +0.178 C 
ATOM     19  C   UNL     1      -2.326   1.792   3.157  0.00  0.00    +0.060 C 
ATOM     20  C   UNL     1      -2.309   1.899   1.631  0.00  0.00    +0.016 C 
ATOM     21  C   UNL     1      -3.037   4.204   2.857  0.00  0.00    +0.052 C 
ENDBRANCH   8  11
ENDBRANCH   4   7
BRANCH   1  22
ATOM     22  S   UNL     1       6.209   7.696   7.622  0.00  0.00    +0.073 S 
ATOM     23  O   UNL     1       5.548   8.864   7.156  0.00  0.00    -0.150 OA
ATOM     24  O   UNL     1       6.499   7.481   8.996  0.00  0.00    -0.150 OA
BRANCH  22  25
ATOM     25  N   UNL     1       7.653   7.616   6.815  0.00  0.00    -0.199 N 
ATOM     26  H   UNL     1       8.476   7.465   7.307  0.00  0.00    +0.175 HD
BRANCH  25  30
ATOM     27  C   UNL     1      10.160   7.795   2.583  0.00  0.00    +0.066 C 
ATOM     28  C   UNL     1       8.880   7.856   3.375  0.00  0.00    +0.044 A 
ATOM     29  C   UNL     1       8.899   7.706   4.748  0.00  0.00    +0.068 A 
ATOM     30  C   UNL     1       7.687   7.766   5.438  0.00  0.00    +0.141 A 
ATOM     31  N   UNL     1       6.566   7.974   4.754  0.00  0.00    -0.216 NA
ATOM     32  C   UNL     1       6.595   8.117   3.444  0.00  0.00    +0.128 A 
ATOM     33  N   UNL     1       7.722   8.061   2.763  0.00  0.00    -0.237 NA
ATOM     34  C   UNL     1       5.303   8.351   2.704  0.00  0.00    +0.088 C 
ENDBRANCH  25  30
ENDBRANCH  22  25
ENDBRANCH   1  22
TORSDOF 5
