REMARK  Name = ZINC12881055
REMARK  7 active torsions:
REMARK  status: ('A' for Active; 'I' for Inactive)
REMARK    1  A    between atoms: C_1  and  C_2
REMARK    2  A    between atoms: C_7  and  C_8
REMARK    3  A    between atoms: C_17  and  C_19
REMARK    4  A    between atoms: C_19  and  C_20
REMARK    5  A    between atoms: N_28  and  C_31
REMARK    6  A    between atoms: C_31  and  C_32
REMARK    7  A    between atoms: C_32  and  C_33
REMARK                            x       y       z     vdW  Elec       q    Type
REMARK                         _______ _______ _______ _____ _____    ______ ____
ROOT
ATOM      1  C   UNL     1       3.728  -0.659  -0.033  0.00  0.00    +0.044 C 
ATOM      2  C   UNL     1       2.404   0.061  -0.018  0.00  0.00    -0.046 A 
ATOM      3  C   UNL     1       2.374   1.444  -0.011  0.00  0.00    +0.004 A 
ATOM      4  C   UNL     1       1.158   2.105   0.002  0.00  0.00    +0.005 A 
ATOM      5  C   UNL     1      -0.017   1.387   0.010  0.00  0.00    -0.027 A 
ATOM      6  C   UNL     1       0.002  -0.004   0.002  0.00  0.00    +0.039 A 
ATOM      7  C   UNL     1       1.230  -0.662  -0.011  0.00  0.00    -0.026 A 
ATOM      8  C   UNL     1       1.275  -2.168  -0.017  0.00  0.00    +0.046 C 
ATOM      9  N   UNL     1      -1.302  -0.505   0.009  0.00  0.00    -0.286 N 
ATOM     10  C   UNL     1      -2.223   0.478   0.022  0.00  0.00    +0.211 C 
ATOM     11  O   UNL     1      -3.428   0.340   0.028  0.00  0.00    -0.277 OA
ATOM     12  C   UNL     1      -1.467   1.778   0.032  0.00  0.00    +0.050 C 
ATOM     13  C   UNL     1      -1.805   2.619   1.269  0.00  0.00    +0.088 C 
ATOM     14  C   UNL     1      -2.861   3.644   0.770  0.00  0.00    +0.073 C 
ATOM     15  C   UNL     1      -3.072   3.301  -0.720  0.00  0.00    -0.053 C 
ATOM     16  C   UNL     1      -4.111   3.284   1.542  0.00  0.00    +0.224 C 
ATOM     17  O   UNL     1      -5.177   3.853   1.455  0.00  0.00    -0.275 OA
ATOM     18  N   UNL     1      -3.856   2.238   2.338  0.00  0.00    -0.241 N 
ATOM     19  C   UNL     1      -2.601   1.779   2.266  0.00  0.00    +0.225 C 
ATOM     20  O   UNL     1      -2.161   0.843   2.899  0.00  0.00    -0.275 OA
ATOM     21  H   UNL     1      -1.518  -1.450   0.006  0.00  0.00    +0.155 HD
ATOM     22  N   UNL     1      -1.840   2.607  -1.101  0.00  0.00    +0.394 N 
ATOM     23  H   UNL     1      -2.003   2.023  -1.930  0.00  0.00    -0.083 HD
ATOM     24  H   UNL     1      -1.097   3.287  -1.303  0.00  0.00    -0.083 HD
ENDROOT
BRANCH  15  25
ATOM     25  C   UNL     1      -3.270   4.578  -1.540  0.00  0.00    +0.020 C 
BRANCH  25  26
ATOM     26  C   UNL     1      -3.521   4.216  -2.981  0.00  0.00    -0.049 A 
ATOM     27  C   UNL     1      -2.459   4.100  -3.859  0.00  0.00    +0.003 A 
ATOM     28  C   UNL     1      -2.689   3.764  -5.180  0.00  0.00    +0.000 A 
ATOM     29  C   UNL     1      -3.981   3.553  -5.625  0.00  0.00    +0.000 A 
ATOM     30  C   UNL     1      -5.042   3.674  -4.748  0.00  0.00    +0.000 A 
ATOM     31  C   UNL     1      -4.812   4.006  -3.426  0.00  0.00    +0.003 A 
ENDBRANCH  25  26
ENDBRANCH  15  25
BRANCH  18  32
ATOM     32  C   UNL     1      -4.868   1.646   3.216  0.00  0.00    +0.121 C 
BRANCH  32  33
ATOM     33  C   UNL     1      -5.610   0.539   2.464  0.00  0.00    +0.054 C 
BRANCH  33  34
ATOM     34  C   UNL     1      -6.651  -0.071   3.367  0.00  0.00    -0.046 A 
ATOM     35  C   UNL     1      -6.327  -1.154   4.162  0.00  0.00    +0.004 A 
ATOM     36  C   UNL     1      -7.281  -1.711   4.994  0.00  0.00    +0.000 A 
ATOM     37  C   UNL     1      -8.561  -1.190   5.023  0.00  0.00    +0.000 A 
ATOM     38  C   UNL     1      -8.886  -0.110   4.223  0.00  0.00    +0.000 A 
ATOM     39  C   UNL     1      -7.931   0.449   3.396  0.00  0.00    +0.004 A 
ENDBRANCH  33  34
ENDBRANCH  32  33
ENDBRANCH  18  32
TORSDOF 5
