REMARK  Name = ZINC19530439
REMARK  9 active torsions:
REMARK  status: ('A' for Active; 'I' for Inactive)
REMARK    1  A    between atoms: C_1  and  N_2
REMARK    2  A    between atoms: N_2  and  C_3
REMARK    3  A    between atoms: N_2  and  C_10
REMARK    4  A    between atoms: C_3  and  C_4
REMARK    5  A    between atoms: C_10  and  C_11
REMARK    6  A    between atoms: N_13  and  N_14
REMARK    7  A    between atoms: C_15  and  C_17
REMARK    8  A    between atoms: C_17  and  O_18
REMARK    9  A    between atoms: O_18  and  C_19
REMARK                            x       y       z     vdW  Elec       q    Type
REMARK                         _______ _______ _______ _____ _____    ______ ____
ROOT
ATOM      1  C   UNL     1       4.127   8.655   0.009  0.00  0.00    +0.213 C 
ATOM      2  O   UNL     1       5.253   8.205  -0.004  0.00  0.00    -0.276 OA
ATOM      3  N   UNL     1       3.068   7.821   0.015  0.00  0.00    -0.236 N 
ATOM      4  H   UNL     1       2.047   8.229   0.027  0.00  0.00    +0.173 HD
ENDROOT
BRANCH   3   5
ATOM      5  N   UNL     1       3.268   6.434   0.005  0.00  0.00    -0.232 N 
ATOM      6  C   UNL     1       2.209   5.601   0.011  0.00  0.00    +0.267 C 
ATOM      7  O   UNL     1       1.083   6.051   0.024  0.00  0.00    -0.271 OA
ATOM      8  H   UNL     1       4.290   6.026  -0.007  0.00  0.00    +0.173 HD
BRANCH   6   9
ATOM      9  C   UNL     1       2.425   4.109   0.001  0.00  0.00    +0.326 C 
BRANCH   9  10
ATOM     10  O   UNL     1       1.159   3.445   0.009  0.00  0.00    -0.483 OA
BRANCH  10  11
ATOM     11  C   UNL     1       1.176   2.086   0.002  0.00  0.00    +0.121 A 
ATOM     12  C   UNL     1      -0.017   1.377   0.010  0.00  0.00    +0.047 A 
ATOM     13  C   UNL     1       0.002  -0.004   0.002  0.00  0.00    +0.019 A 
ATOM     14  C   UNL     1       1.209  -0.680  -0.013  0.00  0.00    +0.018 A 
ATOM     15  C   UNL     1       2.399   0.025  -0.020  0.00  0.00    +0.019 A 
ATOM     16  C   UNL     1       2.385   1.406  -0.013  0.00  0.00    +0.047 A 
ATOM     17 BR   UNL     1       1.232  -2.571  -0.022  0.00  0.00    -0.050 Br
ENDBRANCH  10  11
ENDBRANCH   9  10
ENDBRANCH   6   9
ENDBRANCH   3   5
BRANCH   1  18
ATOM     18  C   UNL     1       3.912  10.146   0.019  0.00  0.00    +0.020 C 
BRANCH  18  20
ATOM     19  C   UNL     1       5.926  10.587  -1.251  0.00  0.00    -0.095 C 
ATOM     20  N   UNL     1       5.213  10.829   0.010  0.00  0.00    +0.387 N 
ATOM     21  H   UNL     1       5.819  10.411   0.827  0.00  0.00    -0.081 HD
BRANCH  20  22
ATOM     22  C   UNL     1       5.053  12.268   0.258  0.00  0.00    -0.035 C 
BRANCH  22  23
ATOM     23  C   UNL     1       6.407  12.891   0.486  0.00  0.00    -0.025 A 
ATOM     24  C   UNL     1       7.260  13.431  -0.418  0.00  0.00    +0.011 A 
ATOM     25  C   UNL     1       8.463  13.952   0.024  0.00  0.00    +0.028 A 
ATOM     26  C   UNL     1       8.752  13.907   1.348  0.00  0.00    +0.078 A 
ATOM     27  S   UNL     1       7.297  13.117   2.017  0.00  0.00    -0.084 S 
ATOM     28 CL   UNL     1      10.166  14.476   2.179  0.00  0.00    -0.076 Cl
ENDBRANCH  22  23
ENDBRANCH  20  22
ENDBRANCH  18  20
ENDBRANCH   1  18
TORSDOF 8
