REMARK  Name = ZINC39825028
REMARK  7 active torsions:
REMARK  status: ('A' for Active; 'I' for Inactive)
REMARK    1  A    between atoms: C_1  and  C_2
REMARK    2  A    between atoms: N_15  and  C_29
REMARK    3  A    between atoms: C_16  and  C_18
REMARK    4  A    between atoms: C_21  and  O_24
REMARK    5  A    between atoms: O_24  and  C_25
REMARK    6  A    between atoms: C_25  and  C_26
REMARK    7  A    between atoms: C_29  and  C_30
REMARK                            x       y       z     vdW  Elec       q    Type
REMARK                         _______ _______ _______ _____ _____    ______ ____
ROOT
ATOM      1  C   UNL     1      -0.029   1.516  -0.133  0.00  0.00    +0.044 C 
ATOM      2  C   UNL     1       0.019   0.010  -0.128  0.00  0.00    -0.050 A 
ATOM      3  C   UNL     1       0.102  -0.684  -1.327  0.00  0.00    +0.007 A 
ATOM      4  C   UNL     1       0.144  -2.060  -1.344  0.00  0.00    +0.047 A 
ATOM      5  C   UNL     1       0.104  -2.776  -0.148  0.00  0.00    +0.139 A 
ATOM      6  C   UNL     1       0.026  -2.063   1.060  0.00  0.00    +0.065 A 
ATOM      7  C   UNL     1      -0.014  -0.668   1.059  0.00  0.00    +0.018 A 
ATOM      8  C   UNL     1      -0.000  -2.815   2.340  0.00  0.00    +0.199 A 
ATOM      9  O   UNL     1      -0.234  -2.293   3.416  0.00  0.00    -0.287 OA
ATOM     10  C   UNL     1       0.281  -4.246   2.185  0.00  0.00    +0.072 A 
ATOM     11  C   UNL     1       0.340  -4.822   0.948  0.00  0.00    +0.199 A 
ATOM     12  O   UNL     1       0.139  -4.127  -0.188  0.00  0.00    -0.450 OA
ATOM     13  C   UNL     1       0.646  -6.254   1.119  0.00  0.00    +0.283 C 
ATOM     14  O   UNL     1       0.771  -7.052   0.212  0.00  0.00    -0.267 OA
ATOM     15  N   UNL     1       0.767  -6.548   2.430  0.00  0.00    -0.279 N 
ATOM     16  C   UNL     1       0.545  -5.312   3.197  0.00  0.00    +0.145 C 
ENDROOT
BRANCH  16  17
ATOM     17  C   UNL     1       1.773  -4.972   4.002  0.00  0.00    -0.022 A 
ATOM     18  C   UNL     1       3.027  -5.090   3.430  0.00  0.00    +0.009 A 
ATOM     19  C   UNL     1       4.154  -4.779   4.166  0.00  0.00    +0.046 A 
ATOM     20  C   UNL     1       4.028  -4.349   5.479  0.00  0.00    +0.121 A 
ATOM     21  C   UNL     1       2.769  -4.232   6.050  0.00  0.00    +0.046 A 
ATOM     22  C   UNL     1       1.644  -4.538   5.308  0.00  0.00    +0.009 A 
BRANCH  20  23
ATOM     23  O   UNL     1       5.135  -4.043   6.205  0.00  0.00    -0.483 OA
BRANCH  23  24
ATOM     24  C   UNL     1       4.929  -3.607   7.550  0.00  0.00    +0.324 C 
BRANCH  24  25
ATOM     25  C   UNL     1       6.261  -3.316   8.193  0.00  0.00    +0.248 C 
ATOM     26  O   UNL     1       7.285  -3.468   7.561  0.00  0.00    -0.272 OA
ATOM     27  N   UNL     1       6.314  -2.888   9.469  0.00  0.00    -0.327 N 
ATOM     28  H   UNL     1       5.494  -2.767   9.975  0.00  0.00    +0.145 HD
ATOM     29  H   UNL     1       7.171  -2.700   9.883  0.00  0.00    +0.145 HD
ENDBRANCH  24  25
ENDBRANCH  23  24
ENDBRANCH  20  23
ENDBRANCH  16  17
BRANCH  15  30
ATOM     30  C   UNL     1       1.066  -7.868   2.991  0.00  0.00    +0.145 C 
BRANCH  30  31
ATOM     31  C   UNL     1      -0.219  -8.545   3.395  0.00  0.00    -0.012 A 
ATOM     32  C   UNL     1      -0.653  -8.479   4.706  0.00  0.00    +0.006 A 
ATOM     33  C   UNL     1      -1.831  -9.100   5.076  0.00  0.00    +0.000 A 
ATOM     34  C   UNL     1      -2.576  -9.787   4.136  0.00  0.00    +0.001 A 
ATOM     35  C   UNL     1      -2.143  -9.854   2.825  0.00  0.00    +0.020 A 
ATOM     36  C   UNL     1      -0.967  -9.228   2.453  0.00  0.00    +0.046 A 
ATOM     37 CL   UNL     1      -0.426  -9.305   0.805  0.00  0.00    -0.083 Cl
ENDBRANCH  30  31
ENDBRANCH  15  30
TORSDOF 6
