REMARK  Name = ZINC25559526
REMARK  3 active torsions:
REMARK  status: ('A' for Active; 'I' for Inactive)
REMARK    1  A    between atoms: C_3  and  C_6
REMARK    2  A    between atoms: C_19  and  C_21
REMARK    3  A    between atoms: C_26  and  O_27
REMARK                            x       y       z     vdW  Elec       q    Type
REMARK                         _______ _______ _______ _____ _____    ______ ____
ROOT
ATOM      1  C   UNL     1       1.098   5.397   1.565  0.00  0.00    +0.075 C 
ATOM      2  N   UNL     1       2.321   5.208   1.184  0.00  0.00    -0.184 NA
ATOM      3  N   UNL     1       2.471   4.165   0.260  0.00  0.00    -0.205 N 
ATOM      4  C   UNL     1       1.121   3.718  -0.148  0.00  0.00    +0.136 C 
ATOM      5  C   UNL     1       0.190   4.413   0.855  0.00  0.00    +0.087 C 
ATOM      6  C   UNL     1       1.102   2.220   0.011  0.00  0.00    +0.018 A 
ATOM      7  C   UNL     1      -0.112   1.559   0.029  0.00  0.00    +0.029 A 
ATOM      8  C   UNL     1      -0.155   0.181   0.133  0.00  0.00    +0.042 A 
ATOM      9  C   UNL     1       1.026  -0.536   0.220  0.00  0.00    +0.023 A 
ATOM     10  C   UNL     1       2.237   0.121   0.211  0.00  0.00    +0.047 A 
ATOM     11  C   UNL     1       2.289   1.512   0.116  0.00  0.00    +0.129 A 
ATOM     12  O   UNL     1       3.514   2.094   0.161  0.00  0.00    -0.465 OA
ATOM     13  C   UNL     1       3.672   3.466  -0.217  0.00  0.00    +0.314 C 
ATOM     14 CL   UNL     1      -1.681  -0.645   0.157  0.00  0.00    -0.084 Cl
ENDROOT
BRANCH  13  15
ATOM     15  C   UNL     1       4.901   4.047   0.433  0.00  0.00    +0.057 A 
ATOM     16  C   UNL     1       4.850   4.482   1.744  0.00  0.00    +0.032 A 
ATOM     17  C   UNL     1       5.978   5.016   2.341  0.00  0.00    +0.043 A 
ATOM     18  C   UNL     1       7.160   5.114   1.629  0.00  0.00    +0.043 A 
ATOM     19  C   UNL     1       7.216   4.680   0.318  0.00  0.00    +0.084 A 
ATOM     20  C   UNL     1       6.086   4.139  -0.281  0.00  0.00    +0.144 A 
ATOM     21 CL   UNL     1       8.699   4.803  -0.576  0.00  0.00    -0.080 Cl
ATOM     22 CL   UNL     1       5.910   5.562   3.988  0.00  0.00    -0.083 Cl
BRANCH  20  23
ATOM     23  O   UNL     1       6.140   3.705  -1.569  0.00  0.00    -0.505 OA
ATOM     24  H   UNL     1       7.080   3.779  -2.135  0.00  0.00    +0.292 HD
ENDBRANCH  20  23
ENDBRANCH  13  15
BRANCH   1  27
ATOM     25  C   UNL     1       0.766   8.192   4.091  0.00  0.00    +0.008 A 
ATOM     26  C   UNL     1       1.413   7.336   3.229  0.00  0.00    +0.017 A 
ATOM     27  C   UNL     1       0.659   6.408   2.534  0.00  0.00    +0.035 A 
ATOM     28  S   UNL     1      -0.988   6.755   3.131  0.00  0.00    -0.095 S 
ATOM     29  C   UNL     1      -0.580   8.093   4.240  0.00  0.00    +0.046 A 
ENDBRANCH   1  27
TORSDOF 3
