REMARK  Name = ZINC04697834
REMARK  6 active torsions:
REMARK  status: ('A' for Active; 'I' for Inactive)
REMARK    1  A    between atoms: C_1  and  C_2
REMARK    2  A    between atoms: C_2  and  N_3
REMARK    3  A    between atoms: N_3  and  N_4
REMARK    4  A    between atoms: C_5  and  C_7
REMARK    5  A    between atoms: C_14  and  C_15
REMARK    6  A    between atoms: N_17  and  C_18
REMARK                            x       y       z     vdW  Elec       q    Type
REMARK                         _______ _______ _______ _____ _____    ______ ____
ROOT
ATOM      1  C   UNL     1       0.007   1.617   0.131  0.00  0.00    +0.062 C 
ATOM      2  C   UNL     1      -0.735   1.723  -1.176  0.00  0.00    +0.024 C 
ATOM      3  C   UNL     1      -2.084   1.734  -1.186  0.00  0.00    +0.087 C 
ENDROOT
BRANCH   3   4
ATOM      4  C   UNL     1      -2.803   1.469   0.003  0.00  0.00    +0.243 C 
ATOM      5  O   UNL     1      -2.204   1.252   1.040  0.00  0.00    -0.270 OA
ATOM      6  N   UNL     1      -4.150   1.456  -0.013  0.00  0.00    -0.282 N 
ATOM      7  H   UNL     1      -4.628   1.690  -0.824  0.00  0.00    +0.155 HD
BRANCH   6   8
ATOM      8  C   UNL     1      -4.860   1.106   1.140  0.00  0.00    +0.037 A 
ATOM      9  C   UNL     1      -4.356   1.441   2.388  0.00  0.00    +0.023 A 
ATOM     10  C   UNL     1      -5.058   1.093   3.525  0.00  0.00    +0.002 A 
ATOM     11  C   UNL     1      -6.253   0.412   3.413  0.00  0.00    +0.004 A 
ATOM     12  C   UNL     1      -6.762   0.073   2.165  0.00  0.00    -0.042 A 
ATOM     13  C   UNL     1      -6.073   0.427   1.028  0.00  0.00    -0.023 A 
ATOM     14  C   UNL     1      -6.576   0.112  -0.356  0.00  0.00    +0.037 C 
ATOM     15  C   UNL     1      -7.647  -0.976  -0.304  0.00  0.00    +0.005 C 
ATOM     16  C   UNL     1      -8.701  -0.567   0.732  0.00  0.00    +0.005 C 
ATOM     17  C   UNL     1      -8.068  -0.676   2.122  0.00  0.00    +0.035 C 
ENDBRANCH   6   8
ENDBRANCH   3   4
BRANCH   2  18
ATOM     18  N   UNL     1      -0.042   1.807  -2.351  0.00  0.00    -0.268 N 
ATOM     19  H   UNL     1       0.928   1.798  -2.344  0.00  0.00    +0.170 HD
BRANCH  18  20
ATOM     20  N   UNL     1      -0.733   1.905  -3.566  0.00  0.00    -0.233 N 
ATOM     21  C   UNL     1      -0.049   1.988  -4.725  0.00  0.00    +0.260 C 
ATOM     22  O   UNL     1       1.166   1.978  -4.715  0.00  0.00    -0.269 OA
ATOM     23  H   UNL     1      -1.703   1.914  -3.573  0.00  0.00    +0.173 HD
BRANCH  21  24
ATOM     24  C   UNL     1      -0.778   2.092  -6.006  0.00  0.00    +0.038 A 
ATOM     25  C   UNL     1      -2.174   2.111  -6.020  0.00  0.00    +0.014 A 
ATOM     26  C   UNL     1      -2.848   2.208  -7.219  0.00  0.00    +0.021 A 
ATOM     27  C   UNL     1      -2.143   2.287  -8.408  0.00  0.00    +0.041 A 
ATOM     28  C   UNL     1      -0.758   2.269  -8.402  0.00  0.00    +0.021 A 
ATOM     29  C   UNL     1      -0.072   2.178  -7.208  0.00  0.00    +0.014 A 
ATOM     30 CL   UNL     1      -2.998   2.409  -9.914  0.00  0.00    -0.084 Cl
ENDBRANCH  21  24
ENDBRANCH  18  20
ENDBRANCH   2  18
TORSDOF 5
