REMARK  Name = ZINC46902413
REMARK  8 active torsions:
REMARK  status: ('A' for Active; 'I' for Inactive)
REMARK    1  A    between atoms: C_4  and  C_26
REMARK    2  A    between atoms: C_5  and  C_7
REMARK    3  A    between atoms: C_7  and  N_8
REMARK    4  A    between atoms: C_9  and  C_11
REMARK    5  A    between atoms: C_14  and  C_17
REMARK    6  A    between atoms: C_17  and  N_18
REMARK    7  A    between atoms: C_19  and  C_21
REMARK    8  A    between atoms: C_26  and  N_27
REMARK                            x       y       z     vdW  Elec       q    Type
REMARK                         _______ _______ _______ _____ _____    ______ ____
ROOT
ATOM      1  N   UNL     1       1.490  -2.679   1.334  0.00  0.00    -0.307 N 
ATOM      2  C   UNL     1       1.553  -4.004   1.569  0.00  0.00    +0.244 C 
ATOM      3  O   UNL     1       1.394  -4.791   0.656  0.00  0.00    -0.270 OA
ATOM      4  H   UNL     1       1.617  -2.051   2.063  0.00  0.00    +0.149 HD
ENDROOT
BRANCH   2   5
ATOM      5  C   UNL     1       1.816  -4.502   2.936  0.00  0.00    +0.037 A 
ATOM      6  C   UNL     1       1.994  -3.601   3.987  0.00  0.00    +0.013 A 
ATOM      7  C   UNL     1       2.238  -4.071   5.261  0.00  0.00    +0.006 A 
ATOM      8  C   UNL     1       2.308  -5.433   5.497  0.00  0.00    -0.030 A 
ATOM      9  C   UNL     1       2.134  -6.331   4.459  0.00  0.00    +0.006 A 
ATOM     10  C   UNL     1       1.882  -5.874   3.182  0.00  0.00    +0.013 A 
BRANCH   8  11
ATOM     11  C   UNL     1       2.577  -5.940   6.891  0.00  0.00    +0.139 C 
BRANCH  11  12
ATOM     12  N   UNL     1       1.306  -6.130   7.594  0.00  0.00    -0.307 N 
ATOM     13  C   UNL     1       1.299  -6.580   8.864  0.00  0.00    +0.251 C 
ATOM     14  O   UNL     1       2.349  -6.829   9.427  0.00  0.00    -0.270 OA
ATOM     15  H   UNL     1       0.469  -5.932   7.146  0.00  0.00    +0.149 HD
BRANCH  13  16
ATOM     16  C   UNL     1       0.028  -6.771   9.568  0.00  0.00    +0.074 A 
ATOM     17  C   UNL     1      -0.197  -7.214  10.863  0.00  0.00    +0.021 A 
ATOM     18  C   UNL     1      -1.514  -7.290  11.247  0.00  0.00    +0.008 A 
ATOM     19  C   UNL     1      -2.480  -6.939  10.363  0.00  0.00    +0.046 A 
ATOM     20  S   UNL     1      -1.633  -6.486   8.985  0.00  0.00    -0.092 S 
ENDBRANCH  13  16
ENDBRANCH  11  12
ENDBRANCH   8  11
ENDBRANCH   2   5
BRANCH   1  21
ATOM     21  C   UNL     1       1.229  -2.186  -0.020  0.00  0.00    +0.140 C 
BRANCH  21  26
ATOM     22  C   UNL     1      -0.017   1.378   0.010  0.00  0.00    +0.000 A 
ATOM     23  C   UNL     1       1.171   2.085   0.002  0.00  0.00    +0.000 A 
ATOM     24  C   UNL     1       2.377   1.411  -0.013  0.00  0.00    +0.002 A 
ATOM     25  C   UNL     1       2.396   0.028  -0.020  0.00  0.00    -0.059 A 
ATOM     26  C   UNL     1       1.209  -0.679  -0.012  0.00  0.00    -0.029 A 
ATOM     27  C   UNL     1       0.002  -0.004   0.002  0.00  0.00    +0.005 A 
BRANCH  25  28
ATOM     28  C   UNL     1       3.711  -0.707  -0.038  0.00  0.00    -0.043 C 
BRANCH  28  29
ATOM     29  N   UNL     1       4.007  -1.149  -1.407  0.00  0.00    +0.382 N 
ATOM     30  C   UNL     1       4.197   0.024  -2.268  0.00  0.00    -0.078 C 
ATOM     31  C   UNL     1       4.425  -0.430  -3.712  0.00  0.00    -0.019 C 
ATOM     32  C   UNL     1       5.672  -1.316  -3.771  0.00  0.00    -0.004 C 
ATOM     33  C   UNL     1       5.493  -2.498  -2.813  0.00  0.00    -0.019 C 
ATOM     34  C   UNL     1       5.226  -1.967  -1.403  0.00  0.00    -0.078 C 
ATOM     35  H   UNL     1       3.236  -1.699  -1.756  0.00  0.00    -0.081 HD
ENDBRANCH  28  29
ENDBRANCH  25  28
ENDBRANCH  21  26
ENDBRANCH   1  21
TORSDOF 8
