REMARK  Name = ZINC06659853
REMARK  9 active torsions:
REMARK  status: ('A' for Active; 'I' for Inactive)
REMARK    1  A    between atoms: C_1  and  C_2
REMARK    2  A    between atoms: C_3  and  O_17
REMARK    3  A    between atoms: O_17  and  C_18
REMARK    4  A    between atoms: C_18  and  C_19
REMARK    5  A    between atoms: N_21  and  C_22
REMARK    6  A    between atoms: C_24  and  C_30
REMARK    7  A    between atoms: C_24  and  C_31
REMARK    8  A    between atoms: C_26  and  C_28
REMARK    9  A    between atoms: C_26  and  C_29
REMARK                            x       y       z     vdW  Elec       q    Type
REMARK                         _______ _______ _______ _____ _____    ______ ____
ROOT
ATOM      1  O   UNL     1       0.002  -0.004   0.002  0.00  0.00    -0.482 OA
ENDROOT
BRANCH   1   4
ATOM      2  C   UNL     1       2.491   1.318  -0.014  0.00  0.00    +0.051 C 
ATOM      3  C   UNL     1       1.177   2.057   0.002  0.00  0.00    +0.034 A 
ATOM      4  C   UNL     1      -0.016   1.353   0.009  0.00  0.00    +0.128 A 
ATOM      5  C   UNL     1      -1.236   2.028   0.019  0.00  0.00    +0.047 A 
ATOM      6  C   UNL     1      -1.271   3.392   0.031  0.00  0.00    +0.015 A 
ATOM      7  C   UNL     1      -0.075   4.118   0.024  0.00  0.00    +0.022 A 
ATOM      8  C   UNL     1       1.158   3.443   0.009  0.00  0.00    +0.146 A 
ATOM      9  O   UNL     1       2.307   4.152   0.001  0.00  0.00    -0.422 OA
ATOM     10  C   UNL     1       2.299   5.491   0.011  0.00  0.00    +0.341 A 
ATOM     11  O   UNL     1       3.362   6.087   0.003  0.00  0.00    -0.245 OA
ATOM     12  C   UNL     1       1.095   6.238   0.030  0.00  0.00    +0.041 A 
ATOM     13  C   UNL     1      -0.088   5.587   0.031  0.00  0.00    -0.027 A 
ATOM     14  C   UNL     1      -1.416   6.293   0.036  0.00  0.00    +0.036 C 
ATOM     15  C   UNL     1      -1.250   7.748   0.473  0.00  0.00    +0.005 C 
ATOM     16  C   UNL     1      -0.128   8.376  -0.362  0.00  0.00    +0.005 C 
ATOM     17  C   UNL     1       1.196   7.740   0.056  0.00  0.00    +0.042 C 
ENDBRANCH   1   4
BRANCH   1  18
ATOM     18  C   UNL     1      -1.262  -0.670   0.011  0.00  0.00    +0.324 C 
BRANCH  18  19
ATOM     19  C   UNL     1      -1.044  -2.161   0.000  0.00  0.00    +0.251 C 
ATOM     20  O   UNL     1       0.082  -2.610  -0.013  0.00  0.00    -0.272 OA
ATOM     21  N   UNL     1      -2.102  -2.997   0.006  0.00  0.00    -0.310 N 
ATOM     22  H   UNL     1      -3.124  -2.590   0.018  0.00  0.00    +0.149 HD
BRANCH  21  23
ATOM     23  C   UNL     1      -1.890  -4.450  -0.004  0.00  0.00    +0.070 C 
ATOM     24  C   UNL     1      -1.742  -4.927  -1.448  0.00  0.00    +0.009 C 
ATOM     25  C   UNL     1      -1.543  -6.440  -1.491  0.00  0.00    -0.072 C 
ATOM     26  N   UNL     1      -2.516  -7.161  -0.697  0.00  0.00    +0.386 N 
ATOM     27  C   UNL     1      -2.921  -6.655   0.598  0.00  0.00    -0.072 C 
ATOM     28  C   UNL     1      -3.106  -5.140   0.614  0.00  0.00    +0.009 C 
ATOM     29  C   UNL     1      -1.923  -7.062   1.688  0.00  0.00    -0.010 C 
ATOM     30  C   UNL     1      -4.280  -7.293   0.961  0.00  0.00    -0.010 C 
ATOM     31  C   UNL     1      -0.113  -6.781  -1.057  0.00  0.00    -0.010 C 
ATOM     32  C   UNL     1      -1.693  -6.888  -2.962  0.00  0.00    -0.010 C 
ATOM     33  H   UNL     1      -3.460  -7.239  -1.256  0.00  0.00    -0.084 HD
ATOM     34  H   UNL     1      -2.136  -8.170  -0.478  0.00  0.00    -0.084 HD
ENDBRANCH  21  23
ENDBRANCH  18  19
ENDBRANCH   1  18
TORSDOF 4
