REMARK  Name = ZINC08048458
REMARK  4 active torsions:
REMARK  status: ('A' for Active; 'I' for Inactive)
REMARK    1  A    between atoms: C_1  and  C_2
REMARK    2  A    between atoms: C_5  and  C_8
REMARK    3  A    between atoms: N_12  and  C_13
REMARK    4  A    between atoms: N_19  and  C_20
REMARK                            x       y       z     vdW  Elec       q    Type
REMARK                         _______ _______ _______ _____ _____    ______ ____
ROOT
ATOM      1  C   UNL     1      -2.017  -0.879   1.212  0.00  0.00    +0.058 A 
ATOM      2  C   UNL     1      -3.299  -1.298   1.186  0.00  0.00    +0.075 A 
ATOM      3  S   UNL     1      -3.664  -1.279  -0.562  0.00  0.00    -0.059 S 
ATOM      4  C   UNL     1      -2.076  -0.704  -1.141  0.00  0.00    +0.152 A 
ATOM      5  N   UNL     1      -1.673  -0.470  -2.375  0.00  0.00    -0.336 N 
ATOM      6  N   UNL     1      -1.383  -0.568   0.039  0.00  0.00    -0.318 N 
ATOM      7  H   UNL     1      -0.625  -0.195  -2.569  0.00  0.00    +0.168 HD
ENDROOT
BRANCH   1  12
ATOM      8  C   UNL     1       0.764  -0.384   6.226  0.00  0.00    +0.044 C 
ATOM      9  C   UNL     1       0.036  -0.513   4.912  0.00  0.00    -0.050 A 
ATOM     10  C   UNL     1      -1.190   0.104   4.741  0.00  0.00    +0.004 A 
ATOM     11  C   UNL     1      -1.863  -0.011   3.542  0.00  0.00    +0.010 A 
ATOM     12  C   UNL     1      -1.302  -0.752   2.500  0.00  0.00    -0.001 A 
ATOM     13  C   UNL     1      -0.067  -1.376   2.681  0.00  0.00    +0.010 A 
ATOM     14  C   UNL     1       0.597  -1.248   3.884  0.00  0.00    +0.004 A 
ENDBRANCH   1  12
BRANCH   5  15
ATOM     15  C   UNL     1      -2.557  -0.571  -3.413  0.00  0.00    +0.041 A 
ATOM     16  C   UNL     1      -2.650  -1.758  -4.144  0.00  0.00    +0.025 A 
ATOM     17  C   UNL     1      -3.548  -1.854  -5.187  0.00  0.00    +0.002 A 
ATOM     18  C   UNL     1      -4.348  -0.774  -5.516  0.00  0.00    +0.000 A 
ATOM     19  C   UNL     1      -4.257   0.407  -4.801  0.00  0.00    +0.002 A 
ATOM     20  C   UNL     1      -3.368   0.516  -3.752  0.00  0.00    +0.025 A 
ENDBRANCH   5  15
BRANCH   6  21
ATOM     21  C   UNL     1       0.007  -0.106   0.041  0.00  0.00    +0.090 C 
ATOM     22  C   UNL     1       0.036   1.422  -0.018  0.00  0.00    +0.025 C 
ATOM     23  C   UNL     1       1.488   1.905  -0.016  0.00  0.00    +0.002 C 
ATOM     24  C   UNL     1       2.217   1.333  -1.234  0.00  0.00    +0.000 C 
ATOM     25  C   UNL     1       2.188  -0.195  -1.174  0.00  0.00    +0.002 C 
ATOM     26  C   UNL     1       0.736  -0.678  -1.176  0.00  0.00    +0.025 C 
ENDBRANCH   6  21
TORSDOF 3
