REMARK  Name = ZINC66091558
REMARK  4 active torsions:
REMARK  status: ('A' for Active; 'I' for Inactive)
REMARK    1  A    between atoms: C_1  and  C_2
REMARK    2  A    between atoms: C_2  and  O_27
REMARK    3  A    between atoms: C_4  and  C_21
REMARK    4  A    between atoms: C_11  and  C_14
REMARK                            x       y       z     vdW  Elec       q    Type
REMARK                         _______ _______ _______ _____ _____    ______ ____
ROOT
ATOM      1  C   UNL     1       0.745   1.220   0.448  0.00  0.00    +0.041 C 
ATOM      2  C   UNL     1       0.535  -0.286   0.278  0.00  0.00    +0.069 C 
ATOM      3  C   UNL     1      -0.924  -0.558  -0.092  0.00  0.00    +0.044 C 
ATOM      4  C   UNL     1      -1.142  -2.056  -0.312  0.00  0.00    +0.038 C 
ATOM      5  C   UNL     1      -0.913  -2.800   1.004  0.00  0.00    +0.116 C 
ATOM      6  C   UNL     1       0.498  -2.454   1.447  0.00  0.00    +0.055 C 
ATOM      7  N   UNL     1       1.345  -3.405   1.659  0.00  0.00    -0.157 NA
ATOM      8  N   UNL     1       1.107  -4.648   1.495  0.00  0.00    -0.146 NA
ATOM      9  C   UNL     1      -0.013  -5.166   1.059  0.00  0.00    +0.136 C 
ATOM     10  C   UNL     1      -1.179  -4.276   0.748  0.00  0.00    +0.193 C 
ATOM     11  O   UNL     1      -2.240  -4.683   0.323  0.00  0.00    -0.290 OA
ATOM     12  C   UNL     1       0.872  -1.001   1.592  0.00  0.00    +0.088 C 
ENDROOT
BRANCH   9  13
ATOM     13  C   UNL     1      -0.136  -6.630   0.883  0.00  0.00    +0.006 A 
ATOM     14  C   UNL     1       0.669  -7.496   1.625  0.00  0.00    +0.010 A 
ATOM     15  C   UNL     1       0.549  -8.859   1.456  0.00  0.00    +0.001 A 
ATOM     16  C   UNL     1      -0.366  -9.370   0.552  0.00  0.00    +0.000 A 
ATOM     17  C   UNL     1      -1.166  -8.517  -0.187  0.00  0.00    +0.001 A 
ATOM     18  C   UNL     1      -1.061  -7.152  -0.023  0.00  0.00    +0.010 A 
ENDBRANCH   9  13
BRANCH   4  19
ATOM     19  C   UNL     1      -0.171  -2.559  -1.349  0.00  0.00    -0.043 A 
ATOM     20  C   UNL     1      -0.262  -2.112  -2.654  0.00  0.00    +0.004 A 
ATOM     21  C   UNL     1       0.629  -2.572  -3.606  0.00  0.00    +0.000 A 
ATOM     22  C   UNL     1       1.610  -3.480  -3.253  0.00  0.00    +0.000 A 
ATOM     23  C   UNL     1       1.701  -3.926  -1.948  0.00  0.00    +0.000 A 
ATOM     24  C   UNL     1       0.813  -3.462  -0.995  0.00  0.00    +0.004 A 
ENDBRANCH   4  19
BRANCH   2  25
ATOM     25  O   UNL     1       1.388  -0.771  -0.761  0.00  0.00    -0.388 OA
ATOM     26  H   UNL     1       2.323  -0.564  -0.631  0.00  0.00    +0.210 HD
ENDBRANCH   2  25
TORSDOF 3
