REMARK  Name = ZINC64623287
REMARK  7 active torsions:
REMARK  status: ('A' for Active; 'I' for Inactive)
REMARK    1  A    between atoms: C_1  and  C_2
REMARK    2  A    between atoms: C_5  and  S_8
REMARK    3  A    between atoms: S_8  and  N_11
REMARK    4  A    between atoms: N_11  and  C_12
REMARK    5  A    between atoms: C_16  and  C_35
REMARK    6  A    between atoms: C_18  and  N_22
REMARK    7  A    between atoms: C_23  and  C_25
REMARK                            x       y       z     vdW  Elec       q    Type
REMARK                         _______ _______ _______ _____ _____    ______ ____
ROOT
ATOM      1  C   UNL     1       2.509  -4.678   1.138  0.00  0.00    +0.224 C 
ATOM      2  N   UNL     1       3.602  -5.654   1.241  0.00  0.00    -0.318 N 
ATOM      3  C   UNL     1       4.908  -5.176   1.118  0.00  0.00    +0.046 A 
ATOM      4  C   UNL     1       6.075  -5.958   1.189  0.00  0.00    -0.027 A 
ATOM      5  C   UNL     1       7.321  -5.394   1.056  0.00  0.00    +0.028 A 
ATOM      6  C   UNL     1       7.471  -4.029   0.848  0.00  0.00    +0.035 A 
ATOM      7  C   UNL     1       6.333  -3.234   0.774  0.00  0.00    +0.040 A 
ATOM      8  C   UNL     1       5.088  -3.805   0.907  0.00  0.00    +0.034 A 
ATOM      9  S   UNL     1       3.446  -3.120   0.870  0.00  0.00    -0.084 S 
ATOM     10  C   UNL     1       5.956  -7.443   1.415  0.00  0.00    +0.046 C 
ATOM     11  H   UNL     1       3.422  -6.596   1.388  0.00  0.00    +0.148 HD
ENDROOT
BRANCH   6  12
ATOM     12  N   UNL     1       8.746  -3.464   0.714  0.00  0.00    -0.283 N 
ATOM     13  C   UNL     1       8.939  -2.427  -0.125  0.00  0.00    +0.244 C 
ATOM     14  O   UNL     1       7.995  -1.928  -0.700  0.00  0.00    -0.273 OA
ATOM     15  H   UNL     1       9.490  -3.819   1.225  0.00  0.00    +0.155 HD
BRANCH  13  16
ATOM     16  C   UNL     1      10.328  -1.887  -0.349  0.00  0.00    +0.190 C 
ATOM     17  C   UNL     1      11.208  -2.951  -0.966  0.00  0.00    +0.016 C 
ATOM     18  C   UNL     1      11.608  -2.459  -2.161  0.00  0.00    -0.004 A 
ATOM     19  C   UNL     1      12.464  -3.002  -3.223  0.00  0.00    +0.010 A 
ATOM     20  C   UNL     1      12.688  -2.257  -4.330  0.00  0.00    +0.001 A 
ATOM     21  C   UNL     1      12.124  -0.984  -4.487  0.00  0.00    +0.002 A 
ATOM     22  C   UNL     1      11.328  -0.418  -3.556  0.00  0.00    +0.026 A 
ATOM     23  C   UNL     1      11.025  -1.112  -2.352  0.00  0.00    +0.043 A 
ATOM     24  N   UNL     1      10.292  -0.783  -1.314  0.00  0.00    -0.370 N 
ATOM     25  H   UNL     1       9.807   0.050  -1.204  0.00  0.00    +0.161 HD
ENDBRANCH  13  16
ENDBRANCH   6  12
BRANCH   1  26
ATOM     26  N   UNL     1       1.643  -4.974  -0.005  0.00  0.00    -0.160 NA
ATOM     27  H   UNL     1       1.998  -5.449  -0.773  0.00  0.00    +0.151 HD
BRANCH  26  28
ATOM     28  S   UNL     1       0.056  -4.500   0.013  0.00  0.00    +0.061 S 
ATOM     29  O   UNL     1      -0.479  -4.918   1.261  0.00  0.00    -0.153 OA
ATOM     30  O   UNL     1      -0.503  -4.904  -1.230  0.00  0.00    -0.153 OA
BRANCH  28  35
ATOM     31  C   UNL     1      -0.004   1.534   0.049  0.00  0.00    +0.044 C 
ATOM     32  C   UNL     1       0.011   0.027   0.040  0.00  0.00    -0.050 A 
ATOM     33  C   UNL     1       0.007  -0.657  -1.161  0.00  0.00    +0.005 A 
ATOM     34  C   UNL     1       0.021  -2.040  -1.169  0.00  0.00    +0.029 A 
ATOM     35  C   UNL     1       0.040  -2.738   0.023  0.00  0.00    +0.105 A 
ATOM     36  C   UNL     1       0.044  -2.054   1.225  0.00  0.00    +0.029 A 
ATOM     37  C   UNL     1       0.035  -0.671   1.233  0.00  0.00    +0.005 A 
ENDBRANCH  28  35
ENDBRANCH  26  28
ENDBRANCH   1  26
TORSDOF 5
