REMARK  Name = ZINC06725072
REMARK  8 active torsions:
REMARK  status: ('A' for Active; 'I' for Inactive)
REMARK    1  A    between atoms: C_1  and  N_48
REMARK    2  A    between atoms: C_2  and  N_48
REMARK    3  A    between atoms: C_3  and  C_4
REMARK    4  A    between atoms: C_3  and  N_48
REMARK    5  A    between atoms: C_4  and  N_5
REMARK    6  A    between atoms: C_6  and  C_8
REMARK    7  A    between atoms: C_8  and  O_25
REMARK    8  A    between atoms: N_18  and  C_19
REMARK                            x       y       z     vdW  Elec       q    Type
REMARK                         _______ _______ _______ _____ _____    ______ ____
ROOT
ATOM      1  C   UNL     1      -1.345   5.971  -0.071  0.00  0.00    +0.247 C 
ATOM      2  C   UNL     1      -1.273   7.480  -0.052  0.00  0.00    +0.033 A 
ATOM      3  C   UNL     1      -2.410   8.251  -0.135  0.00  0.00    +0.010 A 
ATOM      4  C   UNL     1      -2.305   9.632  -0.119  0.00  0.00    +0.001 A 
ATOM      5  C   UNL     1      -1.062  10.231  -0.019  0.00  0.00    +0.002 A 
ATOM      6  C   UNL     1       0.080   9.459   0.065  0.00  0.00    +0.024 A 
ATOM      7  C   UNL     1      -0.020   8.074   0.049  0.00  0.00    +0.043 A 
ATOM      8  N   UNL     1       1.122   7.276   0.133  0.00  0.00    -0.269 N 
ATOM      9  C   UNL     1       1.078   5.938   0.122  0.00  0.00    +0.314 C 
ATOM     10  O   UNL     1       2.124   5.323   0.200  0.00  0.00    -0.252 OA
ATOM     11  N   UNL     1      -0.069   5.242   0.029  0.00  0.00    -0.214 N 
ATOM     12  H   UNL     1       1.986   7.711   0.203  0.00  0.00    +0.156 HD
ENDROOT
BRANCH  11  13
ATOM     13  C   UNL     1      -0.050   3.842   0.023  0.00  0.00    +0.041 A 
ATOM     14  C   UNL     1      -0.019   3.141   1.221  0.00  0.00    +0.024 A 
ATOM     15  C   UNL     1      -0.000   1.760   1.211  0.00  0.00    +0.002 A 
ATOM     16  C   UNL     1      -0.011   1.076   0.009  0.00  0.00    +0.000 A 
ATOM     17  C   UNL     1      -0.036   1.771  -1.186  0.00  0.00    +0.002 A 
ATOM     18  C   UNL     1      -0.062   3.152  -1.182  0.00  0.00    +0.024 A 
ENDBRANCH  11  13
BRANCH   1  20
ATOM     19  N   UNL     1      -1.811   5.726   2.346  0.00  0.00    -0.313 N 
ATOM     20  C   UNL     1      -2.220   5.536   1.076  0.00  0.00    +0.269 C 
ATOM     21  O   UNL     1      -3.293   5.015   0.856  0.00  0.00    -0.270 OA
ATOM     22  H   UNL     1      -0.953   6.143   2.521  0.00  0.00    +0.149 HD
BRANCH  19  23
ATOM     23  C   UNL     1      -2.662   5.304   3.461  0.00  0.00    +0.086 C 
BRANCH  23  24
ATOM     24  C   UNL     1      -1.968   5.633   4.785  0.00  0.00    -0.061 C 
BRANCH  24  27
ATOM     25  C   UNL     1      -2.961   3.747   5.934  0.00  0.00    -0.097 C 
ATOM     26  C   UNL     1      -2.305   5.717   7.181  0.00  0.00    -0.097 C 
ATOM     27  N   UNL     1      -2.848   5.220   5.899  0.00  0.00    +0.377 N 
ATOM     28  H   UNL     1      -3.781   5.623   5.753  0.00  0.00    -0.083 HD
ENDBRANCH  24  27
ENDBRANCH  23  24
ENDBRANCH  19  23
ENDBRANCH   1  20
BRANCH   1  29
ATOM     29  O   UNL     1      -1.986   5.571  -1.284  0.00  0.00    -0.360 OA
ATOM     30  H   UNL     1      -2.838   6.001  -1.439  0.00  0.00    +0.213 HD
ENDBRANCH   1  29
TORSDOF 6
