REMARK  Name = ZINC22015366
REMARK  7 active torsions:
REMARK  status: ('A' for Active; 'I' for Inactive)
REMARK    1  A    between atoms: C_1  and  C_2
REMARK    2  A    between atoms: C_2  and  O_3
REMARK    3  A    between atoms: O_3  and  C_4
REMARK    4  A    between atoms: C_4  and  C_6
REMARK    5  A    between atoms: C_7  and  C_19
REMARK    6  A    between atoms: C_12  and  C_14
REMARK    7  A    between atoms: C_19  and  N_20
REMARK                            x       y       z     vdW  Elec       q    Type
REMARK                         _______ _______ _______ _____ _____    ______ ____
ROOT
ATOM      1  C   UNL     1      -0.707   1.676   3.583  0.00  0.00    +0.083 C 
ATOM      2  C   UNL     1      -0.317   1.171   4.774  0.00  0.00    +0.042 C 
ATOM      3  N   UNL     1      -0.962   1.511   5.928  0.00  0.00    -0.271 N 
ATOM      4  C   UNL     1      -2.012   2.341   5.976  0.00  0.00    +0.304 C 
ATOM      5  O   UNL     1      -2.524   2.581   7.052  0.00  0.00    -0.252 OA
ATOM      6  N   UNL     1      -2.519   2.920   4.869  0.00  0.00    -0.285 N 
ATOM      7  C   UNL     1      -1.890   2.622   3.572  0.00  0.00    +0.179 C 
ATOM      8  H   UNL     1      -0.625   1.097   6.890  0.00  0.00    +0.156 HD
ATOM      9  H   UNL     1      -3.382   3.600   4.919  0.00  0.00    +0.151 HD
ENDROOT
BRANCH   7  10
ATOM     10  C   UNL     1      -2.945   2.036   2.668  0.00  0.00    +0.130 A 
ATOM     11  C   UNL     1      -3.181   2.402   1.395  0.00  0.00    +0.047 A 
ATOM     12  C   UNL     1      -4.248   1.599   0.930  0.00  0.00    +0.041 A 
ATOM     13  C   UNL     1      -4.600   0.792   1.947  0.00  0.00    +0.195 A 
ATOM     14  O   UNL     1      -3.803   1.057   2.995  0.00  0.00    -0.466 OA
ENDBRANCH   7  10
BRANCH   1  15
ATOM     15  C   UNL     1      -0.036   1.329   2.387  0.00  0.00    +0.339 C 
ATOM     16  O   UNL     1       0.751   2.108   1.883  0.00  0.00    -0.245 OA
BRANCH  15  17
ATOM     17  O   UNL     1      -0.269   0.134   1.806  0.00  0.00    -0.462 OA
BRANCH  17  19
ATOM     18  C   UNL     1       0.051  -1.540   0.092  0.00  0.00    +0.048 C 
ATOM     19  C   UNL     1       0.443  -0.151   0.600  0.00  0.00    +0.229 C 
ENDBRANCH  17  19
ENDBRANCH  15  17
ENDBRANCH   1  15
BRANCH   2  20
ATOM     20  C   UNL     1       0.852   0.222   4.830  0.00  0.00    +0.167 C 
BRANCH  20  21
ATOM     21  N   UNL     1       1.942   0.835   5.594  0.00  0.00    -0.236 N 
ATOM     22  C   UNL     1       2.070   0.687   6.919  0.00  0.00    +0.223 C 
ATOM     23  O   UNL     1       1.324   0.049   7.631  0.00  0.00    -0.275 OA
ATOM     24  C   UNL     1       3.296   1.444   7.387  0.00  0.00    +0.112 C 
ATOM     25  C   UNL     1       3.852   2.056   6.091  0.00  0.00    +0.056 C 
ATOM     26  C   UNL     1       2.896   1.584   5.025  0.00  0.00    +0.229 C 
ATOM     27  O   UNL     1       2.976   1.844   3.843  0.00  0.00    -0.275 OA
ATOM     28  C   UNL     1       5.257   1.530   5.820  0.00  0.00    +0.016 C 
ATOM     29  C   UNL     1       5.788   2.133   4.517  0.00  0.00    +0.001 C 
ATOM     30  C   UNL     1       5.810   3.658   4.634  0.00  0.00    +0.000 C 
ATOM     31  C   UNL     1       4.390   4.172   4.880  0.00  0.00    +0.001 C 
ATOM     32  C   UNL     1       3.853   3.578   6.185  0.00  0.00    +0.016 C 
ENDBRANCH  20  21
ENDBRANCH   2  20
TORSDOF 6
