REMARK  Name = ZINC63941320
REMARK  10 active torsions:
REMARK  status: ('A' for Active; 'I' for Inactive)
REMARK    1  A    between atoms: C_1  and  C_2
REMARK    2  A    between atoms: C_2  and  C_3
REMARK    3  A    between atoms: C_2  and  C_4
REMARK    4  A    between atoms: C_8  and  N_11
REMARK    5  A    between atoms: C_12  and  C_14
REMARK    6  A    between atoms: N_19  and  C_21
REMARK    7  A    between atoms: C_21  and  C_22
REMARK    8  A    between atoms: C_22  and  C_23
REMARK    9  A    between atoms: C_26  and  O_32
REMARK   10  A    between atoms: O_32  and  C_33
REMARK                            x       y       z     vdW  Elec       q    Type
REMARK                         _______ _______ _______ _____ _____    ______ ____
ROOT
ATOM      1  C   UNL     1      -6.948  -2.217   2.339  0.00  0.00    +0.101 C 
ATOM      2  C   UNL     1      -7.361  -1.117   3.345  0.00  0.00    +0.110 C 
ATOM      3  C   UNL     1      -8.652  -1.629   3.944  0.00  0.00    +0.216 C 
ATOM      4  O   UNL     1      -9.446  -0.954   4.564  0.00  0.00    -0.276 OA
ATOM      5  N   UNL     1      -8.792  -2.942   3.690  0.00  0.00    -0.300 N 
ATOM      6  C   UNL     1      -7.651  -3.461   2.924  0.00  0.00    +0.121 C 
ENDROOT
BRANCH   1   8
ATOM      7  N   UNL     1      -4.654  -1.397   1.906  0.00  0.00    -0.290 N 
ATOM      8  C   UNL     1      -5.452  -2.400   2.324  0.00  0.00    +0.220 C 
ATOM      9  O   UNL     1      -4.966  -3.450   2.688  0.00  0.00    -0.275 OA
ATOM     10  H   UNL     1      -5.043  -0.557   1.615  0.00  0.00    +0.151 HD
BRANCH   7  14
ATOM     11  C   UNL     1      -1.433  -0.534   0.013  0.00  0.00    +0.132 C 
ATOM     12  N   UNL     1      -1.468  -2.014   0.230  0.00  0.00    -0.241 NA
ATOM     13  N   UNL     1      -2.776  -2.413   0.737  0.00  0.00    -0.227 NA
ATOM     14  C   UNL     1      -3.200  -1.575   1.892  0.00  0.00    +0.216 C 
ATOM     15  S   UNL     1      -2.342   0.015   1.522  0.00  0.00    -0.102 S 
ATOM     16  H   UNL     1      -0.733  -2.305   0.856  0.00  0.00    +0.142 HD
ATOM     17  H   UNL     1      -2.786  -3.393   0.978  0.00  0.00    +0.143 HD
BRANCH  11  19
ATOM     18  C   UNL     1      -0.019   1.526   0.010  0.00  0.00    +0.009 C 
ATOM     19  C   UNL     1       0.002  -0.004   0.002  0.00  0.00    +0.011 C 
ATOM     20  C   UNL     1       0.742  -0.511   1.242  0.00  0.00    +0.009 C 
ENDBRANCH  11  19
ENDBRANCH   7  14
ENDBRANCH   1   8
BRANCH   5  21
ATOM     21  C   UNL     1      -9.935  -3.750   4.120  0.00  0.00    +0.112 C 
BRANCH  21  22
ATOM     22  C   UNL     1     -11.017  -3.721   3.038  0.00  0.00    +0.052 C 
BRANCH  22  23
ATOM     23  C   UNL     1     -12.193  -4.553   3.481  0.00  0.00    -0.040 C 
ATOM     24  C   UNL     1     -13.313  -4.113   4.097  0.00  0.00    +0.002 A 
ATOM     25  C   UNL     1     -13.757  -2.782   4.524  0.00  0.00    +0.055 A 
ATOM     26  C   UNL     1     -14.959  -2.643   5.133  0.00  0.00    +0.121 A 
ATOM     27  C   UNL     1     -15.809  -3.737   5.375  0.00  0.00    +0.047 A 
ATOM     28  C   UNL     1     -15.488  -4.999   5.019  0.00  0.00    +0.029 A 
ATOM     29  C   UNL     1     -14.209  -5.264   4.352  0.00  0.00    +0.043 A 
ATOM     30  N   UNL     1     -13.664  -6.371   3.912  0.00  0.00    -0.380 N 
ATOM     31  C   UNL     1     -12.361  -6.047   3.320  0.00  0.00    +0.144 C 
ATOM     32  H   UNL     1     -14.058  -7.256   3.964  0.00  0.00    +0.160 HD
BRANCH  26  33
ATOM     33  O   UNL     1     -15.357  -1.404   5.524  0.00  0.00    -0.495 OA
ATOM     34  C   UNL     1     -16.632  -1.303   6.163  0.00  0.00    +0.277 C 
ENDBRANCH  26  33
ENDBRANCH  22  23
ENDBRANCH  21  22
ENDBRANCH   5  21
TORSDOF 7
