REMARK  Name = ZINC13499926
REMARK  9 active torsions:
REMARK  status: ('A' for Active; 'I' for Inactive)
REMARK    1  A    between atoms: C_1  and  C_2
REMARK    2  A    between atoms: C_2  and  C_3
REMARK    3  A    between atoms: C_16  and  S_19
REMARK    4  A    between atoms: S_19  and  C_20
REMARK    5  A    between atoms: C_20  and  C_21
REMARK    6  A    between atoms: N_23  and  C_24
REMARK    7  A    between atoms: C_27  and  N_30
REMARK    8  A    between atoms: C_31  and  C_33
REMARK    9  A    between atoms: C_33  and  C_34
REMARK                            x       y       z     vdW  Elec       q    Type
REMARK                         _______ _______ _______ _____ _____    ______ ____
ROOT
ATOM      1  C   UNL     1      -7.117   1.025   0.447  0.00  0.00    +0.118 A 
ATOM      2  N   UNL     1      -6.318   1.427   1.395  0.00  0.00    -0.226 NA
ATOM      3  C   UNL     1      -5.003   1.530   1.221  0.00  0.00    +0.114 A 
ATOM      4  C   UNL     1      -4.378   1.213   0.006  0.00  0.00    +0.056 A 
ATOM      5  C   UNL     1      -2.970   1.367  -0.046  0.00  0.00    -0.024 A 
ATOM      6  C   UNL     1      -2.343   1.803   1.071  0.00  0.00    -0.004 A 
ATOM      7  S   UNL     1      -3.646   2.027   2.253  0.00  0.00    -0.073 S 
ATOM      8  C   UNL     1      -0.874   2.042   1.262  0.00  0.00    +0.043 C 
ATOM      9  C   UNL     1      -0.125   1.367   0.104  0.00  0.00    +0.005 C 
ATOM     10  C   UNL     1      -0.808   1.744  -1.213  0.00  0.00    +0.005 C 
ATOM     11  C   UNL     1      -2.170   1.055  -1.310  0.00  0.00    +0.037 C 
ATOM     12  C   UNL     1      -5.294   0.758  -1.063  0.00  0.00    +0.173 A 
ATOM     13  N   UNL     1      -6.642   0.685  -0.786  0.00  0.00    -0.257 N 
ATOM     14  C   UNL     1      -7.226   0.243  -1.941  0.00  0.00    +0.198 A 
ATOM     15  N   UNL     1      -6.268   0.075  -2.822  0.00  0.00    -0.122 NA
ATOM     16  N   UNL     1      -5.127   0.378  -2.305  0.00  0.00    -0.128 NA
ENDROOT
BRANCH   1  18
ATOM     17  C   UNL     1      -9.261   2.268   0.372  0.00  0.00    +0.012 C 
ATOM     18  C   UNL     1      -8.596   0.934   0.719  0.00  0.00    +0.071 C 
ENDBRANCH   1  18
BRANCH  14  19
ATOM     19  S   UNL     1      -8.946  -0.044  -2.199  0.00  0.00    -0.076 S 
BRANCH  19  20
ATOM     20  C   UNL     1      -9.043  -0.611  -3.919  0.00  0.00    +0.173 C 
BRANCH  20  21
ATOM     21  C   UNL     1     -10.479  -0.896  -4.274  0.00  0.00    +0.227 C 
ATOM     22  O   UNL     1     -11.352  -0.734  -3.447  0.00  0.00    -0.275 OA
ATOM     23  N   UNL     1     -10.794  -1.332  -5.510  0.00  0.00    -0.285 N 
ATOM     24  H   UNL     1     -10.108  -1.391  -6.193  0.00  0.00    +0.155 HD
BRANCH  23  25
ATOM     25  C   UNL     1     -12.113  -1.699  -5.808  0.00  0.00    +0.034 A 
ATOM     26  C   UNL     1     -12.909  -2.284  -4.831  0.00  0.00    +0.025 A 
ATOM     27  C   UNL     1     -14.209  -2.642  -5.124  0.00  0.00    +0.025 A 
ATOM     28  C   UNL     1     -14.719  -2.426  -6.397  0.00  0.00    +0.033 A 
ATOM     29  C   UNL     1     -13.922  -1.845  -7.375  0.00  0.00    +0.025 A 
ATOM     30  C   UNL     1     -12.623  -1.483  -7.081  0.00  0.00    +0.025 A 
BRANCH  28  31
ATOM     31  N   UNL     1     -16.038  -2.793  -6.696  0.00  0.00    -0.286 N 
ATOM     32  C   UNL     1     -16.999  -2.670  -5.759  0.00  0.00    +0.217 C 
ATOM     33  O   UNL     1     -16.710  -2.321  -4.634  0.00  0.00    -0.275 OA
ATOM     34  H   UNL     1     -16.259  -3.135  -7.576  0.00  0.00    +0.155 HD
BRANCH  32  35
ATOM     35  C   UNL     1     -18.435  -2.966  -6.110  0.00  0.00    +0.093 C 
ATOM     36  C   UNL     1     -19.316  -2.751  -4.878  0.00  0.00    +0.013 C 
ENDBRANCH  32  35
ENDBRANCH  28  31
ENDBRANCH  23  25
ENDBRANCH  20  21
ENDBRANCH  19  20
ENDBRANCH  14  19
TORSDOF 7
