REMARK  Name = ZINC09768442
REMARK  14 active torsions:
REMARK  status: ('A' for Active; 'I' for Inactive)
REMARK    1  A    between atoms: C_1  and  O_2
REMARK    2  A    between atoms: O_2  and  C_3
REMARK    3  A    between atoms: N_9  and  C_31
REMARK    4  A    between atoms: N_11  and  C_12
REMARK    5  A    between atoms: C_12  and  C_14
REMARK    6  A    between atoms: C_17  and  S_20
REMARK    7  A    between atoms: S_20  and  N_23
REMARK    8  A    between atoms: N_23  and  C_24
REMARK    9  A    between atoms: N_23  and  C_27
REMARK   10  A    between atoms: C_24  and  C_25
REMARK   11  A    between atoms: C_27  and  C_28
REMARK   12  A    between atoms: C_31  and  C_32
REMARK   13  A    between atoms: C_32  and  O_34
REMARK   14  A    between atoms: O_34  and  C_35
REMARK                            x       y       z     vdW  Elec       q    Type
REMARK                         _______ _______ _______ _____ _____    ______ ____
ROOT
ATOM      1  C   UNL     1      -2.847   7.542   0.072  0.00  0.00    +0.269 C 
ATOM      2  O   UNL     1      -1.672   7.865   0.062  0.00  0.00    -0.268 OA
ENDROOT
BRANCH   1  11
ATOM      3  C   UNL     1      -1.223   1.737   0.017  0.00  0.00    +0.145 A 
ATOM      4  C   UNL     1      -0.013   1.076   0.008  0.00  0.00    +0.048 A 
ATOM      5  C   UNL     1       1.184   1.772   0.000  0.00  0.00    +0.005 A 
ATOM      6  C   UNL     1       1.162   3.156   0.008  0.00  0.00    +0.017 A 
ATOM      7  C   UNL     1      -0.044   3.818   0.023  0.00  0.00    +0.042 A 
ATOM      8  C   UNL     1      -1.272   3.144   0.031  0.00  0.00    +0.100 A 
ATOM      9  N   UNL     1      -2.387   3.964   0.047  0.00  0.00    -0.307 N 
ATOM     10  C   UNL     1      -2.239   5.315   0.053  0.00  0.00    +0.167 A 
ATOM     11  N   UNL     1      -3.184   6.249   0.068  0.00  0.00    -0.152 NA
ATOM     12  S   UNL     1      -0.518   5.529   0.037  0.00  0.00    -0.052 S 
BRANCH   3  14
ATOM     13  C   UNL     1      -2.263  -0.401   0.011  0.00  0.00    +0.277 C 
ATOM     14  O   UNL     1      -2.380   1.023   0.019  0.00  0.00    -0.493 OA
ENDBRANCH   3  14
BRANCH   9  15
ATOM     15  C   UNL     1      -3.729   3.375   0.056  0.00  0.00    +0.244 C 
BRANCH  15  16
ATOM     16  C   UNL     1      -4.202   3.182  -1.362  0.00  0.00    +0.327 C 
ATOM     17  O   UNL     1      -3.492   3.503  -2.285  0.00  0.00    -0.249 OA
BRANCH  16  18
ATOM     18  O   UNL     1      -5.413   2.653  -1.599  0.00  0.00    -0.467 OA
ATOM     19  C   UNL     1      -5.803   2.496  -2.989  0.00  0.00    +0.280 C 
ENDBRANCH  16  18
ENDBRANCH  15  16
ENDBRANCH   9  15
ENDBRANCH   1  11
BRANCH   1  20
ATOM     20  C   UNL     1      -3.901   8.582   0.089  0.00  0.00    +0.039 A 
ATOM     21  C   UNL     1      -5.247   8.216   0.095  0.00  0.00    +0.015 A 
ATOM     22  C   UNL     1      -6.225   9.189   0.115  0.00  0.00    +0.029 A 
ATOM     23  C   UNL     1      -5.872  10.527   0.119  0.00  0.00    +0.106 A 
ATOM     24  C   UNL     1      -4.539  10.897   0.109  0.00  0.00    +0.029 A 
ATOM     25  C   UNL     1      -3.553   9.933   0.094  0.00  0.00    +0.015 A 
BRANCH  23  26
ATOM     26  S   UNL     1      -7.126  11.765   0.137  0.00  0.00    +0.061 S 
ATOM     27  O   UNL     1      -8.285  11.160   0.696  0.00  0.00    -0.153 OA
ATOM     28  O   UNL     1      -6.536  12.933   0.689  0.00  0.00    -0.153 OA
BRANCH  26  29
ATOM     29  N   UNL     1      -7.489  12.117  -1.440  0.00  0.00    -0.169 NA
BRANCH  29  30
ATOM     30  C   UNL     1      -8.541  11.370  -2.134  0.00  0.00    +0.136 C 
BRANCH  30  31
ATOM     31  C   UNL     1      -9.840  12.128  -2.041  0.00  0.00    -0.018 C 
ATOM     32  C   UNL     1     -10.498  12.435  -3.132  0.00  0.00    +0.005 C 
ENDBRANCH  30  31
ENDBRANCH  29  30
BRANCH  29  33
ATOM     33  C   UNL     1      -6.759  13.176  -2.140  0.00  0.00    +0.136 C 
BRANCH  33  34
ATOM     34  C   UNL     1      -5.617  12.571  -2.915  0.00  0.00    -0.018 C 
ATOM     35  C   UNL     1      -5.507  12.794  -4.201  0.00  0.00    +0.005 C 
ENDBRANCH  33  34
ENDBRANCH  29  33
ENDBRANCH  26  29
ENDBRANCH  23  26
ENDBRANCH   1  20
TORSDOF 12
