REMARK  Name = ZINC18093656
REMARK  9 active torsions:
REMARK  status: ('A' for Active; 'I' for Inactive)
REMARK    1  A    between atoms: C_1  and  C_2
REMARK    2  A    between atoms: C_2  and  C_3
REMARK    3  A    between atoms: C_3  and  O_4
REMARK    4  A    between atoms: O_4  and  C_5
REMARK    5  A    between atoms: C_10  and  C_11
REMARK    6  A    between atoms: C_13  and  C_20
REMARK    7  A    between atoms: C_14  and  C_19
REMARK    8  A    between atoms: N_22  and  C_23
REMARK    9  A    between atoms: C_26  and  C_29
REMARK                            x       y       z     vdW  Elec       q    Type
REMARK                         _______ _______ _______ _____ _____    ______ ____
ROOT
ATOM      1  C   UNL     1      -2.014   3.258   3.632  0.00  0.00    +0.143 C 
ATOM      2  C   UNL     1      -0.748   3.312   4.464  0.00  0.00    +0.056 C 
ATOM      3  C   UNL     1      -0.798   3.966   5.643  0.00  0.00    +0.017 C 
ATOM      4  N   UNL     1      -1.951   4.560   6.071  0.00  0.00    -0.300 N 
ATOM      5  C   UNL     1      -3.097   4.544   5.378  0.00  0.00    +0.135 C 
ATOM      6  S   UNL     1      -4.471   5.329   6.030  0.00  0.00    -0.019 S 
ATOM      7  N   UNL     1      -3.203   3.929   4.183  0.00  0.00    -0.315 N 
ATOM      8  C   UNL     1       0.438   4.043   6.502  0.00  0.00    +0.061 C 
ATOM      9  H   UNL     1      -1.972   5.090   7.035  0.00  0.00    +0.154 HD
ATOM     10  H   UNL     1      -4.149   3.921   3.622  0.00  0.00    +0.149 HD
ENDROOT
BRANCH   1  16
ATOM     11  C   UNL     1      -2.398   3.442   1.161  0.00  0.00    +0.126 A 
ATOM     12  C   UNL     1      -2.123   4.013  -0.073  0.00  0.00    +0.046 A 
ATOM     13  C   UNL     1      -1.166   5.004  -0.177  0.00  0.00    +0.004 A 
ATOM     14  C   UNL     1      -0.482   5.427   0.948  0.00  0.00    +0.001 A 
ATOM     15  C   UNL     1      -0.753   4.859   2.179  0.00  0.00    +0.009 A 
ATOM     16  C   UNL     1      -1.714   3.872   2.289  0.00  0.00    +0.019 A 
BRANCH  11  17
ATOM     17  O   UNL     1      -3.339   2.467   1.266  0.00  0.00    -0.492 OA
BRANCH  17  18
ATOM     18  C   UNL     1      -4.095   2.166   0.091  0.00  0.00    +0.229 C 
BRANCH  18  20
ATOM     19  C   UNL     1      -6.058   0.903  -0.797  0.00  0.00    +0.007 C 
ATOM     20  C   UNL     1      -5.174   1.136   0.429  0.00  0.00    +0.038 C 
ENDBRANCH  18  20
ENDBRANCH  17  18
ENDBRANCH  11  17
ENDBRANCH   1  16
BRANCH   2  21
ATOM     21  C   UNL     1       0.447   2.695   4.019  0.00  0.00    +0.248 C 
ATOM     22  O   UNL     1       1.479   2.844   4.647  0.00  0.00    -0.270 OA
ATOM     23  N   UNL     1       0.441   1.943   2.901  0.00  0.00    -0.282 N 
ATOM     24  H   UNL     1      -0.471   1.872   2.290  0.00  0.00    +0.155 HD
BRANCH  23  25
ATOM     25  C   UNL     1       1.595   1.253   2.516  0.00  0.00    +0.034 A 
ATOM     26  C   UNL     1       2.426   0.695   3.479  0.00  0.00    +0.023 A 
ATOM     27  C   UNL     1       3.562   0.011   3.096  0.00  0.00    +0.005 A 
ATOM     28  C   UNL     1       3.879  -0.111   1.755  0.00  0.00    -0.050 A 
ATOM     29  C   UNL     1       3.057   0.449   0.794  0.00  0.00    +0.005 A 
ATOM     30  C   UNL     1       1.917   1.130   1.170  0.00  0.00    +0.023 A 
ATOM     31  C   UNL     1       5.123  -0.854   1.341  0.00  0.00    +0.044 C 
ENDBRANCH  23  25
ENDBRANCH   2  21
TORSDOF 6
