REMARK  Name = ZINC24176397
REMARK  9 active torsions:
REMARK  status: ('A' for Active; 'I' for Inactive)
REMARK    1  A    between atoms: C_1  and  N_2
REMARK    2  A    between atoms: C_3  and  C_24
REMARK    3  A    between atoms: C_6  and  S_7
REMARK    4  A    between atoms: S_7  and  C_8
REMARK    5  A    between atoms: C_8  and  C_9
REMARK    6  A    between atoms: N_11  and  C_12
REMARK    7  A    between atoms: C_13  and  C_21
REMARK    8  A    between atoms: C_27  and  O_30
REMARK    9  A    between atoms: O_30  and  C_31
REMARK                            x       y       z     vdW  Elec       q    Type
REMARK                         _______ _______ _______ _____ _____    ______ ____
ROOT
ATOM      1  C   UNL     1      -0.452   1.045   0.992  0.00  0.00    +0.228 C 
ATOM      2  O   UNL     1       0.638   1.566   1.099  0.00  0.00    -0.275 OA
ATOM      3  N   UNL     1      -0.577  -0.290   1.123  0.00  0.00    -0.279 N 
ATOM      4  H   UNL     1      -1.566  -0.763   1.026  0.00  0.00    +0.155 HD
ENDROOT
BRANCH   3   5
ATOM      5  C   UNL     1       0.541  -1.069   1.381  0.00  0.00    +0.084 A 
ATOM      6  C   UNL     1       0.613  -2.445   1.552  0.00  0.00    +0.068 A 
ATOM      7  C   UNL     1       1.921  -3.021   1.811  0.00  0.00    -0.023 A 
ATOM      8  C   UNL     1       2.940  -2.136   1.867  0.00  0.00    -0.004 A 
ATOM      9  S   UNL     1       2.186  -0.561   1.574  0.00  0.00    -0.077 S 
ATOM     10  C   UNL     1       4.385  -2.436   2.122  0.00  0.00    +0.043 C 
ATOM     11  C   UNL     1       4.491  -3.861   2.684  0.00  0.00    +0.005 C 
ATOM     12  C   UNL     1       3.653  -4.800   1.810  0.00  0.00    +0.005 C 
ATOM     13  C   UNL     1       2.165  -4.511   2.015  0.00  0.00    +0.037 C 
BRANCH   6  14
ATOM     14  C   UNL     1      -0.586  -3.285   1.471  0.00  0.00    +0.244 C 
ATOM     15  O   UNL     1      -0.928  -3.755   0.402  0.00  0.00    -0.270 OA
ATOM     16  N   UNL     1      -1.309  -3.537   2.580  0.00  0.00    -0.325 N 
ATOM     17  H   UNL     1      -2.208  -4.167   2.519  0.00  0.00    +0.145 HD
ATOM     18  H   UNL     1      -0.999  -3.112   3.547  0.00  0.00    +0.145 HD
ENDBRANCH   6  14
ENDBRANCH   3   5
BRANCH   1  19
ATOM     19  C   UNL     1      -1.666   1.891   0.706  0.00  0.00    +0.173 C 
BRANCH  19  20
ATOM     20  S   UNL     1      -1.176   3.629   0.587  0.00  0.00    -0.077 S 
BRANCH  20  26
ATOM     21  C   UNL     1      -2.013   6.790   0.100  0.00  0.00    +0.153 C 
ATOM     22  N   UNL     1      -2.988   5.697   0.070  0.00  0.00    -0.305 N 
ATOM     23  C   UNL     1      -4.341   5.797  -0.155  0.00  0.00    +0.165 A 
ATOM     24  N   UNL     1      -4.832   4.580  -0.095  0.00  0.00    -0.128 NA
ATOM     25  N   UNL     1      -3.891   3.739   0.143  0.00  0.00    -0.122 NA
ATOM     26  C   UNL     1      -2.742   4.367   0.258  0.00  0.00    +0.192 A 
BRANCH  23  27
ATOM     27  C   UNL     1      -5.100   7.038  -0.415  0.00  0.00    +0.019 A 
ATOM     28  C   UNL     1      -6.480   7.072  -0.207  0.00  0.00    +0.015 A 
ATOM     29  C   UNL     1      -7.184   8.233  -0.446  0.00  0.00    +0.046 A 
ATOM     30  C   UNL     1      -6.523   9.366  -0.903  0.00  0.00    +0.120 A 
ATOM     31  C   UNL     1      -5.151   9.335  -1.116  0.00  0.00    +0.046 A 
ATOM     32  C   UNL     1      -4.439   8.179  -0.875  0.00  0.00    +0.015 A 
BRANCH  30  33
ATOM     33  O   UNL     1      -7.220  10.507  -1.143  0.00  0.00    -0.495 OA
ATOM     34  C   UNL     1      -8.628  10.469  -0.903  0.00  0.00    +0.277 C 
ENDBRANCH  30  33
ENDBRANCH  23  27
ENDBRANCH  20  26
ENDBRANCH  19  20
ENDBRANCH   1  19
TORSDOF 7
