REMARK  Name = ZINC08400275
REMARK  8 active torsions:
REMARK  status: ('A' for Active; 'I' for Inactive)
REMARK    1  A    between atoms: C_1  and  C_2
REMARK    2  A    between atoms: C_4  and  C_22
REMARK    3  A    between atoms: C_6  and  C_9
REMARK    4  A    between atoms: C_7  and  O_8
REMARK    5  A    between atoms: N_10  and  N_11
REMARK    6  A    between atoms: N_11  and  C_12
REMARK    7  A    between atoms: N_23  and  N_24
REMARK    8  A    between atoms: N_24  and  C_25
REMARK                            x       y       z     vdW  Elec       q    Type
REMARK                         _______ _______ _______ _____ _____    ______ ____
ROOT
ATOM      1  C   UNL     1      -0.018   1.503   0.010  0.00  0.00    +0.047 C 
ATOM      2  C   UNL     1       0.002  -0.004   0.002  0.00  0.00    -0.008 A 
ATOM      3  C   UNL     1       0.006  -0.684  -1.198  0.00  0.00    +0.016 A 
ATOM      4  C   UNL     1       0.025  -2.083  -1.214  0.00  0.00    -0.004 A 
ATOM      5  C   UNL     1       0.040  -2.793  -0.014  0.00  0.00    +0.022 A 
ATOM      6  C   UNL     1       0.037  -2.103   1.197  0.00  0.00    +0.037 A 
ATOM      7  C   UNL     1       0.023  -0.701   1.200  0.00  0.00    +0.128 A 
ENDROOT
BRANCH   7   8
ATOM      8  O   UNL     1       0.025  -0.025   2.378  0.00  0.00    -0.506 OA
ATOM      9  H   UNL     1      -0.858   0.159   2.728  0.00  0.00    +0.292 HD
ENDBRANCH   7   8
BRANCH   6  10
ATOM     10  C   UNL     1       0.054  -2.846   2.470  0.00  0.00    +0.141 C 
ATOM     11  N   UNL     1       0.051  -2.201   3.598  0.00  0.00    -0.190 NA
BRANCH  11  12
ATOM     12  N   UNL     1       0.066  -2.907   4.808  0.00  0.00    -0.236 N 
ATOM     13  H   UNL     1       0.079  -3.877   4.804  0.00  0.00    +0.174 HD
BRANCH  12  14
ATOM     14  C   UNL     1       0.063  -2.216   6.016  0.00  0.00    +0.074 A 
ATOM     15  C   UNL     1       0.038  -0.837   6.029  0.00  0.00    +0.027 A 
ATOM     16  C   UNL     1       0.034  -0.135   7.229  0.00  0.00    +0.003 A 
ATOM     17  C   UNL     1       0.055  -0.789   8.424  0.00  0.00    +0.010 A 
ATOM     18  C   UNL     1       0.080  -2.193   8.454  0.00  0.00    +0.002 A 
ATOM     19  C   UNL     1       0.079  -2.922   7.240  0.00  0.00    +0.093 A 
ATOM     20  N   UNL     1       0.097  -4.257   7.265  0.00  0.00    -0.253 NA
ATOM     21  C   UNL     1       0.112  -4.917   8.398  0.00  0.00    +0.111 A 
ATOM     22  C   UNL     1       0.109  -4.263   9.627  0.00  0.00    +0.020 A 
ATOM     23  C   UNL     1       0.102  -2.898   9.673  0.00  0.00    +0.011 A 
ENDBRANCH  12  14
ENDBRANCH  11  12
ENDBRANCH   6  10
BRANCH   4  24
ATOM     24  C   UNL     1       0.028  -2.805  -2.500  0.00  0.00    +0.138 C 
ATOM     25  N   UNL     1       0.045  -4.104  -2.514  0.00  0.00    -0.190 NA
BRANCH  25  26
ATOM     26  N   UNL     1       0.048  -4.790  -3.735  0.00  0.00    -0.236 N 
ATOM     27  H   UNL     1       0.036  -4.296  -4.570  0.00  0.00    +0.174 HD
BRANCH  26  28
ATOM     28  C   UNL     1       0.067  -6.182  -3.751  0.00  0.00    +0.074 A 
ATOM     29  C   UNL     1       0.077  -6.891  -2.568  0.00  0.00    +0.027 A 
ATOM     30  C   UNL     1       0.096  -8.281  -2.570  0.00  0.00    +0.003 A 
ATOM     31  C   UNL     1       0.104  -8.981  -3.739  0.00  0.00    +0.010 A 
ATOM     32  C   UNL     1       0.093  -8.296  -4.965  0.00  0.00    +0.002 A 
ATOM     33  C   UNL     1       0.069  -6.880  -4.980  0.00  0.00    +0.093 A 
ATOM     34  N   UNL     1       0.055  -6.226  -6.144  0.00  0.00    -0.253 NA
ATOM     35  C   UNL     1       0.058  -6.869  -7.287  0.00  0.00    +0.111 A 
ATOM     36  C   UNL     1       0.076  -8.260  -7.345  0.00  0.00    +0.020 A 
ATOM     37  C   UNL     1       0.102  -8.990  -6.191  0.00  0.00    +0.011 A 
ENDBRANCH  26  28
ENDBRANCH  25  26
ENDBRANCH   4  24
TORSDOF 7
