REMARK  Name = ZINC59461420
REMARK  14 active torsions:
REMARK  status: ('A' for Active; 'I' for Inactive)
REMARK    1  A    between atoms: C_1  and  C_2
REMARK    2  A    between atoms: C_7  and  N_8
REMARK    3  A    between atoms: N_8  and  C_9
REMARK    4  A    between atoms: C_9  and  N_11
REMARK    5  A    between atoms: N_11  and  C_12
REMARK    6  A    between atoms: C_12  and  C_13
REMARK    7  A    between atoms: C_13  and  C_33
REMARK    8  A    between atoms: C_15  and  N_22
REMARK    9  A    between atoms: C_18  and  C_20
REMARK   10  A    between atoms: C_18  and  C_21
REMARK   11  A    between atoms: N_22  and  C_23
REMARK   12  A    between atoms: C_23  and  N_25
REMARK   13  A    between atoms: N_25  and  C_26
REMARK   14  A    between atoms: C_31  and  C_32
REMARK                            x       y       z     vdW  Elec       q    Type
REMARK                         _______ _______ _______ _____ _____    ______ ____
ROOT
ATOM      1  C   UNL     1      -0.134   0.491   6.832  0.00  0.00    -0.014 C 
ATOM      2  C   UNL     1       0.872   1.585   6.511  0.00  0.00    +0.030 C 
ATOM      3  C   UNL     1       1.239   2.441   7.710  0.00  0.00    +0.073 C 
ATOM      4  C   UNL     1       1.687   1.599   8.891  0.00  0.00    +0.028 C 
ATOM      5  C   UNL     1       0.712   0.493   9.260  0.00  0.00    -0.033 C 
ATOM      6  C   UNL     1       0.237  -0.311   8.065  0.00  0.00    +0.014 C 
ATOM      7  C   UNL     1      -0.472   1.055  10.052  0.00  0.00    +0.011 C 
ATOM      8  C   UNL     1       1.458  -0.480  10.206  0.00  0.00    +0.011 C 
ATOM      9  C   UNL     1      -1.548   1.063   6.947  0.00  0.00    +0.013 C 
ENDROOT
BRANCH   3  10
ATOM     10  N   UNL     1       0.174   3.371   8.071  0.00  0.00    -0.323 N 
ATOM     11  H   UNL     1      -0.737   3.200   7.783  0.00  0.00    +0.148 HD
BRANCH  10  12
ATOM     12  C   UNL     1       0.455   4.466   8.804  0.00  0.00    +0.135 C 
ATOM     13  S   UNL     1       2.062   4.767   9.311  0.00  0.00    -0.019 S 
BRANCH  12  14
ATOM     14  N   UNL     1      -0.529   5.325   9.137  0.00  0.00    -0.297 N 
ATOM     15  H   UNL     1      -1.449   5.122   8.906  0.00  0.00    +0.154 HD
BRANCH  14  16
ATOM     16  C   UNL     1      -0.224   6.510   9.815  0.00  0.00    +0.036 A 
ATOM     17  C   UNL     1       0.701   6.500  10.851  0.00  0.00    +0.023 A 
ATOM     18  C   UNL     1       1.001   7.671  11.519  0.00  0.00    +0.002 A 
ATOM     19  C   UNL     1       0.381   8.853  11.156  0.00  0.00    +0.000 A 
ATOM     20  C   UNL     1      -0.540   8.866  10.125  0.00  0.00    +0.005 A 
ATOM     21  C   UNL     1      -0.840   7.699   9.450  0.00  0.00    -0.029 A 
ATOM     22  C   UNL     1      -1.839   7.716   8.322  0.00  0.00    +0.045 C 
ENDBRANCH  14  16
ENDBRANCH  12  14
ENDBRANCH  10  12
ENDBRANCH   3  10
BRANCH   1  23
ATOM     23  C   UNL     1      -0.145  -0.487   5.631  0.00  0.00    +0.110 C 
BRANCH  23  24
ATOM     24  N   UNL     1      -0.499   0.242   4.411  0.00  0.00    -0.326 N 
ATOM     25  H   UNL     1      -0.682   1.194   4.450  0.00  0.00    +0.148 HD
BRANCH  24  26
ATOM     26  C   UNL     1      -0.571  -0.410   3.233  0.00  0.00    +0.135 C 
ATOM     27  S   UNL     1      -0.249  -2.090   3.163  0.00  0.00    -0.019 S 
BRANCH  26  28
ATOM     28  N   UNL     1      -0.898   0.261   2.111  0.00  0.00    -0.297 N 
ATOM     29  H   UNL     1      -1.017   1.223   2.138  0.00  0.00    +0.154 HD
BRANCH  28  36
ATOM     30  C   UNL     1      -3.204   0.828   0.543  0.00  0.00    +0.045 C 
ATOM     31  C   UNL     1      -2.175  -0.184   0.110  0.00  0.00    -0.029 A 
ATOM     32  C   UNL     1      -2.333  -0.864  -1.082  0.00  0.00    +0.005 A 
ATOM     33  C   UNL     1      -1.389  -1.793  -1.480  0.00  0.00    +0.000 A 
ATOM     34  C   UNL     1      -0.284  -2.045  -0.687  0.00  0.00    +0.002 A 
ATOM     35  C   UNL     1      -0.120  -1.368   0.506  0.00  0.00    +0.023 A 
ATOM     36  C   UNL     1      -1.064  -0.430   0.906  0.00  0.00    +0.036 A 
ENDBRANCH  28  36
ENDBRANCH  26  28
ENDBRANCH  24  26
ENDBRANCH  23  24
ENDBRANCH   1  23
TORSDOF 9
