REMARK  Name = ZINC01407986
REMARK  14 active torsions:
REMARK  status: ('A' for Active; 'I' for Inactive)
REMARK    1  A    between atoms: C_1  and  C_2
REMARK    2  A    between atoms: C_7  and  C_8
REMARK    3  A    between atoms: C_8  and  N_9
REMARK    4  A    between atoms: N_9  and  C_10
REMARK    5  A    between atoms: C_10  and  C_12
REMARK    6  A    between atoms: C_10  and  C_19
REMARK    7  A    between atoms: N_21  and  C_22
REMARK    8  A    between atoms: C_25  and  O_28
REMARK    9  A    between atoms: O_28  and  C_29
REMARK   10  A    between atoms: C_30  and  C_32
REMARK   11  A    between atoms: C_32  and  S_33
REMARK   12  A    between atoms: S_33  and  C_34
REMARK   13  A    between atoms: C_36  and  C_41
REMARK   14  A    between atoms: C_38  and  C_40
REMARK                            x       y       z     vdW  Elec       q    Type
REMARK                         _______ _______ _______ _____ _____    ______ ____
ROOT
ATOM      1  N   UNL     1      -1.727   2.120   1.480  0.00  0.00    -0.285 N 
ATOM      2  C   UNL     1      -2.254   1.834   2.687  0.00  0.00    +0.227 C 
ATOM      3  O   UNL     1      -1.581   1.271   3.524  0.00  0.00    -0.275 OA
ENDROOT
BRANCH   1   4
ATOM      4  C   UNL     1      -2.538   2.804   0.470  0.00  0.00    +0.144 C 
BRANCH   4  11
ATOM      5  C   UNL     1      -3.706   0.376  -0.573  0.00  0.00    +0.044 C 
ATOM      6  C   UNL     1      -2.712   1.150  -1.401  0.00  0.00    -0.046 A 
ATOM      7  C   UNL     1      -2.360   0.699  -2.659  0.00  0.00    +0.003 A 
ATOM      8  C   UNL     1      -1.449   1.409  -3.418  0.00  0.00    +0.000 A 
ATOM      9  C   UNL     1      -0.890   2.571  -2.918  0.00  0.00    +0.000 A 
ATOM     10  C   UNL     1      -1.246   3.025  -1.663  0.00  0.00    +0.005 A 
ATOM     11  C   UNL     1      -2.154   2.312  -0.902  0.00  0.00    -0.027 A 
ENDBRANCH   4  11
ENDBRANCH   1   4
BRANCH   1  12
ATOM     12  C   UNL     1      -0.343   1.746   1.177  0.00  0.00    +0.166 C 
BRANCH  12  13
ATOM     13  C   UNL     1      -0.334   0.632   0.128  0.00  0.00    +0.023 C 
ATOM     14  C   UNL     1      -1.122  -0.576   0.651  0.00  0.00    +0.010 C 
ATOM     15  C   UNL     1      -1.252  -1.596  -0.482  0.00  0.00    +0.027 C 
ATOM     16  C   UNL     1       0.088  -1.846  -1.108  0.00  0.00    -0.031 C 
ATOM     17  C   UNL     1       1.113  -1.068  -0.966  0.00  0.00    -0.031 C 
ATOM     18  C   UNL     1       1.105   0.189  -0.145  0.00  0.00    +0.032 C 
ENDBRANCH  12  13
BRANCH  12  19
ATOM     19  C   UNL     1       0.396   2.945   0.643  0.00  0.00    +0.238 C 
ATOM     20  O   UNL     1      -0.193   3.990   0.463  0.00  0.00    -0.273 OA
ATOM     21  N   UNL     1       1.712   2.857   0.365  0.00  0.00    -0.284 N 
ATOM     22  H   UNL     1       2.199   2.046   0.577  0.00  0.00    +0.155 HD
BRANCH  21  23
ATOM     23  C   UNL     1       2.376   3.938  -0.231  0.00  0.00    +0.034 A 
ATOM     24  C   UNL     1       3.733   4.128  -0.007  0.00  0.00    +0.027 A 
ATOM     25  C   UNL     1       4.388   5.190  -0.598  0.00  0.00    +0.047 A 
ATOM     26  C   UNL     1       3.688   6.073  -1.407  0.00  0.00    +0.120 A 
ATOM     27  C   UNL     1       2.331   5.887  -1.627  0.00  0.00    +0.047 A 
ATOM     28  C   UNL     1       1.676   4.822  -1.041  0.00  0.00    +0.027 A 
BRANCH  26  29
ATOM     29  O   UNL     1       4.332   7.122  -1.985  0.00  0.00    -0.495 OA
ATOM     30  C   UNL     1       5.729   7.253  -1.715  0.00  0.00    +0.277 C 
ENDBRANCH  26  29
ENDBRANCH  21  23
ENDBRANCH  12  19
ENDBRANCH   1  12
BRANCH   2  31
ATOM     31  C   UNL     1      -3.679   2.214   2.996  0.00  0.00    +0.173 C 
BRANCH  31  32
ATOM     32  S   UNL     1      -3.906   2.295   4.790  0.00  0.00    -0.077 S 
BRANCH  32  33
ATOM     33  C   UNL     1      -5.607   2.746   4.864  0.00  0.00    +0.189 A 
ATOM     34  N   UNL     1      -6.281   2.916   3.735  0.00  0.00    -0.227 NA
ATOM     35  C   UNL     1      -7.561   3.249   3.755  0.00  0.00    +0.043 A 
ATOM     36  C   UNL     1      -8.193   3.430   4.975  0.00  0.00    +0.046 A 
ATOM     37  C   UNL     1      -7.458   3.249   6.136  0.00  0.00    +0.043 A 
ATOM     38  N   UNL     1      -6.183   2.911   6.046  0.00  0.00    -0.227 NA
ATOM     39  C   UNL     1      -8.105   3.435   7.484  0.00  0.00    +0.066 C 
ATOM     40  C   UNL     1      -8.320   3.436   2.467  0.00  0.00    +0.066 C 
ENDBRANCH  32  33
ENDBRANCH  31  32
ENDBRANCH   2  31
TORSDOF 10
