REMARK  Name = ZINC63655782
REMARK  6 active torsions:
REMARK  status: ('A' for Active; 'I' for Inactive)
REMARK    1  A    between atoms: C_1  and  C_2
REMARK    2  A    between atoms: C_8  and  C_11
REMARK    3  A    between atoms: C_11  and  C_12
REMARK    4  A    between atoms: C_12  and  N_13
REMARK    5  A    between atoms: C_14  and  C_16
REMARK    6  A    between atoms: N_19  and  C_22
REMARK                            x       y       z     vdW  Elec       q    Type
REMARK                         _______ _______ _______ _____ _____    ______ ____
ROOT
ATOM      1  N   UNL     1      -1.377  -2.600   5.613  0.00  0.00    -0.315 N 
ATOM      2  C   UNL     1      -2.537  -2.599   6.299  0.00  0.00    +0.216 C 
ATOM      3  O   UNL     1      -3.583  -2.808   5.722  0.00  0.00    -0.276 OA
ATOM      4  H   UNL     1      -0.540  -2.433   6.075  0.00  0.00    +0.149 HD
ENDROOT
BRANCH   2   5
ATOM      5  C   UNL     1      -2.534  -2.338   7.783  0.00  0.00    +0.077 C 
ATOM      6  C   UNL     1      -1.696  -3.408   8.489  0.00  0.00    +0.028 C 
ATOM      7  C   UNL     1      -1.748  -3.173  10.001  0.00  0.00    +0.088 C 
ATOM      8  N   UNL     1      -3.141  -3.236  10.460  0.00  0.00    -0.276 NA
ATOM      9  C   UNL     1      -3.955  -2.187   9.831  0.00  0.00    +0.088 C 
ATOM     10  C   UNL     1      -3.970  -2.392   8.315  0.00  0.00    +0.028 C 
BRANCH   8  11
ATOM     11  C   UNL     1      -3.216  -3.153  11.925  0.00  0.00    +0.208 C 
ATOM     12  N   UNL     1      -2.822  -1.819  12.400  0.00  0.00    -0.318 N 
ATOM     13  C   UNL     1      -3.778  -1.072  13.083  0.00  0.00    +0.061 A 
ATOM     14  C   UNL     1      -3.592   0.218  13.611  0.00  0.00    +0.027 A 
ATOM     15  C   UNL     1      -4.637   0.842  14.267  0.00  0.00    +0.022 A 
ATOM     16  C   UNL     1      -5.852   0.203  14.402  0.00  0.00    +0.112 A 
ATOM     17  N   UNL     1      -6.017  -1.010  13.902  0.00  0.00    -0.247 NA
ATOM     18  C   UNL     1      -5.047  -1.633  13.272  0.00  0.00    +0.121 A 
ATOM     19  S   UNL     1      -4.959  -3.237  12.503  0.00  0.00    -0.066 S 
ATOM     20  H   UNL     1      -1.929  -1.473  12.245  0.00  0.00    +0.148 HD
ENDBRANCH   8  11
ENDBRANCH   2   5
BRANCH   1  21
ATOM     21  C   UNL     1      -1.379  -2.854   4.170  0.00  0.00    +0.108 C 
BRANCH  21  22
ATOM     22  C   UNL     1       0.055  -2.799   3.641  0.00  0.00    +0.052 C 
BRANCH  22  30
ATOM     23  C   UNL     1      -0.018   1.503   0.010  0.00  0.00    +0.044 C 
ATOM     24  C   UNL     1       0.002  -0.004   0.002  0.00  0.00    -0.050 A 
ATOM     25  C   UNL     1       0.005  -0.680  -1.226  0.00  0.00    +0.005 A 
ATOM     26  C   UNL     1       0.023  -2.026  -1.317  0.00  0.00    +0.026 A 
ATOM     27  C   UNL     1       0.039  -2.826  -0.141  0.00  0.00    +0.043 A 
ATOM     28  N   UNL     1       0.057  -4.126   0.030  0.00  0.00    -0.380 N 
ATOM     29  C   UNL     1       0.067  -4.408   1.470  0.00  0.00    +0.144 C 
ATOM     30  C   UNL     1       0.052  -3.060   2.156  0.00  0.00    -0.040 C 
ATOM     31  C   UNL     1       0.036  -2.137   1.168  0.00  0.00    -0.001 A 
ATOM     32  C   UNL     1       0.022  -0.669   1.180  0.00  0.00    +0.013 A 
ATOM     33  H   UNL     1       0.062  -4.790  -0.677  0.00  0.00    +0.160 HD
ENDBRANCH  22  30
ENDBRANCH  21  22
ENDBRANCH   1  21
TORSDOF 5
