REMARK  Name = ZINC09725358
REMARK  8 active torsions:
REMARK  status: ('A' for Active; 'I' for Inactive)
REMARK    1  A    between atoms: C_2  and  C_3
REMARK    2  A    between atoms: C_3  and  N_4
REMARK    3  A    between atoms: C_8  and  S_30
REMARK    4  A    between atoms: N_13  and  C_14
REMARK    5  A    between atoms: C_14  and  C_16
REMARK    6  A    between atoms: C_19  and  C_22
REMARK    7  A    between atoms: C_22  and  C_24
REMARK    8  A    between atoms: S_30  and  N_33
REMARK                            x       y       z     vdW  Elec       q    Type
REMARK                         _______ _______ _______ _____ _____    ______ ____
ROOT
ATOM      1  N   UNL     1       0.055  12.462  -0.481  0.00  0.00    -0.317 N 
ATOM      2  C   UNL     1       0.230  13.829  -0.587  0.00  0.00    +0.058 A 
ATOM      3  C   UNL     1      -0.751  14.834  -0.607  0.00  0.00    +0.029 A 
ATOM      4  C   UNL     1      -0.398  16.158  -0.719  0.00  0.00    +0.030 A 
ATOM      5  C   UNL     1       0.929  16.542  -0.815  0.00  0.00    +0.106 A 
ATOM      6  C   UNL     1       1.916  15.573  -0.797  0.00  0.00    +0.045 A 
ATOM      7  C   UNL     1       1.565  14.248  -0.685  0.00  0.00    +0.041 A 
ATOM      8  S   UNL     1       2.475  12.726  -0.617  0.00  0.00    -0.052 S 
ATOM      9  C   UNL     1       1.134  11.635  -0.478  0.00  0.00    +0.167 A 
ATOM     10  N   UNL     1       1.156  10.309  -0.386  0.00  0.00    -0.152 NA
ENDROOT
BRANCH   5  11
ATOM     11  S   UNL     1       1.356  18.246  -0.956  0.00  0.00    +0.056 S 
ATOM     12  O   UNL     1       0.275  18.983  -0.400  0.00  0.00    -0.153 OA
ATOM     13  O   UNL     1       2.689  18.372  -0.481  0.00  0.00    -0.153 OA
BRANCH  11  14
ATOM     14  N   UNL     1       1.393  18.608  -2.572  0.00  0.00    -0.204 NA
ATOM     15  H   UNL     1       1.198  17.921  -3.228  0.00  0.00    +0.144 HD
ATOM     16  H   UNL     1       1.611  19.508  -2.862  0.00  0.00    +0.144 HD
ENDBRANCH  11  14
ENDBRANCH   5  11
BRANCH  10  17
ATOM     17  C   UNL     1       2.323   9.658  -0.400  0.00  0.00    +0.269 C 
ATOM     18  O   UNL     1       3.366  10.279  -0.498  0.00  0.00    -0.268 OA
BRANCH  17  19
ATOM     19  C   UNL     1       2.348   8.179  -0.297  0.00  0.00    +0.039 A 
ATOM     20  C   UNL     1       3.566   7.500  -0.311  0.00  0.00    +0.014 A 
ATOM     21  C   UNL     1       3.590   6.125  -0.215  0.00  0.00    +0.012 A 
ATOM     22  C   UNL     1       2.394   5.413  -0.103  0.00  0.00    +0.022 A 
ATOM     23  C   UNL     1       1.174   6.094  -0.094  0.00  0.00    +0.012 A 
ATOM     24  C   UNL     1       1.152   7.468  -0.185  0.00  0.00    +0.014 A 
BRANCH  22  25
ATOM     25  C   UNL     1       2.418   3.938   0.001  0.00  0.00    +0.193 C 
ATOM     26  O   UNL     1       3.463   3.336  -0.149  0.00  0.00    -0.287 OA
BRANCH  25  27
ATOM     27  C   UNL     1       1.173   3.197   0.286  0.00  0.00    +0.022 A 
ATOM     28  C   UNL     1       0.197   3.757   1.113  0.00  0.00    +0.012 A 
ATOM     29  C   UNL     1      -0.964   3.060   1.375  0.00  0.00    +0.001 A 
ATOM     30  C   UNL     1      -1.160   1.805   0.826  0.00  0.00    +0.000 A 
ATOM     31  C   UNL     1      -0.199   1.246   0.001  0.00  0.00    +0.001 A 
ATOM     32  C   UNL     1       0.966   1.932  -0.269  0.00  0.00    +0.012 A 
ENDBRANCH  25  27
ENDBRANCH  22  25
ENDBRANCH  17  19
ENDBRANCH  10  17
BRANCH   1  33
ATOM     33  C   UNL     1      -1.295  11.904  -0.373  0.00  0.00    +0.151 C 
BRANCH  33  35
ATOM     34  C   UNL     1      -1.744   9.505  -0.287  0.00  0.00    +0.005 C 
ATOM     35  C   UNL     1      -1.321  10.528  -0.987  0.00  0.00    -0.013 C 
ENDBRANCH  33  35
ENDBRANCH   1  33
TORSDOF 8
