REMARK  Name = ZINC21237080
REMARK  10 active torsions:
REMARK  status: ('A' for Active; 'I' for Inactive)
REMARK    1  A    between atoms: C_1  and  C_2
REMARK    2  A    between atoms: C_2  and  O_4
REMARK    3  A    between atoms: O_4  and  C_5
REMARK    4  A    between atoms: C_8  and  C_13
REMARK    5  A    between atoms: C_10  and  O_11
REMARK    6  A    between atoms: O_11  and  C_12
REMARK    7  A    between atoms: C_18  and  C_23
REMARK    8  A    between atoms: C_26  and  N_29
REMARK    9  A    between atoms: N_29  and  C_30
REMARK   10  A    between atoms: N_29  and  C_31
REMARK                            x       y       z     vdW  Elec       q    Type
REMARK                         _______ _______ _______ _____ _____    ______ ____
ROOT
ATOM      1  C   UNL     1       2.407   4.033  -0.130  0.00  0.00    +0.136 C 
ATOM      2  C   UNL     1       2.841   4.238   1.301  0.00  0.00    +0.036 C 
ATOM      3  C   UNL     1       3.871   3.624   1.909  0.00  0.00    +0.017 C 
ATOM      4  C   UNL     1       4.208   3.934   3.357  0.00  0.00    +0.059 C 
ATOM      5  C   UNL     1       2.936   4.280   4.128  0.00  0.00    +0.032 C 
ATOM      6  C   UNL     1       2.298   5.500   3.453  0.00  0.00    +0.088 C 
ATOM      7  C   UNL     1       2.049   5.171   2.012  0.00  0.00    +0.163 C 
ATOM      8  O   UNL     1       1.135   5.726   1.433  0.00  0.00    -0.292 OA
ATOM      9  N   UNL     1       4.689   2.719   1.314  0.00  0.00    -0.316 N 
ATOM     10  C   UNL     1       4.261   1.652   0.532  0.00  0.00    +0.052 A 
ATOM     11  C   UNL     1       4.506   0.335   0.881  0.00  0.00    +0.025 A 
ATOM     12  C   UNL     1       4.158  -0.676   0.001  0.00  0.00    +0.002 A 
ATOM     13  C   UNL     1       3.571  -0.371  -1.214  0.00  0.00    +0.002 A 
ATOM     14  C   UNL     1       3.306   0.944  -1.554  0.00  0.00    +0.025 A 
ATOM     15  C   UNL     1       3.636   1.956  -0.668  0.00  0.00    +0.049 A 
ATOM     16  N   UNL     1       3.346   3.291  -0.944  0.00  0.00    -0.331 N 
ATOM     17  H   UNL     1       5.779   2.800   1.435  0.00  0.00    +0.152 HD
ATOM     18  H   UNL     1       3.842   3.780  -1.795  0.00  0.00    +0.147 HD
ENDROOT
BRANCH   1  22
ATOM     19  C   UNL     1      -1.322   1.939  -0.131  0.00  0.00    +0.173 A 
ATOM     20  C   UNL     1      -0.169   1.306   0.306  0.00  0.00    +0.050 A 
ATOM     21  C   UNL     1       1.035   1.986   0.304  0.00  0.00    +0.009 A 
ATOM     22  C   UNL     1       1.092   3.297  -0.129  0.00  0.00    -0.019 A 
ATOM     23  C   UNL     1      -0.056   3.936  -0.562  0.00  0.00    +0.055 A 
ATOM     24  C   UNL     1      -1.266   3.261  -0.562  0.00  0.00    +0.163 A 
BRANCH  24  25
ATOM     25  O   UNL     1      -2.395   3.887  -0.987  0.00  0.00    -0.491 OA
ATOM     26  C   UNL     1      -2.262   5.242  -1.421  0.00  0.00    +0.277 C 
ENDBRANCH  24  25
BRANCH  19  27
ATOM     27  O   UNL     1      -2.506   1.270  -0.135  0.00  0.00    -0.422 OA
BRANCH  27  29
ATOM     28  C   UNL     1      -4.269   0.108  -1.416  0.00  0.00    +0.136 C 
ATOM     29  C   UNL     1      -2.914   0.760  -1.308  0.00  0.00    +0.309 C 
ATOM     30  O   UNL     1      -2.195   0.824  -2.277  0.00  0.00    -0.251 OA
ENDBRANCH  27  29
ENDBRANCH  19  27
ENDBRANCH   1  22
BRANCH   5  31
ATOM     31  C   UNL     1       3.279   4.608   5.559  0.00  0.00    -0.043 A 
ATOM     32  C   UNL     1       4.135   5.657   5.839  0.00  0.00    +0.006 A 
ATOM     33  C   UNL     1       4.447   5.964   7.149  0.00  0.00    +0.023 A 
ATOM     34  C   UNL     1       3.908   5.212   8.185  0.00  0.00    +0.029 A 
ATOM     35  C   UNL     1       3.052   4.155   7.899  0.00  0.00    +0.023 A 
ATOM     36  C   UNL     1       2.740   3.857   6.587  0.00  0.00    +0.006 A 
BRANCH  34  37
ATOM     37  N   UNL     1       4.225   5.516   9.510  0.00  0.00    -0.336 N 
ATOM     38  C   UNL     1       3.759   4.647  10.594  0.00  0.00    +0.129 C 
ATOM     39  C   UNL     1       5.024   6.705   9.817  0.00  0.00    +0.129 C 
ENDBRANCH  34  37
ENDBRANCH   5  31
TORSDOF 6
