REMARK  Name = ZINC12818866
REMARK  7 active torsions:
REMARK  status: ('A' for Active; 'I' for Inactive)
REMARK    1  A    between atoms: C_4  and  C_7
REMARK    2  A    between atoms: C_15  and  C_18
REMARK    3  A    between atoms: C_18  and  O_19
REMARK    4  A    between atoms: O_19  and  C_20
REMARK    5  A    between atoms: C_20  and  C_22
REMARK    6  A    between atoms: C_26  and  S_28
REMARK    7  A    between atoms: S_28  and  N_31
REMARK                            x       y       z     vdW  Elec       q    Type
REMARK                         _______ _______ _______ _____ _____    ______ ____
ROOT
ATOM      1  C   UNL     1       8.295  -5.301   0.247  0.00  0.00    +0.340 C 
ATOM      2  O   UNL     1       8.159  -6.529  -0.478  0.00  0.00    -0.333 OA
ATOM      3  C   UNL     1       7.001  -7.279  -0.097  0.00  0.00    +0.203 C 
ATOM      4  C   UNL     1       5.799  -6.369  -0.087  0.00  0.00    +0.023 A 
ATOM      5  C   UNL     1       4.529  -6.915  -0.078  0.00  0.00    +0.047 A 
ATOM      6  C   UNL     1       3.418  -6.088  -0.065  0.00  0.00    +0.124 A 
ATOM      7  C   UNL     1       3.578  -4.713  -0.059  0.00  0.00    +0.049 A 
ATOM      8  C   UNL     1       4.846  -4.165  -0.068  0.00  0.00    +0.035 A 
ATOM      9  C   UNL     1       5.960  -4.993  -0.090  0.00  0.00    +0.136 A 
ATOM     10  O   UNL     1       7.205  -4.443  -0.100  0.00  0.00    -0.459 OA
ATOM     11  F   UNL     1       2.178  -6.624  -0.057  0.00  0.00    -0.205 F 
ENDROOT
BRANCH   1  15
ATOM     12  C   UNL     1      11.993  -3.429  -0.785  0.00  0.00    +0.000 A 
ATOM     13  C   UNL     1      11.991  -4.690  -0.220  0.00  0.00    +0.000 A 
ATOM     14  C   UNL     1      10.794  -5.296   0.114  0.00  0.00    +0.010 A 
ATOM     15  C   UNL     1       9.599  -4.641  -0.117  0.00  0.00    +0.020 A 
ATOM     16  C   UNL     1       9.601  -3.381  -0.686  0.00  0.00    +0.010 A 
ATOM     17  C   UNL     1      10.798  -2.773  -1.016  0.00  0.00    +0.000 A 
ENDBRANCH   1  15
BRANCH   8  18
ATOM     18  C   UNL     1       5.019  -2.668  -0.061  0.00  0.00    +0.271 C 
BRANCH  18  19
ATOM     19  O   UNL     1       3.716  -2.030  -0.045  0.00  0.00    -0.456 OA
BRANCH  19  20
ATOM     20  C   UNL     1       3.694  -0.683  -0.037  0.00  0.00    +0.340 C 
ATOM     21  O   UNL     1       4.736  -0.059  -0.044  0.00  0.00    -0.245 OA
BRANCH  20  22
ATOM     22  C   UNL     1       2.404   0.035  -0.021  0.00  0.00    +0.061 A 
ATOM     23  C   UNL     1       1.204  -0.680  -0.013  0.00  0.00    +0.016 A 
ATOM     24  C   UNL     1       0.002  -0.004   0.002  0.00  0.00    +0.023 A 
ATOM     25  C   UNL     1      -0.017   1.381   0.010  0.00  0.00    +0.067 A 
ATOM     26  C   UNL     1       1.170   2.096   0.002  0.00  0.00    +0.124 A 
ATOM     27  C   UNL     1       2.378   1.431  -0.013  0.00  0.00    +0.045 A 
ATOM     28 CL   UNL     1      -1.534   2.225   0.021  0.00  0.00    -0.082 Cl
BRANCH  26  29
ATOM     29  S   UNL     1       1.135   3.857   0.011  0.00  0.00    +0.057 S 
ATOM     30  O   UNL     1       0.241   4.241   1.047  0.00  0.00    -0.153 OA
ATOM     31  O   UNL     1       2.488   4.290  -0.026  0.00  0.00    -0.153 OA
BRANCH  29  32
ATOM     32  N   UNL     1       0.444   4.341  -1.414  0.00  0.00    -0.203 NA
ATOM     33  H   UNL     1       0.150   3.679  -2.059  0.00  0.00    +0.144 HD
ATOM     34  H   UNL     1       0.333   5.286  -1.603  0.00  0.00    +0.144 HD
ENDBRANCH  29  32
ENDBRANCH  26  29
ENDBRANCH  20  22
ENDBRANCH  19  20
ENDBRANCH  18  19
ENDBRANCH   8  18
TORSDOF 7
