REMARK  Name = ZINC14697634
REMARK  9 active torsions:
REMARK  status: ('A' for Active; 'I' for Inactive)
REMARK    1  A    between atoms: C_4  and  C_7
REMARK    2  A    between atoms: C_7  and  N_8
REMARK    3  A    between atoms: C_9  and  N_37
REMARK    4  A    between atoms: C_10  and  N_17
REMARK    5  A    between atoms: N_17  and  C_18
REMARK    6  A    between atoms: C_18  and  C_19
REMARK    7  A    between atoms: C_19  and  C_20
REMARK    8  A    between atoms: C_26  and  C_28
REMARK    9  A    between atoms: C_33  and  N_34
REMARK                            x       y       z     vdW  Elec       q    Type
REMARK                         _______ _______ _______ _____ _____    ______ ____
ROOT
ATOM      1  N   UNL     1      -3.171  -1.733  -1.282  0.00  0.00    -0.260 N 
ATOM      2  C   UNL     1      -4.264  -1.000  -1.571  0.00  0.00    +0.253 C 
ATOM      3  O   UNL     1      -5.324  -1.552  -1.794  0.00  0.00    -0.270 OA
ENDROOT
BRANCH   1   6
ATOM      4  N   UNL     1      -2.560  -5.213  -2.289  0.00  0.00    -0.276 N 
ATOM      5  C   UNL     1      -2.484  -3.840  -2.264  0.00  0.00    +0.128 A 
ATOM      6  C   UNL     1      -3.231  -3.141  -1.337  0.00  0.00    +0.140 A 
ATOM      7  C   UNL     1      -4.058  -3.857  -0.452  0.00  0.00    +0.277 A 
ATOM      8  O   UNL     1      -4.732  -3.265   0.374  0.00  0.00    -0.266 OA
ATOM      9  N   UNL     1      -4.100  -5.202  -0.522  0.00  0.00    -0.273 N 
ATOM     10  H   UNL     1      -4.687  -5.712   0.106  0.00  0.00    +0.173 HD
ATOM     11  C   UNL     1      -3.361  -5.867  -1.429  0.00  0.00    +0.331 A 
ATOM     12  O   UNL     1      -3.419  -7.081  -1.471  0.00  0.00    -0.246 OA
BRANCH   5  13
ATOM     13  N   UNL     1      -1.670  -3.172  -3.147  0.00  0.00    -0.343 N 
ATOM     14  H   UNL     1      -1.590  -2.207  -3.097  0.00  0.00    +0.144 HD
ATOM     15  H   UNL     1      -1.176  -3.666  -3.819  0.00  0.00    +0.144 HD
ENDBRANCH   5  13
BRANCH   4  16
ATOM     16  C   UNL     1      -1.769  -5.968  -3.264  0.00  0.00    +0.163 C 
BRANCH  16  20
ATOM     17  C   UNL     1      -4.029  -6.467  -6.854  0.00  0.00    +0.000 A 
ATOM     18  C   UNL     1      -3.212  -5.363  -6.700  0.00  0.00    +0.000 A 
ATOM     19  C   UNL     1      -2.481  -5.201  -5.538  0.00  0.00    +0.005 A 
ATOM     20  C   UNL     1      -2.567  -6.144  -4.530  0.00  0.00    -0.028 A 
ATOM     21  C   UNL     1      -3.379  -7.251  -4.687  0.00  0.00    +0.005 A 
ATOM     22  C   UNL     1      -4.114  -7.410  -5.847  0.00  0.00    +0.000 A 
ENDBRANCH  16  20
ENDBRANCH   4  16
ENDBRANCH   1   6
BRANCH   2  23
ATOM     23  C   UNL     1      -4.174   0.475  -1.617  0.00  0.00    +0.067 A 
ATOM     24  C   UNL     1      -3.278   1.095  -2.490  0.00  0.00    +0.015 A 
ATOM     25  C   UNL     1      -3.203   2.472  -2.532  0.00  0.00    +0.001 A 
ATOM     26  C   UNL     1      -4.005   3.237  -1.704  0.00  0.00    +0.002 A 
ATOM     27  C   UNL     1      -4.890   2.629  -0.832  0.00  0.00    +0.033 A 
ATOM     28  C   UNL     1      -4.979   1.253  -0.784  0.00  0.00    +0.138 A 
BRANCH  28  29
ATOM     29  N   UNL     1      -5.926   0.603   0.149  0.00  0.00    +0.057 N 
ATOM     30  O   UNL     1      -6.712   1.280   0.789  0.00  0.00    -0.126 OA
ATOM     31  O   UNL     1      -5.921  -0.608   0.278  0.00  0.00    -0.126 OA
ENDBRANCH  28  29
ENDBRANCH   2  23
BRANCH   1  32
ATOM     32  C   UNL     1      -1.919  -1.068  -0.910  0.00  0.00    +0.118 C 
BRANCH  32  33
ATOM     33  C   UNL     1      -1.935  -0.751   0.587  0.00  0.00    +0.050 C 
BRANCH  33  34
ATOM     34  C   UNL     1      -0.649  -0.066   0.969  0.00  0.00    -0.072 C 
ATOM     35  C   UNL     1      -0.635   1.228   0.998  0.00  0.00    -0.028 C 
ATOM     36  C   UNL     1       0.572   2.048   1.349  0.00  0.00    +0.027 C 
ATOM     37  C   UNL     1       1.611   1.179   2.060  0.00  0.00    +0.004 C 
ATOM     38  C   UNL     1       1.822  -0.097   1.236  0.00  0.00    +0.005 C 
ATOM     39  C   UNL     1       0.537  -0.927   1.292  0.00  0.00    +0.030 C 
ENDBRANCH  33  34
ENDBRANCH  32  33
ENDBRANCH   1  32
TORSDOF 9
