REMARK  Name = ZINC12541633
REMARK  12 active torsions:
REMARK  status: ('A' for Active; 'I' for Inactive)
REMARK    1  A    between atoms: C_1  and  N_2
REMARK    2  A    between atoms: N_2  and  C_3
REMARK    3  A    between atoms: N_2  and  S_4
REMARK    4  A    between atoms: S_4  and  C_7
REMARK    5  A    between atoms: C_11  and  N_13
REMARK    6  A    between atoms: C_14  and  C_16
REMARK    7  A    between atoms: C_16  and  O_17
REMARK    8  A    between atoms: O_17  and  C_18
REMARK    9  A    between atoms: C_18  and  C_20
REMARK   10  A    between atoms: C_20  and  C_21
REMARK   11  A    between atoms: C_21  and  C_23
REMARK   12  A    between atoms: C_21  and  N_30
REMARK                            x       y       z     vdW  Elec       q    Type
REMARK                         _______ _______ _______ _____ _____    ______ ____
ROOT
ATOM      1  O   UNL     1       0.836  -6.404  -3.672  0.00  0.00    -0.455 OA
ENDROOT
BRANCH   1   2
ATOM      2  C   UNL     1       1.429  -7.482  -4.207  0.00  0.00    +0.310 C 
ATOM      3  O   UNL     1       1.202  -7.790  -5.354  0.00  0.00    -0.251 OA
BRANCH   2   4
ATOM      4  C   UNL     1       2.377  -8.310  -3.379  0.00  0.00    +0.147 C 
BRANCH   4   5
ATOM      5  C   UNL     1       2.909  -9.471  -4.221  0.00  0.00    +0.115 C 
BRANCH   5   6
ATOM      6  C   UNL     1       3.949 -10.227  -3.434  0.00  0.00    -0.027 A 
ATOM      7  C   UNL     1       3.563 -11.219  -2.553  0.00  0.00    +0.007 A 
ATOM      8  C   UNL     1       4.516 -11.912  -1.831  0.00  0.00    +0.020 A 
ATOM      9  C   UNL     1       5.857 -11.613  -1.990  0.00  0.00    +0.041 A 
ATOM     10  C   UNL     1       6.244 -10.620  -2.873  0.00  0.00    +0.020 A 
ATOM     11  C   UNL     1       5.290  -9.931  -3.598  0.00  0.00    +0.007 A 
ATOM     12 CL   UNL     1       7.055 -12.483  -1.084  0.00  0.00    -0.084 Cl
ENDBRANCH   5   6
BRANCH   5  13
ATOM     13  N   UNL     1       1.806 -10.372  -4.563  0.00  0.00    -0.292 N 
ATOM     14  C   UNL     1       1.843 -11.076  -5.712  0.00  0.00    +0.298 C 
ATOM     15  O   UNL     1       2.830 -11.034  -6.420  0.00  0.00    -0.253 OA
ATOM     16  N   UNL     1       0.784 -11.827  -6.076  0.00  0.00    -0.313 N 
ATOM     17  H   UNL     1       1.049 -10.463  -3.963  0.00  0.00    +0.151 HD
ATOM     18  H   UNL     1      -0.004 -11.861  -5.512  0.00  0.00    +0.146 HD
ATOM     19  H   UNL     1       0.811 -12.334  -6.903  0.00  0.00    +0.146 HD
ENDBRANCH   5  13
ENDBRANCH   4   5
ENDBRANCH   2   4
ENDBRANCH   1   2
BRANCH   1  20
ATOM     20  C   UNL     1      -0.051  -5.666  -4.515  0.00  0.00    +0.328 C 
BRANCH  20  22
ATOM     21  N   UNL     1      -1.485  -3.657  -4.345  0.00  0.00    -0.281 N 
ATOM     22  C   UNL     1      -0.618  -4.499  -3.748  0.00  0.00    +0.255 C 
ATOM     23  O   UNL     1      -0.294  -4.317  -2.594  0.00  0.00    -0.272 OA
ATOM     24  H   UNL     1      -1.806  -3.847  -5.241  0.00  0.00    +0.155 HD
BRANCH  21  29
ATOM     25  C   UNL     1      -1.574  -0.819  -2.008  0.00  0.00    +0.107 A 
ATOM     26  C   UNL     1      -2.784  -0.239  -2.345  0.00  0.00    +0.030 A 
ATOM     27  C   UNL     1      -3.564  -0.791  -3.344  0.00  0.00    +0.024 A 
ATOM     28  C   UNL     1      -3.136  -1.925  -4.010  0.00  0.00    +0.062 A 
ATOM     29  C   UNL     1      -1.921  -2.509  -3.674  0.00  0.00    +0.054 A 
ATOM     30  C   UNL     1      -1.138  -1.948  -2.674  0.00  0.00    +0.053 A 
ATOM     31 CL   UNL     1      -4.117  -2.618  -5.263  0.00  0.00    -0.082 Cl
BRANCH  25  32
ATOM     32  S   UNL     1      -0.583  -0.111  -0.734  0.00  0.00    +0.060 S 
ATOM     33  O   UNL     1       0.249  -1.152  -0.241  0.00  0.00    -0.153 OA
ATOM     34  O   UNL     1      -1.465   0.622   0.105  0.00  0.00    -0.153 OA
BRANCH  32  36
ATOM     35  C   UNL     1      -0.012   2.390  -1.591  0.00  0.00    +0.131 C 
ATOM     36  N   UNL     1       0.418   0.996  -1.451  0.00  0.00    -0.183 NA
ATOM     37  C   UNL     1       1.734   0.583  -1.944  0.00  0.00    +0.131 C 
ENDBRANCH  32  36
ENDBRANCH  25  32
ENDBRANCH  21  29
ENDBRANCH  20  22
ENDBRANCH   1  20
TORSDOF 10
