REMARK  Name = ZINC63405386
REMARK  8 active torsions:
REMARK  status: ('A' for Active; 'I' for Inactive)
REMARK    1  A    between atoms: C_1  and  C_2
REMARK    2  A    between atoms: C_2  and  C_3
REMARK    3  A    between atoms: C_5  and  C_18
REMARK    4  A    between atoms: C_13  and  O_16
REMARK    5  A    between atoms: O_16  and  C_17
REMARK    6  A    between atoms: N_20  and  N_21
REMARK    7  A    between atoms: C_22  and  C_24
REMARK    8  A    between atoms: C_24  and  C_25
REMARK                            x       y       z     vdW  Elec       q    Type
REMARK                         _______ _______ _______ _____ _____    ______ ____
ROOT
ATOM      1  C   UNL     1       1.274  -2.916  -0.113  0.00  0.00    +0.259 C 
ATOM      2  O   UNL     1       1.196  -4.128  -0.204  0.00  0.00    -0.269 OA
ATOM      3  N   UNL     1       1.857  -2.357   0.966  0.00  0.00    -0.231 N 
ATOM      4  H   UNL     1       1.919  -1.392   1.038  0.00  0.00    +0.173 HD
ENDROOT
BRANCH   1   6
ATOM      5  C   UNL     1       0.768  -0.582  -1.180  0.00  0.00    +0.132 C 
ATOM      6  C   UNL     1       0.752  -2.095  -1.140  0.00  0.00    +0.053 C 
ATOM      7  H   UNL     1      -0.692  -1.553  -3.899  0.00  0.00    +0.170 HD
ATOM      8  C   UNL     1       0.145  -2.511  -2.268  0.00  0.00    +0.098 C 
ATOM      9  N   UNL     1      -0.240  -1.466  -3.046  0.00  0.00    -0.269 N 
ATOM     10  N   UNL     1       0.107  -0.242  -2.451  0.00  0.00    -0.228 N 
ATOM     11  C   UNL     1      -0.128   1.034  -2.957  0.00  0.00    +0.161 A 
ATOM     12  C   UNL     1      -0.875   1.198  -4.125  0.00  0.00    +0.052 A 
ATOM     13  C   UNL     1      -1.081   2.485  -4.588  0.00  0.00    +0.072 A 
ATOM     14  C   UNL     1      -0.530   3.538  -3.860  0.00  0.00    +0.234 A 
ATOM     15  N   UNL     1       0.165   3.289  -2.764  0.00  0.00    -0.110 NA
ATOM     16  N   UNL     1       0.352   2.095  -2.330  0.00  0.00    -0.129 NA
BRANCH   5  18
ATOM     17  C   UNL     1      -1.444  -0.555  -0.019  0.00  0.00    +0.006 C 
ATOM     18  C   UNL     1      -0.016  -0.008   0.002  0.00  0.00    +0.026 C 
ENDBRANCH   5  18
BRANCH  14  19
ATOM     19  O   UNL     1      -0.705   4.819  -4.277  0.00  0.00    -0.479 OA
ATOM     20  C   UNL     1      -0.112   5.847  -3.482  0.00  0.00    +0.279 C 
ENDBRANCH  14  19
ENDBRANCH   1   6
BRANCH   3  21
ATOM     21  N   UNL     1       2.374  -3.170   1.983  0.00  0.00    -0.234 N 
ATOM     22  C   UNL     1       2.957  -2.611   3.061  0.00  0.00    +0.233 C 
ATOM     23  O   UNL     1       3.034  -1.404   3.152  0.00  0.00    -0.274 OA
ATOM     24  H   UNL     1       2.312  -4.136   1.911  0.00  0.00    +0.173 HD
BRANCH  22  25
ATOM     25  C   UNL     1       3.513  -3.486   4.155  0.00  0.00    +0.130 C 
BRANCH  25  26
ATOM     26  C   UNL     1       4.106  -2.621   5.238  0.00  0.00    -0.033 C 
ATOM     27  C   UNL     1       3.499  -2.212   6.376  0.00  0.00    -0.001 A 
ATOM     28  C   UNL     1       2.157  -2.441   6.924  0.00  0.00    +0.010 A 
ATOM     29  C   UNL     1       1.832  -1.887   8.114  0.00  0.00    +0.001 A 
ATOM     30  C   UNL     1       2.742  -1.101   8.835  0.00  0.00    +0.002 A 
ATOM     31  C   UNL     1       3.992  -0.846   8.396  0.00  0.00    +0.026 A 
ATOM     32  C   UNL     1       4.441  -1.379   7.156  0.00  0.00    +0.043 A 
ATOM     33  N   UNL     1       5.586  -1.277   6.526  0.00  0.00    -0.380 N 
ATOM     34  C   UNL     1       5.501  -2.039   5.275  0.00  0.00    +0.145 C 
ATOM     35  H   UNL     1       6.361  -0.783   6.836  0.00  0.00    +0.160 HD
ENDBRANCH  25  26
ENDBRANCH  22  25
ENDBRANCH   3  21
TORSDOF 6
