REMARK  Name = ZINC59457254
REMARK  12 active torsions:
REMARK  status: ('A' for Active; 'I' for Inactive)
REMARK    1  A    between atoms: C_1  and  C_2
REMARK    2  A    between atoms: C_5  and  N_8
REMARK    3  A    between atoms: N_8  and  C_9
REMARK    4  A    between atoms: C_9  and  N_11
REMARK    5  A    between atoms: N_11  and  N_12
REMARK    6  A    between atoms: C_13  and  C_14
REMARK    7  A    between atoms: C_17  and  C_20
REMARK    8  A    between atoms: N_21  and  N_22
REMARK    9  A    between atoms: N_22  and  C_23
REMARK   10  A    between atoms: C_23  and  N_25
REMARK   11  A    between atoms: N_25  and  C_26
REMARK   12  A    between atoms: C_29  and  C_32
REMARK                            x       y       z     vdW  Elec       q    Type
REMARK                         _______ _______ _______ _____ _____    ______ ____
ROOT
ATOM      1  C   UNL     1      -0.402  -9.040  -1.333  0.00  0.00    -0.005 A 
ATOM      2  C   UNL     1      -0.226  -8.288  -2.499  0.00  0.00    +0.010 A 
ATOM      3  C   UNL     1       0.049  -8.915  -3.681  0.00  0.00    +0.010 A 
ATOM      4  C   UNL     1       0.155 -10.309  -3.724  0.00  0.00    -0.005 A 
ATOM      5  C   UNL     1      -0.019 -11.061  -2.558  0.00  0.00    +0.010 A 
ATOM      6  C   UNL     1      -0.290 -10.433  -1.375  0.00  0.00    +0.010 A 
ENDROOT
BRANCH   1   8
ATOM      7  N   UNL     1      -0.802  -7.069  -0.019  0.00  0.00    -0.188 NA
ATOM      8  C   UNL     1      -0.698  -8.363  -0.058  0.00  0.00    +0.138 C 
BRANCH   7   9
ATOM      9  N   UNL     1      -1.084  -6.426   1.193  0.00  0.00    -0.218 N 
ATOM     10  H   UNL     1      -1.202  -6.947   2.003  0.00  0.00    +0.176 HD
BRANCH   9  11
ATOM     11  C   UNL     1      -1.192  -5.083   1.234  0.00  0.00    +0.154 C 
ATOM     12  S   UNL     1      -1.536  -4.297   2.716  0.00  0.00    -0.017 S 
BRANCH  11  13
ATOM     13  N   UNL     1      -1.028  -4.359   0.109  0.00  0.00    -0.296 N 
ATOM     14  H   UNL     1      -0.916  -4.807  -0.744  0.00  0.00    +0.154 HD
BRANCH  13  19
ATOM     15  C   UNL     1      -0.994   1.308   0.362  0.00  0.00    +0.044 C 
ATOM     16  C   UNL     1      -1.003  -0.198   0.295  0.00  0.00    -0.050 A 
ATOM     17  C   UNL     1      -0.352  -0.936   1.266  0.00  0.00    +0.005 A 
ATOM     18  C   UNL     1      -0.358  -2.315   1.208  0.00  0.00    +0.023 A 
ATOM     19  C   UNL     1      -1.020  -2.962   0.172  0.00  0.00    +0.033 A 
ATOM     20  C   UNL     1      -1.673  -2.218  -0.803  0.00  0.00    +0.023 A 
ATOM     21  C   UNL     1      -1.667  -0.839  -0.735  0.00  0.00    +0.005 A 
ENDBRANCH  13  19
ENDBRANCH  11  13
ENDBRANCH   9  11
ENDBRANCH   7   9
ENDBRANCH   1   8
BRANCH   4  22
ATOM     22  C   UNL     1       0.451 -10.986  -4.999  0.00  0.00    +0.138 C 
ATOM     23  N   UNL     1       0.550 -12.280  -5.039  0.00  0.00    -0.188 NA
BRANCH  23  24
ATOM     24  N   UNL     1       0.831 -12.924  -6.252  0.00  0.00    -0.218 N 
ATOM     25  H   UNL     1       0.952 -12.402  -7.061  0.00  0.00    +0.176 HD
BRANCH  24  26
ATOM     26  C   UNL     1       0.934 -14.267  -6.293  0.00  0.00    +0.154 C 
ATOM     27  S   UNL     1       1.277 -15.053  -7.775  0.00  0.00    -0.017 S 
BRANCH  26  28
ATOM     28  N   UNL     1       0.766 -14.991  -5.169  0.00  0.00    -0.296 N 
ATOM     29  H   UNL     1       0.490 -14.555  -4.348  0.00  0.00    +0.154 HD
BRANCH  28  30
ATOM     30  C   UNL     1       0.990 -16.371  -5.187  0.00  0.00    +0.033 A 
ATOM     31  C   UNL     1       2.074 -16.892  -5.882  0.00  0.00    +0.023 A 
ATOM     32  C   UNL     1       2.292 -18.256  -5.897  0.00  0.00    +0.005 A 
ATOM     33  C   UNL     1       1.433 -19.102  -5.221  0.00  0.00    -0.050 A 
ATOM     34  C   UNL     1       0.353 -18.587  -4.528  0.00  0.00    +0.005 A 
ATOM     35  C   UNL     1       0.132 -17.224  -4.504  0.00  0.00    +0.023 A 
ATOM     36  C   UNL     1       1.674 -20.590  -5.240  0.00  0.00    +0.044 C 
ENDBRANCH  28  30
ENDBRANCH  26  28
ENDBRANCH  24  26
ENDBRANCH  23  24
ENDBRANCH   4  22
TORSDOF 10
