REMARK  Name = ZINC16788505
REMARK  15 active torsions:
REMARK  status: ('A' for Active; 'I' for Inactive)
REMARK    1  A    between atoms: C_1  and  C_2
REMARK    2  A    between atoms: C_5  and  N_9
REMARK    3  A    between atoms: C_6  and  C_8
REMARK    4  A    between atoms: C_10  and  C_12
REMARK    5  A    between atoms: C_12  and  C_14
REMARK    6  A    between atoms: C_12  and  S_15
REMARK    7  A    between atoms: S_15  and  C_16
REMARK    8  A    between atoms: C_19  and  C_22
REMARK    9  A    between atoms: N_20  and  N_21
REMARK   10  A    between atoms: C_22  and  O_23
REMARK   11  A    between atoms: O_23  and  C_24
REMARK   12  A    between atoms: C_27  and  C_30
REMARK   13  A    between atoms: C_30  and  C_31
REMARK   14  A    between atoms: C_30  and  C_32
REMARK   15  A    between atoms: C_30  and  C_33
REMARK                            x       y       z     vdW  Elec       q    Type
REMARK                         _______ _______ _______ _____ _____    ______ ____
ROOT
ATOM      1  C   UNL     1      -5.046  -3.290  -1.064  0.00  0.00    +0.209 A 
ATOM      2  N   UNL     1      -6.141  -2.646  -0.731  0.00  0.00    -0.121 NA
ATOM      3  N   UNL     1      -7.169  -3.376  -0.980  0.00  0.00    -0.128 NA
ATOM      4  C   UNL     1      -6.796  -4.519  -1.482  0.00  0.00    +0.189 A 
ATOM      5  N   UNL     1      -5.431  -4.503  -1.559  0.00  0.00    -0.225 N 
ENDROOT
BRANCH   5   6
ATOM      6  N   UNL     1      -4.620  -5.496  -2.031  0.00  0.00    -0.295 N 
ATOM      7  H   UNL     1      -4.354  -6.128  -1.291  0.00  0.00    +0.163 HD
ATOM      8  H   UNL     1      -5.061  -5.993  -2.790  0.00  0.00    +0.163 HD
ENDBRANCH   5   6
BRANCH   1   9
ATOM      9  S   UNL     1      -3.394  -2.698  -0.909  0.00  0.00    -0.072 S 
BRANCH   9  10
ATOM     10  C   UNL     1      -3.712  -1.062  -0.201  0.00  0.00    +0.137 C 
ATOM     11  C   UNL     1      -4.332  -1.219   1.188  0.00  0.00    +0.029 C 
BRANCH  10  13
ATOM     12  N   UNL     1      -2.428   1.041   0.019  0.00  0.00    -0.284 N 
ATOM     13  C   UNL     1      -2.415  -0.302  -0.090  0.00  0.00    +0.230 C 
ATOM     14  O   UNL     1      -1.359  -0.900  -0.098  0.00  0.00    -0.274 OA
ATOM     15  H   UNL     1      -3.271   1.512   0.106  0.00  0.00    +0.155 HD
BRANCH  12  20
ATOM     16  C   UNL     1       2.446   3.944  -0.044  0.00  0.00    +0.044 C 
ATOM     17  C   UNL     1       1.152   3.172  -0.025  0.00  0.00    -0.050 A 
ATOM     18  C   UNL     1       1.082   1.928  -0.626  0.00  0.00    +0.005 A 
ATOM     19  C   UNL     1      -0.102   1.218  -0.610  0.00  0.00    +0.024 A 
ATOM     20  C   UNL     1      -1.225   1.756   0.006  0.00  0.00    +0.036 A 
ATOM     21  C   UNL     1      -1.150   3.002   0.613  0.00  0.00    -0.029 A 
ATOM     22  C   UNL     1       0.038   3.708   0.594  0.00  0.00    +0.008 A 
ATOM     23  C   UNL     1      -2.364   3.587   1.288  0.00  0.00    +0.045 C 
ENDBRANCH  12  20
ENDBRANCH  10  13
ENDBRANCH   9  10
ENDBRANCH   1   9
BRANCH   4  24
ATOM     24  C   UNL     1      -7.701  -5.647  -1.905  0.00  0.00    +0.306 C 
BRANCH  24  25
ATOM     25  O   UNL     1      -8.058  -5.481  -3.279  0.00  0.00    -0.484 OA
BRANCH  25  26
ATOM     26  C   UNL     1      -8.877  -6.420  -3.821  0.00  0.00    +0.121 A 
ATOM     27  C   UNL     1      -9.323  -7.483  -3.048  0.00  0.00    +0.046 A 
ATOM     28  C   UNL     1     -10.160  -8.433  -3.600  0.00  0.00    +0.008 A 
ATOM     29  C   UNL     1     -10.544  -8.332  -4.925  0.00  0.00    -0.042 A 
ATOM     30  C   UNL     1     -10.097  -7.277  -5.698  0.00  0.00    +0.008 A 
ATOM     31  C   UNL     1      -9.264  -6.321  -5.149  0.00  0.00    +0.046 A 
BRANCH  29  32
ATOM     32  C   UNL     1     -11.452  -9.374  -5.526  0.00  0.00    -0.013 C 
ATOM     33  C   UNL     1     -10.744 -10.051  -6.701  0.00  0.00    +0.015 C 
ATOM     34  C   UNL     1     -11.798 -10.422  -4.466  0.00  0.00    +0.015 C 
ATOM     35  C   UNL     1     -12.737  -8.706  -6.021  0.00  0.00    +0.015 C 
ENDBRANCH  29  32
ENDBRANCH  25  26
ENDBRANCH  24  25
ENDBRANCH   4  24
TORSDOF 9
