REMARK  Name = ZINC16009800
REMARK  5 active torsions:
REMARK  status: ('A' for Active; 'I' for Inactive)
REMARK    1  A    between atoms: C_3  and  N_10
REMARK    2  A    between atoms: C_5  and  N_7
REMARK    3  A    between atoms: C_15  and  C_33
REMARK    4  A    between atoms: C_33  and  C_34
REMARK    5  A    between atoms: C_37  and  O_40
REMARK                            x       y       z     vdW  Elec       q    Type
REMARK                         _______ _______ _______ _____ _____    ______ ____
ROOT
ATOM      1  N   UNL     1       3.586   2.125  -0.021  0.00  0.00    -0.210 N 
ATOM      2  C   UNL     1       4.817   1.533  -0.042  0.00  0.00    +0.232 C 
ATOM      3  O   UNL     1       5.072   0.384  -0.330  0.00  0.00    -0.274 OA
ATOM      4  C   UNL     1       5.792   2.604   0.366  0.00  0.00    +0.108 C 
ATOM      5  C   UNL     1       7.117   2.739  -0.393  0.00  0.00    +0.072 C 
ATOM      6  N   UNL     1       7.355   4.221  -0.381  0.00  0.00    -0.295 NA
ATOM      7  C   UNL     1       6.018   4.885  -0.292  0.00  0.00    +0.136 C 
ATOM      8  C   UNL     1       5.030   3.795  -0.344  0.00  0.00    +0.123 C 
ATOM      9  C   UNL     1       3.656   3.496  -0.015  0.00  0.00    +0.233 C 
ATOM     10  O   UNL     1       2.763   4.282   0.218  0.00  0.00    -0.274 OA
ATOM     11  C   UNL     1       5.944   5.695   0.977  0.00  0.00    +0.006 A 
ATOM     12  C   UNL     1       5.998   5.362   2.312  0.00  0.00    +0.046 A 
ATOM     13  C   UNL     1       5.898   6.351   3.277  0.00  0.00    +0.124 A 
ATOM     14  C   UNL     1       5.746   7.673   2.894  0.00  0.00    +0.040 A 
ATOM     15  C   UNL     1       5.694   8.009   1.557  0.00  0.00    +0.026 A 
ATOM     16  C   UNL     1       5.794   7.019   0.582  0.00  0.00    +0.039 A 
ATOM     17  N   UNL     1       5.771   7.107  -0.813  0.00  0.00    -0.283 N 
ATOM     18  C   UNL     1       5.897   5.904  -1.400  0.00  0.00    +0.243 C 
ATOM     19  O   UNL     1       5.910   5.679  -2.592  0.00  0.00    -0.273 OA
ATOM     20  F   UNL     1       5.949   6.027   4.588  0.00  0.00    -0.205 F 
ATOM     21  H   UNL     1       7.943   4.486   0.395  0.00  0.00    +0.124 HD
ATOM     22  H   UNL     1       5.676   7.940  -1.301  0.00  0.00    +0.155 HD
ENDROOT
BRANCH   1  25
ATOM     23  C   UNL     1      -0.017   1.378   0.010  0.00  0.00    +0.004 A 
ATOM     24  C   UNL     1       1.169   2.087   0.002  0.00  0.00    +0.024 A 
ATOM     25  C   UNL     1       2.381   1.409  -0.013  0.00  0.00    +0.046 A 
ATOM     26  C   UNL     1       2.396   0.021  -0.021  0.00  0.00    +0.056 A 
ATOM     27  C   UNL     1       1.207  -0.682  -0.013  0.00  0.00    +0.128 A 
ATOM     28  C   UNL     1       0.002  -0.004   0.002  0.00  0.00    +0.033 A 
BRANCH  27  29
ATOM     29  N   UNL     1       1.223  -2.162  -0.022  0.00  0.00    +0.056 N 
ATOM     30  O   UNL     1       2.277  -2.755  -0.035  0.00  0.00    -0.126 OA
ATOM     31  O   UNL     1       0.183  -2.778  -0.015  0.00  0.00    -0.126 OA
ENDBRANCH  27  29
ENDBRANCH   1  25
BRANCH   5  32
ATOM     32  C   UNL     1       6.977   2.220  -1.826  0.00  0.00    +0.054 C 
BRANCH  32  33
ATOM     33  C   UNL     1       8.322   2.252  -2.506  0.00  0.00    -0.046 A 
ATOM     34  C   UNL     1       8.720   3.382  -3.194  0.00  0.00    +0.007 A 
ATOM     35  C   UNL     1       9.952   3.414  -3.818  0.00  0.00    +0.045 A 
ATOM     36  C   UNL     1      10.790   2.310  -3.754  0.00  0.00    +0.117 A 
ATOM     37  C   UNL     1      10.388   1.177  -3.062  0.00  0.00    +0.045 A 
ATOM     38  C   UNL     1       9.157   1.152  -2.435  0.00  0.00    +0.007 A 
BRANCH  36  39
ATOM     39  O   UNL     1      12.002   2.338  -4.367  0.00  0.00    -0.507 OA
ATOM     40  H   UNL     1      12.719   2.667  -3.808  0.00  0.00    +0.292 HD
ENDBRANCH  36  39
ENDBRANCH  32  33
ENDBRANCH   5  32
TORSDOF 5
