REMARK  Name = ZINC64055454
REMARK  6 active torsions:
REMARK  status: ('A' for Active; 'I' for Inactive)
REMARK    1  A    between atoms: C_1  and  C_2
REMARK    2  A    between atoms: C_2  and  C_4
REMARK    3  A    between atoms: C_2  and  S_10
REMARK    4  A    between atoms: S_10  and  C_11
REMARK    5  A    between atoms: C_15  and  C_24
REMARK    6  A    between atoms: N_16  and  C_17
REMARK                            x       y       z     vdW  Elec       q    Type
REMARK                         _______ _______ _______ _____ _____    ______ ____
ROOT
ATOM      1  C   UNL     1       2.569   0.110   1.062  0.00  0.00    +0.242 C 
ATOM      2  N   UNL     1       3.035  -0.202  -0.299  0.00  0.00    -0.237 N 
ATOM      3  N   UNL     1       3.303   1.024  -0.919  0.00  0.00    -0.169 NA
ATOM      4  C   UNL     1       3.060   2.026  -0.115  0.00  0.00    +0.151 C 
ATOM      5  N   UNL     1       2.605   1.580   1.133  0.00  0.00    -0.254 N 
ATOM      6  H   UNL     1       3.138  -1.084  -0.690  0.00  0.00    +0.171 HD
ENDROOT
BRANCH   4   7
ATOM      7  C   UNL     1       3.235   3.376  -0.457  0.00  0.00    +0.022 C 
ATOM      8  C   UNL     1       3.779   3.883  -1.637  0.00  0.00    +0.006 A 
ATOM      9  C   UNL     1       4.297   3.261  -2.793  0.00  0.00    +0.010 A 
ATOM     10  C   UNL     1       4.771   4.022  -3.812  0.00  0.00    +0.001 A 
ATOM     11  C   UNL     1       4.762   5.417  -3.749  0.00  0.00    +0.002 A 
ATOM     12  C   UNL     1       4.280   6.081  -2.670  0.00  0.00    +0.026 A 
ATOM     13  C   UNL     1       3.767   5.353  -1.565  0.00  0.00    +0.043 A 
ATOM     14  N   UNL     1       3.251   5.755  -0.420  0.00  0.00    -0.380 N 
ATOM     15  C   UNL     1       2.866   4.585   0.375  0.00  0.00    +0.152 C 
ATOM     16  H   UNL     1       3.139   6.679  -0.148  0.00  0.00    +0.160 HD
ENDBRANCH   4   7
BRANCH   5  17
ATOM     17  C   UNL     1       2.254   2.373   2.229  0.00  0.00    +0.038 A 
ATOM     18  C   UNL     1       3.050   2.379   3.367  0.00  0.00    +0.025 A 
ATOM     19  C   UNL     1       2.700   3.163   4.449  0.00  0.00    +0.022 A 
ATOM     20  C   UNL     1       1.558   3.942   4.399  0.00  0.00    +0.041 A 
ATOM     21  C   UNL     1       0.762   3.938   3.267  0.00  0.00    +0.022 A 
ATOM     22  C   UNL     1       1.111   3.160   2.180  0.00  0.00    +0.025 A 
ATOM     23 CL   UNL     1       1.121   4.926   5.761  0.00  0.00    -0.084 Cl
ENDBRANCH   5  17
BRANCH   1  24
ATOM     24  S   UNL     1       0.877  -0.495   1.308  0.00  0.00    -0.105 S 
BRANCH  24  26
ATOM     25  C   UNL     1      -0.188   1.589  -0.108  0.00  0.00    +0.029 C 
ATOM     26  C   UNL     1      -0.010   0.070  -0.170  0.00  0.00    +0.133 C 
BRANCH  26  27
ATOM     27  C   UNL     1      -1.363  -0.592  -0.228  0.00  0.00    +0.233 C 
ATOM     28  O   UNL     1      -1.889  -0.986   0.791  0.00  0.00    -0.274 OA
ATOM     29  N   UNL     1      -1.988  -0.746  -1.412  0.00  0.00    -0.239 N 
ATOM     30  C   UNL     1      -3.197  -1.338  -1.464  0.00  0.00    +0.303 C 
ATOM     31  O   UNL     1      -3.725  -1.733  -0.442  0.00  0.00    -0.253 OA
ATOM     32  N   UNL     1      -3.822  -1.493  -2.648  0.00  0.00    -0.313 N 
ATOM     33  H   UNL     1      -1.567  -0.431  -2.227  0.00  0.00    +0.159 HD
ATOM     34  H   UNL     1      -3.401  -1.178  -3.463  0.00  0.00    +0.146 HD
ATOM     35  H   UNL     1      -4.692  -1.919  -2.685  0.00  0.00    +0.146 HD
ENDBRANCH  26  27
ENDBRANCH  24  26
ENDBRANCH   1  24
TORSDOF 5
