REMARK  Name = ZINC63077814
REMARK  12 active torsions:
REMARK  status: ('A' for Active; 'I' for Inactive)
REMARK    1  A    between atoms: C_1  and  O_2
REMARK    2  A    between atoms: O_2  and  C_3
REMARK    3  A    between atoms: C_6  and  C_9
REMARK    4  A    between atoms: N_11  and  C_12
REMARK    5  A    between atoms: C_12  and  C_14
REMARK    6  A    between atoms: C_12  and  C_18
REMARK    7  A    between atoms: C_14  and  C_15
REMARK    8  A    between atoms: C_15  and  S_16
REMARK    9  A    between atoms: S_16  and  C_17
REMARK   10  A    between atoms: N_20  and  N_21
REMARK   11  A    between atoms: C_22  and  C_24
REMARK   12  A    between atoms: C_24  and  C_25
REMARK                            x       y       z     vdW  Elec       q    Type
REMARK                         _______ _______ _______ _____ _____    ______ ____
ROOT
ATOM      1  C   UNL     1      -6.144  -6.020   0.640  0.00  0.00    +0.249 C 
ATOM      2  O   UNL     1      -5.054  -6.392   1.021  0.00  0.00    -0.272 OA
ATOM      3  N   UNL     1      -7.211  -6.835   0.751  0.00  0.00    -0.233 N 
ATOM      4  H   UNL     1      -8.083  -6.537   0.447  0.00  0.00    +0.173 HD
ENDROOT
BRANCH   3   5
ATOM      5  N   UNL     1      -7.062  -8.112   1.307  0.00  0.00    -0.234 N 
ATOM      6  C   UNL     1      -8.130  -8.928   1.418  0.00  0.00    +0.233 C 
ATOM      7  O   UNL     1      -9.219  -8.555   1.038  0.00  0.00    -0.274 OA
ATOM      8  H   UNL     1      -6.191  -8.410   1.611  0.00  0.00    +0.173 HD
BRANCH   6   9
ATOM      9  C   UNL     1      -7.969 -10.302   2.015  0.00  0.00    +0.130 C 
BRANCH   9  10
ATOM     10  C   UNL     1      -9.302 -11.004   2.025  0.00  0.00    -0.033 C 
ATOM     11  C   UNL     1      -9.775 -11.864   1.094  0.00  0.00    -0.001 A 
ATOM     12  C   UNL     1      -9.212 -12.382  -0.159  0.00  0.00    +0.010 A 
ATOM     13  C   UNL     1      -9.940 -13.251  -0.896  0.00  0.00    +0.001 A 
ATOM     14  C   UNL     1     -11.217 -13.668  -0.495  0.00  0.00    +0.002 A 
ATOM     15  C   UNL     1     -11.802 -13.236   0.642  0.00  0.00    +0.026 A 
ATOM     16  C   UNL     1     -11.125 -12.320   1.495  0.00  0.00    +0.043 A 
ATOM     17  N   UNL     1     -11.474 -11.764   2.630  0.00  0.00    -0.380 N 
ATOM     18  C   UNL     1     -10.380 -10.895   3.080  0.00  0.00    +0.145 C 
ATOM     19  H   UNL     1     -12.312 -11.905   3.096  0.00  0.00    +0.160 HD
ENDBRANCH   9  10
ENDBRANCH   6   9
ENDBRANCH   3   5
BRANCH   1  20
ATOM     20  C   UNL     1      -6.304  -4.645   0.043  0.00  0.00    +0.161 C 
BRANCH  20  23
ATOM     21  C   UNL     1      -4.956  -2.616   0.035  0.00  0.00    +0.245 C 
ATOM     22  O   UNL     1      -5.984  -1.968   0.044  0.00  0.00    -0.270 OA
ATOM     23  N   UNL     1      -5.008  -3.963   0.034  0.00  0.00    -0.300 N 
ATOM     24  H   UNL     1      -4.187  -4.480   0.027  0.00  0.00    +0.150 HD
BRANCH  21  28
ATOM     25  C   UNL     1      -1.199  -0.637   0.010  0.00  0.00    +0.120 A 
ATOM     26  C   UNL     1      -2.373   0.106   0.019  0.00  0.00    +0.046 A 
ATOM     27  C   UNL     1      -3.594  -0.532   0.028  0.00  0.00    +0.016 A 
ATOM     28  C   UNL     1      -3.650  -1.928   0.026  0.00  0.00    +0.037 A 
ATOM     29  C   UNL     1      -2.467  -2.671   0.016  0.00  0.00    +0.016 A 
ATOM     30  C   UNL     1      -1.250  -2.026   0.003  0.00  0.00    +0.046 A 
BRANCH  25  32
ATOM     31  C   UNL     1      -0.017   1.425   0.010  0.00  0.00    +0.277 C 
ATOM     32  O   UNL     1       0.002  -0.004   0.002  0.00  0.00    -0.495 OA
ENDBRANCH  25  32
ENDBRANCH  21  28
ENDBRANCH  20  23
BRANCH  20  33
ATOM     33  C   UNL     1      -6.825  -4.770  -1.390  0.00  0.00    +0.042 C 
BRANCH  33  34
ATOM     34  C   UNL     1      -7.106  -3.375  -1.953  0.00  0.00    +0.071 C 
BRANCH  34  35
ATOM     35  S   UNL     1      -7.724  -3.523  -3.653  0.00  0.00    -0.164 S 
ATOM     36  C   UNL     1      -8.005  -1.806  -4.168  0.00  0.00    +0.084 C 
ENDBRANCH  34  35
ENDBRANCH  33  34
ENDBRANCH  20  33
ENDBRANCH   1  20
TORSDOF 10
