REMARK  Name = ZINC31744007
REMARK  10 active torsions:
REMARK  status: ('A' for Active; 'I' for Inactive)
REMARK    1  A    between atoms: C_1  and  C_2
REMARK    2  A    between atoms: C_2  and  C_28
REMARK    3  A    between atoms: N_5  and  C_9
REMARK    4  A    between atoms: C_9  and  C_10
REMARK    5  A    between atoms: N_12  and  C_13
REMARK    6  A    between atoms: C_15  and  C_24
REMARK    7  A    between atoms: N_17  and  C_18
REMARK    8  A    between atoms: C_24  and  C_25
REMARK    9  A    between atoms: C_24  and  C_26
REMARK   10  A    between atoms: C_24  and  C_27
REMARK                            x       y       z     vdW  Elec       q    Type
REMARK                         _______ _______ _______ _____ _____    ______ ____
ROOT
ATOM      1  C   UNL     1       0.699   4.620  -4.290  0.00  0.00    +0.236 C 
ATOM      2  O   UNL     1       0.347   3.481  -4.067  0.00  0.00    -0.274 OA
ATOM      3  N   UNL     1       0.803   5.056  -5.561  0.00  0.00    -0.269 N 
ATOM      4  H   UNL     1       1.122   6.089  -5.764  0.00  0.00    +0.156 HD
ENDROOT
BRANCH   3   5
ATOM      5  C   UNL     1       0.507   4.197  -6.619  0.00  0.00    +0.129 A 
ATOM      6  C   UNL     1       0.103   2.901  -6.516  0.00  0.00    +0.069 A 
ATOM      7  C   UNL     1      -0.084   2.407  -7.810  0.00  0.00    +0.071 A 
ATOM      8  N   UNL     1       0.194   3.359  -8.663  0.00  0.00    -0.169 NA
ATOM      9  N   UNL     1       0.564   4.503  -7.944  0.00  0.00    -0.218 N 
BRANCH   9  10
ATOM     10  C   UNL     1       0.931   5.740  -8.492  0.00  0.00    +0.067 A 
ATOM     11  C   UNL     1       0.587   6.918  -7.842  0.00  0.00    +0.028 A 
ATOM     12  C   UNL     1       0.954   8.135  -8.381  0.00  0.00    +0.002 A 
ATOM     13  C   UNL     1       1.654   8.182  -9.572  0.00  0.00    +0.000 A 
ATOM     14  C   UNL     1       1.994   7.011 -10.225  0.00  0.00    +0.002 A 
ATOM     15  C   UNL     1       1.634   5.791  -9.688  0.00  0.00    +0.028 A 
ENDBRANCH   9  10
BRANCH   7  16
ATOM     16  C   UNL     1      -0.530   1.011  -8.163  0.00  0.00    +0.006 C 
ATOM     17  C   UNL     1      -2.028   0.869  -7.886  0.00  0.00    +0.017 C 
ATOM     18  C   UNL     1      -0.258   0.748  -9.646  0.00  0.00    +0.017 C 
ATOM     19  C   UNL     1       0.243  -0.001  -7.316  0.00  0.00    +0.017 C 
ENDBRANCH   7  16
ENDBRANCH   3   5
BRANCH   1  20
ATOM     20  C   UNL     1       1.018   5.548  -3.146  0.00  0.00    +0.214 C 
BRANCH  20  25
ATOM     21  C   UNL     1       1.856   4.134   1.256  0.00  0.00    +0.047 C 
ATOM     22  C   UNL     1       1.150   3.594   0.010  0.00  0.00    +0.138 C 
ATOM     23  C   UNL     1       1.794   4.143  -1.248  0.00  0.00    +0.251 C 
ATOM     24  O   UNL     1       2.940   3.986  -1.612  0.00  0.00    -0.272 OA
ATOM     25  N   UNL     1       0.829   4.841  -1.877  0.00  0.00    -0.215 N 
ATOM     26  C   UNL     1      -0.324   4.810  -1.199  0.00  0.00    +0.310 C 
ATOM     27  O   UNL     1      -1.339   5.367  -1.567  0.00  0.00    -0.252 OA
ATOM     28  N   UNL     1      -0.234   4.094  -0.060  0.00  0.00    -0.281 N 
ATOM     29  H   UNL     1      -0.948   3.849   0.740  0.00  0.00    +0.152 HD
BRANCH  22  30
ATOM     30  C   UNL     1       1.171   2.087   0.002  0.00  0.00    +0.022 A 
ATOM     31  C   UNL     1      -0.017   1.380   0.010  0.00  0.00    +0.047 A 
ATOM     32  C   UNL     1       0.002  -0.004   0.002  0.00  0.00    +0.124 A 
ATOM     33  C   UNL     1       1.210  -0.680  -0.013  0.00  0.00    +0.041 A 
ATOM     34  C   UNL     1       2.397   0.027  -0.022  0.00  0.00    +0.041 A 
ATOM     35  C   UNL     1       2.379   1.412  -0.014  0.00  0.00    +0.129 A 
ATOM     36  F   UNL     1       3.539   2.103  -0.022  0.00  0.00    -0.205 F 
ATOM     37  F   UNL     1      -1.159  -0.695   0.010  0.00  0.00    -0.205 F 
ENDBRANCH  22  30
ENDBRANCH  20  25
ENDBRANCH   1  20
TORSDOF 6
