REMARK  Name = ZINC43763896
REMARK  13 active torsions:
REMARK  status: ('A' for Active; 'I' for Inactive)
REMARK    1  A    between atoms: C_1  and  C_2
REMARK    2  A    between atoms: C_2  and  C_3
REMARK    3  A    between atoms: C_2  and  C_4
REMARK    4  A    between atoms: C_2  and  C_5
REMARK    5  A    between atoms: C_5  and  C_7
REMARK    6  A    between atoms: C_5  and  N_18
REMARK    7  A    between atoms: N_9  and  C_10
REMARK    8  A    between atoms: N_9  and  C_11
REMARK    9  A    between atoms: C_11  and  C_12
REMARK   10  A    between atoms: N_18  and  C_19
REMARK   11  A    between atoms: C_19  and  N_21
REMARK   12  A    between atoms: N_21  and  C_22
REMARK   13  A    between atoms: C_28  and  N_30
REMARK                            x       y       z     vdW  Elec       q    Type
REMARK                         _______ _______ _______ _____ _____    ______ ____
ROOT
ATOM      1  C   UNL     1       0.533  -0.136  -1.082  0.00  0.00    +0.164 C 
ENDROOT
BRANCH   1   3
ATOM      2  C   UNL     1       0.337   2.321  -0.672  0.00  0.00    +0.013 C 
ATOM      3  C   UNL     1      -0.014   0.932  -0.133  0.00  0.00    -0.011 C 
ATOM      4  C   UNL     1       0.608   0.751   1.253  0.00  0.00    +0.013 C 
ATOM      5  C   UNL     1      -1.535   0.794  -0.032  0.00  0.00    +0.013 C 
ENDBRANCH   1   3
BRANCH   1   6
ATOM      6  C   UNL     1       2.011   0.080  -1.282  0.00  0.00    +0.236 C 
ATOM      7  O   UNL     1       2.805  -0.388  -0.494  0.00  0.00    -0.274 OA
ATOM      8  N   UNL     1       2.450   0.792  -2.339  0.00  0.00    -0.299 N 
ATOM      9  C   UNL     1       1.504   1.249  -3.359  0.00  0.00    +0.132 C 
BRANCH   8  10
ATOM     10  C   UNL     1       3.875   1.110  -2.466  0.00  0.00    +0.142 C 
BRANCH  10  11
ATOM     11  C   UNL     1       4.566   0.015  -3.237  0.00  0.00    -0.030 A 
ATOM     12  C   UNL     1       5.100  -1.070  -2.568  0.00  0.00    +0.005 A 
ATOM     13  C   UNL     1       5.734  -2.074  -3.276  0.00  0.00    +0.000 A 
ATOM     14  C   UNL     1       5.835  -1.993  -4.652  0.00  0.00    +0.000 A 
ATOM     15  C   UNL     1       5.301  -0.908  -5.321  0.00  0.00    +0.000 A 
ATOM     16  C   UNL     1       4.662   0.094  -4.614  0.00  0.00    +0.005 A 
ENDBRANCH  10  11
ENDBRANCH   8  10
ENDBRANCH   1   6
BRANCH   1  17
ATOM     17  N   UNL     1       0.307  -1.463  -0.504  0.00  0.00    -0.315 N 
ATOM     18  H   UNL     1       1.007  -1.893   0.012  0.00  0.00    +0.148 HD
BRANCH  17  19
ATOM     19  C   UNL     1      -0.873  -2.087  -0.690  0.00  0.00    +0.131 C 
ATOM     20  S   UNL     1      -2.108  -1.329  -1.600  0.00  0.00    -0.019 S 
BRANCH  19  21
ATOM     21  N   UNL     1      -1.080  -3.308  -0.159  0.00  0.00    -0.325 N 
ATOM     22  H   UNL     1      -0.380  -3.738   0.357  0.00  0.00    +0.148 HD
BRANCH  21  23
ATOM     23  C   UNL     1      -2.363  -3.987  -0.360  0.00  0.00    +0.058 C 
ATOM     24  C   UNL     1      -3.361  -3.517   0.700  0.00  0.00    +0.020 C 
ATOM     25  C   UNL     1      -4.700  -4.225   0.489  0.00  0.00    +0.002 C 
ATOM     26  C   UNL     1      -4.502  -5.738   0.610  0.00  0.00    -0.001 C 
ATOM     27  C   UNL     1      -3.505  -6.207  -0.451  0.00  0.00    -0.014 C 
ATOM     28  C   UNL     1      -2.165  -5.499  -0.240  0.00  0.00    -0.055 C 
BRANCH  28  29
ATOM     29  N   UNL     1      -1.207  -5.950  -1.259  0.00  0.00    +0.381 N 
ATOM     30  H   UNL     1      -0.324  -5.483  -1.120  0.00  0.00    -0.090 HD
ATOM     31  H   UNL     1      -1.077  -6.947  -1.179  0.00  0.00    -0.090 HD
ATOM     32  H   UNL     1      -1.563  -5.729  -2.176  0.00  0.00    -0.090 HD
ENDBRANCH  28  29
ENDBRANCH  21  23
ENDBRANCH  19  21
ENDBRANCH  17  19
ENDBRANCH   1  17
TORSDOF 9
