REMARK  Name = ZINC36548291
REMARK  14 active torsions:
REMARK  status: ('A' for Active; 'I' for Inactive)
REMARK    1  A    between atoms: C_1  and  C_2
REMARK    2  A    between atoms: C_2  and  C_3
REMARK    3  A    between atoms: C_3  and  C_4
REMARK    4  A    between atoms: C_4  and  N_5
REMARK    5  A    between atoms: C_6  and  C_8
REMARK    6  A    between atoms: C_8  and  C_10
REMARK    7  A    between atoms: C_8  and  N_19
REMARK    8  A    between atoms: C_13  and  N_16
REMARK    9  A    between atoms: N_16  and  C_17
REMARK   10  A    between atoms: N_16  and  C_18
REMARK   11  A    between atoms: N_19  and  C_20
REMARK   12  A    between atoms: C_27  and  C_29
REMARK   13  A    between atoms: C_29  and  N_30
REMARK   14  A    between atoms: C_31  and  C_33
REMARK                            x       y       z     vdW  Elec       q    Type
REMARK                         _______ _______ _______ _____ _____    ______ ____
ROOT
ATOM      1  N   UNL     1       2.433  -5.763  -3.908  0.00  0.00    -0.253 N 
ATOM      2  C   UNL     1       2.906  -6.355  -5.023  0.00  0.00    +0.238 C 
ATOM      3  O   UNL     1       3.488  -5.696  -5.859  0.00  0.00    -0.274 OA
ENDROOT
BRANCH   1   4
ATOM      4  C   UNL     1       1.762  -6.524  -2.943  0.00  0.00    +0.056 A 
ATOM      5  C   UNL     1       0.457  -6.938  -3.168  0.00  0.00    +0.025 A 
ATOM      6  C   UNL     1      -0.203  -7.688  -2.215  0.00  0.00    +0.002 A 
ATOM      7  C   UNL     1       0.436  -8.027  -1.035  0.00  0.00    +0.002 A 
ATOM      8  C   UNL     1       1.736  -7.615  -0.807  0.00  0.00    +0.022 A 
ATOM      9  C   UNL     1       2.404  -6.870  -1.760  0.00  0.00    +0.062 A 
ATOM     10 CL   UNL     1       4.039  -6.360  -1.476  0.00  0.00    -0.082 Cl
ENDBRANCH   1   4
BRANCH   1  11
ATOM     11  C   UNL     1       2.622  -4.324  -3.706  0.00  0.00    +0.197 C 
BRANCH  11  12
ATOM     12  C   UNL     1       1.819  -3.564  -4.730  0.00  0.00    -0.018 A 
ATOM     13  C   UNL     1       0.502  -3.910  -4.969  0.00  0.00    +0.008 A 
ATOM     14  C   UNL     1      -0.237  -3.216  -5.907  0.00  0.00    +0.023 A 
ATOM     15  C   UNL     1       0.344  -2.168  -6.610  0.00  0.00    +0.029 A 
ATOM     16  C   UNL     1       1.668  -1.823  -6.367  0.00  0.00    +0.023 A 
ATOM     17  C   UNL     1       2.399  -2.518  -5.424  0.00  0.00    +0.008 A 
BRANCH  15  18
ATOM     18  N   UNL     1      -0.400  -1.464  -7.559  0.00  0.00    -0.336 N 
ATOM     19  C   UNL     1      -1.795  -1.829  -7.814  0.00  0.00    +0.129 C 
ATOM     20  C   UNL     1       0.215  -0.359  -8.299  0.00  0.00    +0.129 C 
ENDBRANCH  15  18
ENDBRANCH  11  12
BRANCH  11  22
ATOM     21  N   UNL     1       2.829  -3.012  -1.619  0.00  0.00    -0.313 N 
ATOM     22  C   UNL     1       2.159  -3.946  -2.323  0.00  0.00    +0.238 C 
ATOM     23  O   UNL     1       1.183  -4.483  -1.842  0.00  0.00    -0.273 OA
ATOM     24  H   UNL     1       3.609  -2.583  -2.004  0.00  0.00    +0.149 HD
BRANCH  21  25
ATOM     25  C   UNL     1       2.379  -2.645  -0.275  0.00  0.00    +0.104 C 
BRANCH  25  26
ATOM     26  C   UNL     1       3.306  -1.571   0.298  0.00  0.00    +0.018 C 
BRANCH  26  28
ATOM     27  C   UNL     1       3.763  -0.114   2.275  0.00  0.00    +0.004 C 
ATOM     28  C   UNL     1       2.836  -1.188   1.703  0.00  0.00    -0.002 C 
ENDBRANCH  26  28
ENDBRANCH  25  26
ENDBRANCH  21  25
ENDBRANCH  11  22
ENDBRANCH   1  11
BRANCH   2  29
ATOM     29  C   UNL     1       2.713  -7.835  -5.231  0.00  0.00    +0.201 C 
BRANCH  29  30
ATOM     30  N   UNL     1       3.312  -8.231  -6.507  0.00  0.00    -0.303 N 
ATOM     31  C   UNL     1       3.260  -9.518  -6.906  0.00  0.00    +0.244 C 
ATOM     32  O   UNL     1       2.715 -10.349  -6.206  0.00  0.00    -0.270 OA
ATOM     33  H   UNL     1       3.746  -7.568  -7.066  0.00  0.00    +0.150 HD
BRANCH  31  34
ATOM     34  C   UNL     1       3.864  -9.918  -8.194  0.00  0.00    +0.037 A 
ATOM     35  C   UNL     1       4.495  -8.967  -8.998  0.00  0.00    +0.013 A 
ATOM     36  C   UNL     1       5.058  -9.347 -10.198  0.00  0.00    +0.001 A 
ATOM     37  C   UNL     1       4.997 -10.667 -10.607  0.00  0.00    +0.000 A 
ATOM     38  C   UNL     1       4.373 -11.615  -9.816  0.00  0.00    +0.001 A 
ATOM     39  C   UNL     1       3.812 -11.249  -8.610  0.00  0.00    +0.013 A 
ENDBRANCH  31  34
ENDBRANCH  29  30
ENDBRANCH   2  29
TORSDOF 11
