REMARK  Name = ZINC67464136
REMARK  5 active torsions:
REMARK  status: ('A' for Active; 'I' for Inactive)
REMARK    1  A    between atoms: C_8  and  C_10
REMARK    2  A    between atoms: N_12  and  N_13
REMARK    3  A    between atoms: N_13  and  C_14
REMARK    4  A    between atoms: C_14  and  N_16
REMARK    5  A    between atoms: N_16  and  C_17
REMARK                            x       y       z     vdW  Elec       q    Type
REMARK                         _______ _______ _______ _____ _____    ______ ____
ROOT
ATOM      1  C   UNL     1       3.454  -3.457  -0.049  0.00  0.00    +0.299 C 
ATOM      2  O   UNL     1       4.669  -3.504  -0.060  0.00  0.00    -0.265 OA
ATOM      3  N   UNL     1       2.736  -4.597  -0.048  0.00  0.00    -0.228 N 
ATOM      4  H   UNL     1       1.767  -4.560  -0.039  0.00  0.00    +0.173 HD
ENDROOT
BRANCH   1  12
ATOM      5  C   UNL     1      -0.016   1.308   0.009  0.00  0.00    +0.131 A 
ATOM      6  C   UNL     1       1.185   2.033   0.002  0.00  0.00    +0.054 A 
ATOM      7  C   UNL     1       2.365   1.362  -0.013  0.00  0.00    +0.133 A 
ATOM      8  N   UNL     1       2.350   0.001  -0.020  0.00  0.00    -0.202 N 
ATOM      9  C   UNL     1       1.161  -0.676  -0.013  0.00  0.00    +0.253 A 
ATOM     10  N   UNL     1       0.002  -0.004   0.002  0.00  0.00    -0.218 NA
ATOM     11  N   UNL     1       1.441  -1.972  -0.022  0.00  0.00    -0.185 NA
ATOM     12  C   UNL     1       2.764  -2.147  -0.036  0.00  0.00    +0.240 A 
ATOM     13  N   UNL     1       3.361  -0.969  -0.035  0.00  0.00    -0.139 NA
ATOM     14 BR   UNL     1       1.160   3.924   0.011  0.00  0.00    -0.047 Br
ENDBRANCH   1  12
BRANCH   3  15
ATOM     15  N   UNL     1       3.389  -5.837  -0.060  0.00  0.00    -0.246 N 
ATOM     16  H   UNL     1       4.358  -5.874  -0.070  0.00  0.00    +0.172 HD
BRANCH  15  17
ATOM     17  C   UNL     1       2.670  -6.977  -0.060  0.00  0.00    +0.147 C 
ATOM     18  S   UNL     1       3.468  -8.492  -0.075  0.00  0.00    -0.017 S 
BRANCH  17  19
ATOM     19  N   UNL     1       1.324  -6.925  -0.047  0.00  0.00    -0.323 N 
ATOM     20  H   UNL     1       0.872  -6.067  -0.039  0.00  0.00    +0.148 HD
BRANCH  19  21
ATOM     21  C   UNL     1       0.543  -8.164  -0.046  0.00  0.00    +0.072 C 
ATOM     22  C   UNL     1       0.364  -8.655  -1.484  0.00  0.00    +0.022 C 
ATOM     23  C   UNL     1      -0.452  -9.950  -1.484  0.00  0.00    +0.002 C 
ATOM     24  C   UNL     1      -1.824  -9.687  -0.860  0.00  0.00    +0.000 C 
ATOM     25  C   UNL     1      -1.645  -9.196   0.578  0.00  0.00    +0.002 C 
ATOM     26  C   UNL     1      -0.830  -7.902   0.577  0.00  0.00    +0.022 C 
ENDBRANCH  19  21
ENDBRANCH  17  19
ENDBRANCH  15  17
ENDBRANCH   3  15
TORSDOF 5
