REMARK  Name = ZINC44806578
REMARK  6 active torsions:
REMARK  status: ('A' for Active; 'I' for Inactive)
REMARK    1  A    between atoms: C_1  and  C_2
REMARK    2  A    between atoms: C_8  and  C_10
REMARK    3  A    between atoms: C_10  and  C_12
REMARK    4  A    between atoms: C_10  and  N_18
REMARK    5  A    between atoms: N_18  and  C_19
REMARK    6  A    between atoms: C_23  and  C_25
REMARK                            x       y       z     vdW  Elec       q    Type
REMARK                         _______ _______ _______ _____ _____    ______ ____
ROOT
ATOM      1  C   UNL     1      -3.646  -4.389  -0.006  0.00  0.00    +0.188 C 
ENDROOT
BRANCH   1   9
ATOM      2  C   UNL     1      -0.018   1.503   0.010  0.00  0.00    +0.089 C 
ATOM      3  C   UNL     1       0.002  -0.004   0.002  0.00  0.00    +0.136 A 
ATOM      4  C   UNL     1      -1.076  -0.808   0.003  0.00  0.00    +0.091 A 
ATOM      5  C   UNL     1      -0.625  -2.147  -0.007  0.00  0.00    +0.168 A 
ATOM      6  N   UNL     1       0.683  -2.130  -0.013  0.00  0.00    -0.063 NA
ATOM      7  O   UNL     1       1.100  -0.776  -0.013  0.00  0.00    -0.358 OA
ATOM      8  N   UNL     1      -1.432  -3.285  -0.010  0.00  0.00    -0.266 N 
ATOM      9  C   UNL     1      -2.774  -3.159  -0.003  0.00  0.00    +0.243 C 
ATOM     10  O   UNL     1      -3.280  -2.057   0.006  0.00  0.00    -0.273 OA
ATOM     11  H   UNL     1      -1.027  -4.166  -0.017  0.00  0.00    +0.156 HD
ENDBRANCH   1   9
BRANCH   1  12
ATOM     12  C   UNL     1      -3.351  -5.217   1.219  0.00  0.00    -0.018 A 
ATOM     13  C   UNL     1      -3.908  -4.873   2.436  0.00  0.00    +0.006 A 
ATOM     14  C   UNL     1      -3.638  -5.632   3.559  0.00  0.00    +0.000 A 
ATOM     15  C   UNL     1      -2.810  -6.735   3.465  0.00  0.00    +0.000 A 
ATOM     16  C   UNL     1      -2.253  -7.080   2.247  0.00  0.00    +0.000 A 
ATOM     17  C   UNL     1      -2.527  -6.323   1.123  0.00  0.00    +0.006 A 
ENDBRANCH   1  12
BRANCH   1  18
ATOM     18  N   UNL     1      -5.055  -3.989   0.003  0.00  0.00    -0.329 N 
ATOM     19  H   UNL     1      -5.311  -3.126   0.365  0.00  0.00    +0.147 HD
BRANCH  18  20
ATOM     20  C   UNL     1      -6.029  -4.850  -0.508  0.00  0.00    +0.029 A 
ATOM     21  C   UNL     1      -5.662  -6.089  -1.021  0.00  0.00    +0.024 A 
ATOM     22  C   UNL     1      -6.620  -6.944  -1.529  0.00  0.00    +0.022 A 
ATOM     23  C   UNL     1      -7.952  -6.574  -1.530  0.00  0.00    +0.053 A 
ATOM     24  C   UNL     1      -8.331  -5.332  -1.017  0.00  0.00    +0.056 A 
ATOM     25  C   UNL     1      -7.362  -4.471  -0.500  0.00  0.00    +0.037 A 
ATOM     26 CL   UNL     1      -9.152  -7.653  -2.170  0.00  0.00    -0.083 Cl
BRANCH  24  27
ATOM     27  C   UNL     1      -9.754  -4.933  -1.017  0.00  0.00    +0.243 C 
ATOM     28  O   UNL     1     -10.597  -5.686  -1.464  0.00  0.00    -0.270 OA
ATOM     29  N   UNL     1     -10.117  -3.733  -0.521  0.00  0.00    -0.325 N 
ATOM     30  H   UNL     1      -9.445  -3.132  -0.165  0.00  0.00    +0.145 HD
ATOM     31  H   UNL     1     -11.051  -3.471  -0.521  0.00  0.00    +0.145 HD
ENDBRANCH  24  27
ENDBRANCH  18  20
ENDBRANCH   1  18
TORSDOF 5
