REMARK  Name = ZINC39637232
REMARK  6 active torsions:
REMARK  status: ('A' for Active; 'I' for Inactive)
REMARK    1  A    between atoms: C_1  and  C_2
REMARK    2  A    between atoms: C_7  and  N_12
REMARK    3  A    between atoms: C_9  and  C_11
REMARK    4  A    between atoms: C_13  and  C_15
REMARK    5  A    between atoms: C_26  and  C_28
REMARK    6  A    between atoms: C_31  and  C_35
REMARK                            x       y       z     vdW  Elec       q    Type
REMARK                         _______ _______ _______ _____ _____    ______ ____
ROOT
ATOM      1  C   UNL     1       2.094  -4.484   3.540  0.00  0.00    +0.100 C 
ATOM      2  C   UNL     1       3.636  -4.573   3.539  0.00  0.00    +0.121 C 
ATOM      3  N   UNL     1       3.943  -5.776   4.347  0.00  0.00    -0.296 N 
ATOM      4  C   UNL     1       2.902  -6.757   3.957  0.00  0.00    +0.115 C 
ATOM      5  C   UNL     1       1.616  -5.920   3.814  0.00  0.00    -0.004 C 
ATOM      6  C   UNL     1       0.781  -6.431   2.644  0.00  0.00    -0.010 C 
ATOM      7  C   UNL     1       0.268  -7.838   2.964  0.00  0.00    -0.082 C 
ATOM      8  N   UNL     1      -0.541  -7.798   4.189  0.00  0.00    +0.379 N 
ATOM      9  C   UNL     1       0.293  -7.395   5.327  0.00  0.00    -0.082 C 
ATOM     10  C   UNL     1       0.807  -5.970   5.106  0.00  0.00    -0.010 C 
ATOM     11  C   UNL     1       4.942  -5.941   5.237  0.00  0.00    +0.247 C 
ATOM     12  O   UNL     1       5.654  -5.002   5.532  0.00  0.00    -0.270 OA
ATOM     13  H   UNL     1      -1.292  -7.136   4.072  0.00  0.00    -0.086 HD
ATOM     14  H   UNL     1      -0.927  -8.714   4.364  0.00  0.00    -0.086 HD
ENDROOT
BRANCH  11  15
ATOM     15  C   UNL     1       5.172  -7.266   5.853  0.00  0.00    +0.040 A 
ATOM     16  C   UNL     1       4.697  -8.421   5.229  0.00  0.00    +0.014 A 
ATOM     17  C   UNL     1       4.914  -9.654   5.807  0.00  0.00    +0.016 A 
ATOM     18  C   UNL     1       5.601  -9.749   7.004  0.00  0.00    +0.090 A 
ATOM     19  C   UNL     1       6.076  -8.608   7.630  0.00  0.00    +0.136 A 
ATOM     20  C   UNL     1       5.869  -7.367   7.057  0.00  0.00    +0.052 A 
ATOM     21  F   UNL     1       6.745  -8.708   8.799  0.00  0.00    -0.205 F 
BRANCH  18  22
ATOM     22  C   UNL     1       5.835 -11.100   7.630  0.00  0.00    +0.420 C 
ATOM     23  F   UNL     1       5.269 -12.092   6.822  0.00  0.00    -0.166 F 
ATOM     24  F   UNL     1       7.210 -11.326   7.751  0.00  0.00    -0.166 F 
ATOM     25  F   UNL     1       5.243 -11.136   8.897  0.00  0.00    -0.166 F 
ENDBRANCH  18  22
ENDBRANCH  11  15
BRANCH   1  27
ATOM     26  N   UNL     1       0.441  -3.318   2.116  0.00  0.00    -0.312 N 
ATOM     27  C   UNL     1       1.594  -4.011   2.199  0.00  0.00    +0.218 C 
ATOM     28  O   UNL     1       2.230  -4.254   1.195  0.00  0.00    -0.275 OA
ATOM     29  H   UNL     1      -0.067  -3.124   2.919  0.00  0.00    +0.149 HD
BRANCH  26  35
ATOM     30  C   UNL     1      -3.589  -2.023  -0.438  0.00  0.00    +0.008 C 
ATOM     31  C   UNL     1      -2.070  -2.201  -0.494  0.00  0.00    -0.009 C 
ATOM     32  C   UNL     1      -1.412  -0.864  -0.841  0.00  0.00    +0.003 C 
ATOM     33  C   UNL     1       0.106  -1.042  -0.896  0.00  0.00    +0.002 C 
ATOM     34  C   UNL     1       0.614  -1.522   0.465  0.00  0.00    +0.022 C 
ATOM     35  C   UNL     1      -0.044  -2.859   0.812  0.00  0.00    +0.076 C 
ATOM     36  C   UNL     1      -1.563  -2.680   0.868  0.00  0.00    +0.009 C 
ATOM     37  C   UNL     1      -2.221  -4.018   1.215  0.00  0.00    +0.009 C 
ENDBRANCH  26  35
ENDBRANCH   1  27
TORSDOF 4
