REMARK  Name = ZINC03932409
REMARK  10 active torsions:
REMARK  status: ('A' for Active; 'I' for Inactive)
REMARK    1  A    between atoms: C_3  and  S_7
REMARK    2  A    between atoms: S_7  and  N_10
REMARK    3  A    between atoms: N_10  and  C_11
REMARK    4  A    between atoms: C_11  and  C_13
REMARK    5  A    between atoms: C_11  and  C_32
REMARK    6  A    between atoms: C_13  and  N_14
REMARK    7  A    between atoms: C_15  and  C_17
REMARK    8  A    between atoms: C_21  and  C_25
REMARK    9  A    between atoms: C_25  and  C_26
REMARK   10  A    between atoms: C_26  and  C_27
REMARK                            x       y       z     vdW  Elec       q    Type
REMARK                         _______ _______ _______ _____ _____    ______ ____
ROOT
ATOM      1  N   UNL     1       2.704  -5.035  -2.727  0.00  0.00    -0.309 N 
ATOM      2  C   UNL     1       2.904  -6.188  -3.395  0.00  0.00    +0.251 C 
ATOM      3  O   UNL     1       2.959  -6.185  -4.611  0.00  0.00    -0.270 OA
ATOM      4  H   UNL     1       2.660  -5.038  -1.758  0.00  0.00    +0.149 HD
ENDROOT
BRANCH   2   5
ATOM      5  C   UNL     1       3.055  -7.445  -2.659  0.00  0.00    +0.075 A 
ATOM      6  C   UNL     1       3.261  -8.698  -3.147  0.00  0.00    +0.029 A 
ATOM      7  C   UNL     1       3.383  -9.806  -2.270  0.00  0.00    -0.003 A 
ATOM      8  C   UNL     1       3.604 -11.250  -2.470  0.00  0.00    +0.020 A 
ATOM      9  C   UNL     1       3.676 -12.069  -1.418  0.00  0.00    -0.009 A 
ATOM     10  S   UNL     1       3.452 -10.973  -0.029  0.00  0.00    -0.086 S 
ATOM     11  C   UNL     1       3.270  -9.461  -0.911  0.00  0.00    +0.057 A 
ATOM     12  S   UNL     1       3.022  -7.717  -0.895  0.00  0.00    -0.076 S 
BRANCH   9  13
ATOM     13  C   UNL     1       3.894 -13.560  -1.407  0.00  0.00    +0.043 C 
BRANCH  13  14
ATOM     14  C   UNL     1       5.394 -13.856  -1.338  0.00  0.00    +0.008 C 
BRANCH  14  15
ATOM     15  C   UNL     1       5.614 -15.370  -1.327  0.00  0.00    -0.014 C 
ATOM     16  C   UNL     1       5.033 -15.963  -0.041  0.00  0.00    -0.016 C 
ATOM     17  C   UNL     1       5.311 -17.467  -0.007  0.00  0.00    -0.082 C 
ATOM     18  C   UNL     1       7.333 -17.182  -1.311  0.00  0.00    -0.082 C 
ATOM     19  C   UNL     1       7.115 -15.669  -1.384  0.00  0.00    -0.016 C 
ATOM     20  N   UNL     1       6.766 -17.706  -0.054  0.00  0.00    +0.379 N 
ATOM     21  H   UNL     1       6.945 -18.715   0.003  0.00  0.00    -0.086 HD
ATOM     22  H   UNL     1       7.212 -17.233   0.741  0.00  0.00    -0.086 HD
ENDBRANCH  14  15
ENDBRANCH  13  14
ENDBRANCH   9  13
ENDBRANCH   2   5
BRANCH   1  23
ATOM     23  C   UNL     1       2.554  -3.778  -3.463  0.00  0.00    +0.136 C 
BRANCH  23  24
ATOM     24  C   UNL     1       2.340  -2.630  -2.474  0.00  0.00    +0.206 C 
BRANCH  24  25
ATOM     25  C   UNL     1       2.063  -1.358  -3.234  0.00  0.00    +0.376 C 
ATOM     26  O   UNL     1       1.021  -0.769  -3.067  0.00  0.00    -0.244 OA
ATOM     27  O   UNL     1       2.974  -0.878  -4.095  0.00  0.00    -0.244 OA
ENDBRANCH  24  25
BRANCH  24  28
ATOM     28  N   UNL     1       1.201  -2.938  -1.607  0.00  0.00    -0.174 NA
ATOM     29  H   UNL     1       0.440  -3.425  -1.960  0.00  0.00    +0.149 HD
BRANCH  28  30
ATOM     30  S   UNL     1       1.213  -2.457  -0.022  0.00  0.00    +0.061 S 
ATOM     31  O   UNL     1       2.466  -2.856   0.514  0.00  0.00    -0.153 OA
ATOM     32  O   UNL     1      -0.024  -2.875   0.539  0.00  0.00    -0.153 OA
BRANCH  30  35
ATOM     33  C   UNL     1       2.330   1.402  -0.013  0.00  0.00    +0.022 A 
ATOM     34  C   UNL     1       2.389   0.016  -0.021  0.00  0.00    +0.031 A 
ATOM     35  C   UNL     1       1.199  -0.695  -0.013  0.00  0.00    +0.123 A 
ATOM     36  C   UNL     1       0.002  -0.004   0.002  0.00  0.00    +0.139 A 
ATOM     37  N   UNL     1      -0.016   1.314   0.009  0.00  0.00    -0.261 NA
ATOM     38  C   UNL     1       1.096   2.023   0.003  0.00  0.00    +0.111 A 
ENDBRANCH  30  35
ENDBRANCH  28  30
ENDBRANCH  24  28
ENDBRANCH  23  24
ENDBRANCH   1  23
TORSDOF 10
