REMARK  Name = ZINC64613139
REMARK  5 active torsions:
REMARK  status: ('A' for Active; 'I' for Inactive)
REMARK    1  A    between atoms: C_4  and  N_7
REMARK    2  A    between atoms: N_7  and  S_8
REMARK    3  A    between atoms: S_8  and  C_11
REMARK    4  A    between atoms: C_14  and  C_16
REMARK    5  A    between atoms: C_20  and  C_23
REMARK                            x       y       z     vdW  Elec       q    Type
REMARK                         _______ _______ _______ _____ _____    ______ ____
ROOT
ATOM      1  C   UNL     1       5.335  -2.801  -0.065  0.00  0.00    +0.111 C 
ATOM      2  C   UNL     1       6.024  -3.279  -1.095  0.00  0.00    +0.135 C 
ATOM      3  N   UNL     1       7.307  -3.563  -0.768  0.00  0.00    -0.258 NA
ATOM      4  C   UNL     1       7.590  -3.312   0.466  0.00  0.00    +0.069 C 
ATOM      5  C   UNL     1       6.319  -2.767   1.090  0.00  0.00    +0.113 C 
ENDROOT
BRANCH   4   6
ATOM      6  C   UNL     1       8.918  -3.513   1.148  0.00  0.00    +0.248 C 
ATOM      7  N   UNL     1       9.689  -4.568   0.451  0.00  0.00    -0.222 NA
ATOM      8  N   UNL     1      10.353  -5.295   1.546  0.00  0.00    -0.223 NA
ATOM      9  C   UNL     1       9.324  -5.261   2.619  0.00  0.00    +0.233 C 
ATOM     10  O   UNL     1       8.713  -3.960   2.497  0.00  0.00    -0.332 OA
ATOM     11  H   UNL     1      10.367  -4.165  -0.178  0.00  0.00    +0.144 HD
ATOM     12  H   UNL     1      11.195  -4.821   1.837  0.00  0.00    +0.144 HD
BRANCH   9  13
ATOM     13  C   UNL     1       9.970  -5.414   3.971  0.00  0.00    -0.003 A 
ATOM     14  C   UNL     1      11.255  -4.948   4.179  0.00  0.00    +0.010 A 
ATOM     15  C   UNL     1      11.849  -5.087   5.420  0.00  0.00    +0.039 A 
ATOM     16  C   UNL     1      11.156  -5.692   6.454  0.00  0.00    +0.123 A 
ATOM     17  C   UNL     1       9.869  -6.159   6.245  0.00  0.00    +0.039 A 
ATOM     18  C   UNL     1       9.276  -6.014   5.005  0.00  0.00    +0.010 A 
ATOM     19  F   UNL     1      11.735  -5.829   7.667  0.00  0.00    -0.205 F 
ENDBRANCH   9  13
ENDBRANCH   4   6
BRANCH   1  20
ATOM     20  S   UNL     1       3.644  -2.305  -0.045  0.00  0.00    +0.090 S 
ATOM     21  O   UNL     1       3.112  -2.726   1.203  0.00  0.00    -0.149 OA
ATOM     22  O   UNL     1       3.087  -2.713  -1.288  0.00  0.00    -0.149 OA
BRANCH  20  23
ATOM     23  N   UNL     1       3.620  -0.649  -0.036  0.00  0.00    -0.098 NA
BRANCH  23  27
ATOM     24  C   UNL     1      -0.017   1.379   0.010  0.00  0.00    +0.000 A 
ATOM     25  C   UNL     1       1.169   2.089   0.002  0.00  0.00    +0.002 A 
ATOM     26  C   UNL     1       2.377   1.420  -0.013  0.00  0.00    +0.027 A 
ATOM     27  C   UNL     1       2.400   0.031  -0.021  0.00  0.00    +0.074 A 
ATOM     28  C   UNL     1       1.206  -0.680  -0.013  0.00  0.00    +0.027 A 
ATOM     29  C   UNL     1       0.002  -0.004   0.002  0.00  0.00    +0.002 A 
ENDBRANCH  23  27
ENDBRANCH  20  23
ENDBRANCH   1  20
TORSDOF 5
