REMARK  Name = ZINC39691267
REMARK  11 active torsions:
REMARK  status: ('A' for Active; 'I' for Inactive)
REMARK    1  A    between atoms: C_1  and  C_2
REMARK    2  A    between atoms: C_7  and  C_8
REMARK    3  A    between atoms: C_8  and  C_9
REMARK    4  A    between atoms: C_9  and  N_10
REMARK    5  A    between atoms: C_11  and  C_13
REMARK    6  A    between atoms: C_24  and  C_26
REMARK    7  A    between atoms: C_26  and  C_28
REMARK    8  A    between atoms: C_26  and  O_31
REMARK    9  A    between atoms: C_28  and  C_29
REMARK   10  A    between atoms: C_28  and  C_30
REMARK   11  A    between atoms: O_31  and  C_32
REMARK                            x       y       z     vdW  Elec       q    Type
REMARK                         _______ _______ _______ _____ _____    ______ ____
ROOT
ATOM      1  C   UNL     1      -1.392   2.379   6.440  0.00  0.00    +0.100 C 
ATOM      2  C   UNL     1      -0.879   3.780   6.038  0.00  0.00    +0.121 C 
ATOM      3  N   UNL     1      -2.107   4.589   5.851  0.00  0.00    -0.297 N 
ATOM      4  C   UNL     1      -3.008   4.149   6.942  0.00  0.00    +0.115 C 
ATOM      5  C   UNL     1      -2.788   2.626   7.037  0.00  0.00    -0.004 C 
ATOM      6  C   UNL     1      -2.827   2.176   8.494  0.00  0.00    -0.010 C 
ATOM      7  C   UNL     1      -4.241   2.376   9.048  0.00  0.00    -0.082 C 
ATOM      8  N   UNL     1      -5.196   1.599   8.249  0.00  0.00    +0.379 N 
ATOM      9  C   UNL     1      -5.220   2.101   6.870  0.00  0.00    -0.082 C 
ATOM     10  C   UNL     1      -3.848   1.889   6.224  0.00  0.00    -0.010 C 
ATOM     11  C   UNL     1      -2.349   5.515   4.902  0.00  0.00    +0.257 C 
ATOM     12  O   UNL     1      -3.377   6.158   4.931  0.00  0.00    -0.272 OA
ATOM     13  H   UNL     1      -4.921   0.629   8.248  0.00  0.00    -0.086 HD
ATOM     14  H   UNL     1      -6.117   1.685   8.652  0.00  0.00    -0.086 HD
ENDROOT
BRANCH   1  16
ATOM     15  N   UNL     1      -1.075   0.207   5.299  0.00  0.00    -0.315 N 
ATOM     16  C   UNL     1      -1.489   1.488   5.229  0.00  0.00    +0.218 C 
ATOM     17  O   UNL     1      -1.939   1.924   4.190  0.00  0.00    -0.275 OA
ATOM     18  H   UNL     1      -0.716  -0.141   6.130  0.00  0.00    +0.149 HD
BRANCH  15  19
ATOM     19  C   UNL     1      -1.170  -0.659   4.122  0.00  0.00    +0.109 C 
BRANCH  19  20
ATOM     20  C   UNL     1      -0.638  -2.051   4.468  0.00  0.00    +0.054 C 
BRANCH  20  27
ATOM     21  C   UNL     1       1.472  -2.040   2.495  0.00  0.00    +0.044 C 
ATOM     22  C   UNL     1       0.274  -2.937   2.313  0.00  0.00    -0.047 A 
ATOM     23  C   UNL     1       0.188  -3.758   1.204  0.00  0.00    +0.003 A 
ATOM     24  C   UNL     1      -0.910  -4.581   1.037  0.00  0.00    +0.000 A 
ATOM     25  C   UNL     1      -1.922  -4.582   1.979  0.00  0.00    +0.000 A 
ATOM     26  C   UNL     1      -1.835  -3.761   3.088  0.00  0.00    +0.004 A 
ATOM     27  C   UNL     1      -0.735  -2.942   3.257  0.00  0.00    -0.043 A 
ENDBRANCH  20  27
ENDBRANCH  19  20
ENDBRANCH  15  19
ENDBRANCH   1  16
BRANCH  11  28
ATOM     28  C   UNL     1      -1.343   5.752   3.806  0.00  0.00    +0.261 C 
BRANCH  28  29
ATOM     29  C   UNL     1      -1.961   5.380   2.457  0.00  0.00    +0.033 C 
ATOM     30  C   UNL     1      -0.966   5.688   1.337  0.00  0.00    +0.011 C 
ATOM     31  C   UNL     1      -2.297   3.887   2.444  0.00  0.00    +0.011 C 
ENDBRANCH  28  29
BRANCH  28  32
ATOM     32  O   UNL     1      -0.967   7.131   3.794  0.00  0.00    -0.479 OA
BRANCH  32  33
ATOM     33  C   UNL     1       0.333   7.413   3.516  0.00  0.00    +0.122 A 
ATOM     34  C   UNL     1       0.761   8.732   3.465  0.00  0.00    +0.045 A 
ATOM     35  C   UNL     1       2.083   9.017   3.183  0.00  0.00    +0.004 A 
ATOM     36  C   UNL     1       2.979   7.989   2.952  0.00  0.00    +0.000 A 
ATOM     37  C   UNL     1       2.554   6.675   3.002  0.00  0.00    +0.004 A 
ATOM     38  C   UNL     1       1.235   6.384   3.289  0.00  0.00    +0.045 A 
ENDBRANCH  32  33
ENDBRANCH  28  32
ENDBRANCH  11  28
TORSDOF 8
