REMARK  Name = ZINC67575818
REMARK  9 active torsions:
REMARK  status: ('A' for Active; 'I' for Inactive)
REMARK    1  A    between atoms: C_1  and  C_2
REMARK    2  A    between atoms: C_3  and  C_23
REMARK    3  A    between atoms: C_5  and  C_7
REMARK    4  A    between atoms: C_7  and  N_8
REMARK    5  A    between atoms: N_11  and  C_12
REMARK    6  A    between atoms: C_15  and  N_19
REMARK    7  A    between atoms: C_20  and  C_22
REMARK    8  A    between atoms: C_23  and  O_25
REMARK    9  A    between atoms: O_25  and  C_26
REMARK                            x       y       z     vdW  Elec       q    Type
REMARK                         _______ _______ _______ _____ _____    ______ ____
ROOT
ATOM      1  N   UNL     1       2.049  -3.589  -1.416  0.00  0.00    -0.292 N 
ATOM      2  C   UNL     1       2.902  -4.601  -1.671  0.00  0.00    +0.304 C 
ATOM      3  O   UNL     1       3.417  -5.208  -0.752  0.00  0.00    -0.252 OA
ATOM      4  N   UNL     1       3.184  -4.939  -2.945  0.00  0.00    -0.268 N 
ATOM      5  H   UNL     1       1.638  -3.104  -2.149  0.00  0.00    +0.151 HD
ATOM      6  H   UNL     1       2.713  -4.511  -3.676  0.00  0.00    +0.156 HD
ENDROOT
BRANCH   4   7
ATOM      7  C   UNL     1       4.159  -5.910  -3.212  0.00  0.00    +0.053 A 
ATOM      8  C   UNL     1       5.170  -6.151  -2.291  0.00  0.00    +0.026 A 
ATOM      9  C   UNL     1       6.131  -7.107  -2.555  0.00  0.00    +0.025 A 
ATOM     10  C   UNL     1       6.086  -7.828  -3.741  0.00  0.00    +0.035 A 
ATOM     11  C   UNL     1       5.076  -7.588  -4.662  0.00  0.00    +0.045 A 
ATOM     12  C   UNL     1       4.111  -6.636  -4.396  0.00  0.00    +0.064 A 
ATOM     13 CL   UNL     1       2.843  -6.340  -5.544  0.00  0.00    -0.082 Cl
BRANCH  10  14
ATOM     14  N   UNL     1       7.061  -8.798  -4.007  0.00  0.00    -0.286 N 
ATOM     15  C   UNL     1       7.493  -8.991  -5.270  0.00  0.00    +0.214 C 
ATOM     16  O   UNL     1       6.977  -8.386  -6.186  0.00  0.00    -0.276 OA
ATOM     17  C   UNL     1       8.616  -9.958  -5.543  0.00  0.00    +0.109 C 
ATOM     18  H   UNL     1       7.426  -9.331  -3.284  0.00  0.00    +0.155 HD
ENDBRANCH  10  14
ENDBRANCH   4   7
BRANCH   1  19
ATOM     19  C   UNL     1       1.743  -3.220  -0.032  0.00  0.00    +0.180 C 
BRANCH  19  24
ATOM     20  C   UNL     1       0.002   1.511  -0.005  0.00  0.00    +0.087 C 
ATOM     21  C   UNL     1       0.015   0.004  -0.010  0.00  0.00    +0.116 A 
ATOM     22  C   UNL     1      -1.086  -0.804  -0.006  0.00  0.00    +0.100 A 
ATOM     23  C   UNL     1      -0.566  -2.179  -0.014  0.00  0.00    +0.061 A 
ATOM     24  C   UNL     1       0.771  -2.069  -0.022  0.00  0.00    +0.123 A 
ATOM     25  O   UNL     1       1.105  -0.769  -0.024  0.00  0.00    -0.462 OA
BRANCH  22  26
ATOM     26  C   UNL     1      -2.497  -0.385   0.005  0.00  0.00    +0.342 C 
ATOM     27  O   UNL     1      -2.780   0.797   0.011  0.00  0.00    -0.245 OA
BRANCH  26  28
ATOM     28  O   UNL     1      -3.475  -1.312   0.007  0.00  0.00    -0.464 OA
ATOM     29  C   UNL     1      -4.822  -0.835   0.018  0.00  0.00    +0.280 C 
ENDBRANCH  26  28
ENDBRANCH  22  26
ENDBRANCH  19  24
ENDBRANCH   1  19
TORSDOF 6
