REMARK  Name = ZINC03054320
REMARK  6 active torsions:
REMARK  status: ('A' for Active; 'I' for Inactive)
REMARK    1  A    between atoms: C_5  and  C_7
REMARK    2  A    between atoms: C_7  and  N_8
REMARK    3  A    between atoms: C_11  and  C_24
REMARK    4  A    between atoms: N_26  and  C_27
REMARK    5  A    between atoms: C_27  and  C_28
REMARK    6  A    between atoms: C_28  and  N_60
REMARK                            x       y       z     vdW  Elec       q    Type
REMARK                         _______ _______ _______ _____ _____    ______ ____
ROOT
ATOM      1  N   UNL     1       4.563  -0.685   1.292  0.00  0.00    -0.262 N 
ATOM      2  C   UNL     1       4.955  -0.388   2.590  0.00  0.00    +0.051 A 
ATOM      3  C   UNL     1       5.058  -1.428   3.504  0.00  0.00    +0.037 A 
ATOM      4  C   UNL     1       5.455  -1.175   4.819  0.00  0.00    +0.039 A 
ATOM      5  C   UNL     1       5.751   0.131   5.219  0.00  0.00    +0.014 A 
ATOM      6  C   UNL     1       5.648   1.162   4.312  0.00  0.00    +0.017 A 
ATOM      7  C   UNL     1       5.252   0.910   3.002  0.00  0.00    +0.034 A 
ATOM      8  S   UNL     1       5.127   2.253   1.866  0.00  0.00    -0.087 S 
ATOM      9  C   UNL     1       3.433   2.235   1.385  0.00  0.00    +0.025 A 
ATOM     10  C   UNL     1       2.635   3.347   1.618  0.00  0.00    +0.016 A 
ATOM     11  C   UNL     1       1.308   3.339   1.238  0.00  0.00    +0.001 A 
ATOM     12  C   UNL     1       0.768   2.222   0.622  0.00  0.00    +0.001 A 
ATOM     13  C   UNL     1       1.545   1.111   0.385  0.00  0.00    +0.014 A 
ATOM     14  C   UNL     1       2.894   1.099   0.765  0.00  0.00    +0.051 A 
ATOM     15  C   UNL     1       3.701  -0.093   0.509  0.00  0.00    +0.252 C 
ATOM     16  O   UNL     1       3.548  -0.604  -0.584  0.00  0.00    -0.270 OA
ENDROOT
BRANCH   4  17
ATOM     17  C   UNL     1       5.561  -2.284   5.784  0.00  0.00    +0.244 C 
ATOM     18  O   UNL     1       5.421  -3.433   5.409  0.00  0.00    -0.270 OA
ATOM     19  N   UNL     1       5.813  -2.026   7.083  0.00  0.00    -0.313 N 
ATOM     20  H   UNL     1       5.925  -1.110   7.382  0.00  0.00    +0.149 HD
BRANCH  19  21
ATOM     21  C   UNL     1       5.919  -3.128   8.042  0.00  0.00    +0.086 C 
BRANCH  21  22
ATOM     22  C   UNL     1       6.207  -2.566   9.435  0.00  0.00    -0.060 C 
BRANCH  22  27
ATOM     23  C   UNL     1       7.286  -4.691   9.931  0.00  0.00    -0.079 C 
ATOM     24  C   UNL     1       7.656  -5.449  11.230  0.00  0.00    -0.020 C 
ATOM     25  C   UNL     1       7.686  -4.324  12.290  0.00  0.00    -0.020 C 
ATOM     26  C   UNL     1       6.823  -3.193  11.700  0.00  0.00    -0.079 C 
ATOM     27  N   UNL     1       6.326  -3.687  10.415  0.00  0.00    +0.381 N 
ATOM     28  H   UNL     1       5.405  -4.122  10.544  0.00  0.00    -0.082 HD
ENDBRANCH  22  27
ENDBRANCH  21  22
ENDBRANCH  19  21
ENDBRANCH   4  17
BRANCH   1  29
ATOM     29  C   UNL     1       5.224  -1.852   0.703  0.00  0.00    +0.150 C 
BRANCH  29  34
ATOM     30  C   UNL     1       8.940  -1.196   0.583  0.00  0.00    +0.000 A 
ATOM     31  C   UNL     1       9.098  -0.734  -0.710  0.00  0.00    +0.001 A 
ATOM     32  C   UNL     1       8.002  -0.633  -1.547  0.00  0.00    +0.020 A 
ATOM     33  C   UNL     1       6.748  -1.000  -1.091  0.00  0.00    +0.046 A 
ATOM     34  C   UNL     1       6.590  -1.458   0.205  0.00  0.00    -0.011 A 
ATOM     35  C   UNL     1       7.687  -1.558   1.040  0.00  0.00    +0.006 A 
ATOM     36 CL   UNL     1       5.373  -0.881  -2.144  0.00  0.00    -0.083 Cl
ENDBRANCH  29  34
ENDBRANCH   1  29
TORSDOF 6
