REMARK  Name = ZINC49150573
REMARK  7 active torsions:
REMARK  status: ('A' for Active; 'I' for Inactive)
REMARK    1  A    between atoms: C_1  and  C_2
REMARK    2  A    between atoms: C_2  and  C_4
REMARK    3  A    between atoms: C_2  and  N_10
REMARK    4  A    between atoms: C_4  and  N_5
REMARK    5  A    between atoms: N_10  and  S_11
REMARK    6  A    between atoms: S_11  and  C_14
REMARK    7  A    between atoms: C_17  and  N_21
REMARK                            x       y       z     vdW  Elec       q    Type
REMARK                         _______ _______ _______ _____ _____    ______ ____
ROOT
ATOM      1  S   UNL     1      -0.139  -0.902   2.549  0.00  0.00    +0.061 S 
ATOM      2  O   UNL     1       0.814  -1.354   3.502  0.00  0.00    -0.153 OA
ATOM      3  O   UNL     1      -1.030   0.173   2.814  0.00  0.00    -0.153 OA
ENDROOT
BRANCH   1   4
ATOM      4  C   UNL     1      -1.137  -2.294   2.137  0.00  0.00    +0.133 A 
ATOM      5  C   UNL     1      -2.414  -2.105   1.639  0.00  0.00    +0.047 A 
ATOM      6  C   UNL     1      -3.200  -3.195   1.316  0.00  0.00    +0.040 A 
ATOM      7  C   UNL     1      -2.707  -4.481   1.491  0.00  0.00    +0.027 A 
ATOM      8  C   UNL     1      -1.424  -4.668   1.990  0.00  0.00    +0.040 A 
ATOM      9  C   UNL     1      -0.641  -3.575   2.307  0.00  0.00    +0.047 A 
ATOM     10 BR   UNL     1       1.108  -3.828   2.981  0.00  0.00    -0.048 Br
ATOM     11 BR   UNL     1      -3.085  -0.353   1.402  0.00  0.00    -0.048 Br
BRANCH   7  12
ATOM     12  N   UNL     1      -3.499  -5.585   1.165  0.00  0.00    -0.358 N 
ATOM     13  H   UNL     1      -4.394  -5.453   0.816  0.00  0.00    +0.142 HD
ATOM     14  H   UNL     1      -3.153  -6.483   1.287  0.00  0.00    +0.142 HD
ENDBRANCH   7  12
ENDBRANCH   1   4
BRANCH   1  15
ATOM     15  N   UNL     1       0.711  -0.489   1.189  0.00  0.00    -0.189 NA
ATOM     16  H   UNL     1       1.677  -0.569   1.178  0.00  0.00    +0.148 HD
BRANCH  15  18
ATOM     17  C   UNL     1      -0.019   1.526   0.010  0.00  0.00    +0.024 C 
ATOM     18  C   UNL     1       0.002  -0.004   0.002  0.00  0.00    +0.057 C 
BRANCH  18  19
ATOM     19  C   UNL     1       0.718  -0.497  -1.257  0.00  0.00    -0.059 C 
BRANCH  19  20
ATOM     20  N   UNL     1       0.844  -1.960  -1.207  0.00  0.00    +0.381 N 
ATOM     21  C   UNL     1      -0.492  -2.594  -1.344  0.00  0.00    -0.079 C 
ATOM     22  C   UNL     1      -0.157  -4.026  -1.833  0.00  0.00    -0.020 C 
ATOM     23  C   UNL     1       1.038  -3.794  -2.786  0.00  0.00    -0.020 C 
ATOM     24  C   UNL     1       1.639  -2.443  -2.357  0.00  0.00    -0.079 C 
ATOM     25  H   UNL     1       1.278  -2.243  -0.341  0.00  0.00    -0.082 HD
ENDBRANCH  19  20
ENDBRANCH  18  19
ENDBRANCH  15  18
ENDBRANCH   1  15
TORSDOF 6
