REMARK  Name = ZINC12878012
REMARK  3 active torsions:
REMARK  status: ('A' for Active; 'I' for Inactive)
REMARK    1  A    between atoms: C_7  and  C_11
REMARK    2  A    between atoms: C_11  and  C_12
REMARK    3  A    between atoms: N_20  and  C_23
REMARK                            x       y       z     vdW  Elec       q    Type
REMARK                         _______ _______ _______ _____ _____    ______ ____
ROOT
ATOM      1  C   UNL     1       3.103  -1.935   0.703  0.00  0.00    -0.053 C 
ATOM      2  C   UNL     1       2.507  -1.806  -0.715  0.00  0.00    +0.074 C 
ATOM      3  C   UNL     1       1.341  -0.789  -0.568  0.00  0.00    +0.088 C 
ATOM      4  C   UNL     1       0.116  -1.617  -0.885  0.00  0.00    +0.229 C 
ATOM      5  O   UNL     1      -1.024  -1.204  -0.895  0.00  0.00    -0.275 OA
ATOM      6  N   UNL     1       0.486  -2.874  -1.152  0.00  0.00    -0.210 N 
ATOM      7  C   UNL     1       1.804  -3.093  -1.082  0.00  0.00    +0.228 C 
ATOM      8  O   UNL     1       2.349  -4.157  -1.281  0.00  0.00    -0.275 OA
ATOM      9  C   UNL     1       1.341  -0.417   0.920  0.00  0.00    +0.050 C 
ATOM     10  C   UNL     1      -0.053  -0.192   1.433  0.00  0.00    -0.028 A 
ATOM     11  C   UNL     1      -1.178  -0.984   1.500  0.00  0.00    +0.004 A 
ATOM     12  C   UNL     1      -2.347  -0.482   2.044  0.00  0.00    +0.000 A 
ATOM     13  C   UNL     1      -2.383   0.816   2.519  0.00  0.00    +0.002 A 
ATOM     14  C   UNL     1      -1.258   1.612   2.457  0.00  0.00    +0.023 A 
ATOM     15  C   UNL     1      -0.078   1.116   1.908  0.00  0.00    +0.036 A 
ATOM     16  N   UNL     1       1.171   1.716   1.734  0.00  0.00    -0.286 N 
ATOM     17  C   UNL     1       2.060   0.882   1.161  0.00  0.00    +0.211 C 
ATOM     18  O   UNL     1       3.216   1.131   0.892  0.00  0.00    -0.277 OA
ATOM     19  H   UNL     1       1.374   2.628   1.995  0.00  0.00    +0.155 HD
ATOM     20  N   UNL     1       2.009  -1.521   1.585  0.00  0.00    +0.394 N 
ATOM     21  H   UNL     1       2.382  -1.216   2.492  0.00  0.00    -0.083 HD
ATOM     22  H   UNL     1       1.354  -2.298   1.728  0.00  0.00    -0.083 HD
ENDROOT
BRANCH   6  23
ATOM     23  C   UNL     1      -0.433  -3.882  -1.478  0.00  0.00    +0.044 A 
ATOM     24  C   UNL     1      -0.637  -4.946  -0.610  0.00  0.00    +0.025 A 
ATOM     25  C   UNL     1      -1.547  -5.934  -0.931  0.00  0.00    +0.022 A 
ATOM     26  C   UNL     1      -2.248  -5.870  -2.123  0.00  0.00    +0.041 A 
ATOM     27  C   UNL     1      -2.042  -4.813  -2.993  0.00  0.00    +0.022 A 
ATOM     28  C   UNL     1      -1.137  -3.820  -2.673  0.00  0.00    +0.025 A 
ATOM     29 CL   UNL     1      -3.385  -7.117  -2.527  0.00  0.00    -0.084 Cl
ENDBRANCH   6  23
BRANCH   1  30
ATOM     30  C   UNL     1       4.298  -0.995   0.866  0.00  0.00    +0.022 C 
BRANCH  30  37
ATOM     31  C   UNL     1       6.526  -1.844  -3.170  0.00  0.00    +0.001 A 
ATOM     32  C   UNL     1       7.690  -2.581  -3.000  0.00  0.00    +0.002 A 
ATOM     33  C   UNL     1       8.088  -2.988  -1.745  0.00  0.00    +0.026 A 
ATOM     34  C   UNL     1       7.317  -2.657  -0.635  0.00  0.00    +0.047 A 
ATOM     35  C   UNL     1       6.138  -1.910  -0.812  0.00  0.00    +0.003 A 
ATOM     36  C   UNL     1       5.754  -1.509  -2.093  0.00  0.00    +0.010 A 
ATOM     37  C   UNL     1       5.567  -1.731   0.525  0.00  0.00    -0.024 A 
ATOM     38  C   UNL     1       6.393  -2.344   1.389  0.00  0.00    +0.087 A 
ATOM     39  N   UNL     1       7.441  -2.907   0.713  0.00  0.00    -0.360 N 
ATOM     40  H   UNL     1       8.165  -3.405   1.123  0.00  0.00    +0.165 HD
ENDBRANCH  30  37
ENDBRANCH   1  30
TORSDOF 3
