REMARK  Name = ZINC10271825
REMARK  14 active torsions:
REMARK  status: ('A' for Active; 'I' for Inactive)
REMARK    1  A    between atoms: C_1  and  C_2
REMARK    2  A    between atoms: C_5  and  O_8
REMARK    3  A    between atoms: O_8  and  C_9
REMARK    4  A    between atoms: C_9  and  C_10
REMARK    5  A    between atoms: C_10  and  N_11
REMARK    6  A    between atoms: C_15  and  C_42
REMARK    7  A    between atoms: N_19  and  O_20
REMARK    8  A    between atoms: O_20  and  C_21
REMARK    9  A    between atoms: C_23  and  N_36
REMARK   10  A    between atoms: C_25  and  O_35
REMARK   11  A    between atoms: C_27  and  O_34
REMARK   12  A    between atoms: C_29  and  C_32
REMARK   13  A    between atoms: C_32  and  O_33
REMARK   14  A    between atoms: C_37  and  C_39
REMARK                            x       y       z     vdW  Elec       q    Type
REMARK                         _______ _______ _______ _____ _____    ______ ____
ROOT
ATOM      1  N   UNL     1      -4.702   6.181   1.510  0.00  0.00    -0.262 N 
ATOM      2  C   UNL     1      -3.678   6.447   2.414  0.00  0.00    +0.046 A 
ATOM      3  C   UNL     1      -3.704   6.910   3.725  0.00  0.00    +0.024 A 
ATOM      4  C   UNL     1      -2.525   7.093   4.419  0.00  0.00    +0.005 A 
ATOM      5  C   UNL     1      -1.306   6.817   3.823  0.00  0.00    -0.050 A 
ATOM      6  C   UNL     1      -1.261   6.355   2.522  0.00  0.00    +0.015 A 
ATOM      7  C   UNL     1      -2.443   6.163   1.818  0.00  0.00    +0.030 A 
ATOM      8  C   UNL     1      -2.739   5.699   0.441  0.00  0.00    +0.174 C 
ATOM      9  N   UNL     1      -1.887   5.331  -0.473  0.00  0.00    -0.076 NA
ATOM     10  C   UNL     1      -4.220   5.741   0.335  0.00  0.00    +0.273 C 
ATOM     11  O   UNL     1      -4.878   5.432  -0.639  0.00  0.00    -0.268 OA
ATOM     12  C   UNL     1      -0.028   7.021   4.595  0.00  0.00    +0.044 C 
ENDROOT
BRANCH   1  13
ATOM     13  C   UNL     1      -6.127   6.361   1.801  0.00  0.00    +0.155 C 
BRANCH  13  14
ATOM     14  C   UNL     1      -6.695   5.065   2.383  0.00  0.00    +0.248 C 
BRANCH  14  15
ATOM     15  O   UNL     1      -6.081   4.800   3.646  0.00  0.00    -0.490 OA
BRANCH  15  20
ATOM     16  C   UNL     1      -7.722   0.146   6.362  0.00  0.00    +0.044 C 
ATOM     17  C   UNL     1      -7.283   1.391   5.635  0.00  0.00    -0.050 A 
ATOM     18  C   UNL     1      -6.326   2.217   6.196  0.00  0.00    +0.007 A 
ATOM     19  C   UNL     1      -5.922   3.359   5.532  0.00  0.00    +0.046 A 
ATOM     20  C   UNL     1      -6.477   3.677   4.301  0.00  0.00    +0.121 A 
ATOM     21  C   UNL     1      -7.441   2.850   3.743  0.00  0.00    +0.046 A 
ATOM     22  C   UNL     1      -7.838   1.707   4.408  0.00  0.00    +0.007 A 
ENDBRANCH  15  20
ENDBRANCH  14  15
ENDBRANCH  13  14
ENDBRANCH   1  13
BRANCH   9  23
ATOM     23  O   UNL     1      -0.499   5.354  -0.198  0.00  0.00    -0.359 OA
BRANCH  23  24
ATOM     24  C   UNL     1       0.318   4.925  -1.289  0.00  0.00    +0.360 C 
ATOM     25  C   UNL     1       1.670   5.640  -1.226  0.00  0.00    +0.175 C 
ATOM     26  C   UNL     1       2.386   5.250   0.071  0.00  0.00    +0.172 C 
ATOM     27  C   UNL     1       2.530   3.726   0.122  0.00  0.00    +0.176 C 
ATOM     28  C   UNL     1       1.145   3.085   0.008  0.00  0.00    +0.179 C 
ATOM     29  O   UNL     1       0.522   3.514  -1.205  0.00  0.00    -0.330 OA
BRANCH  25  30
ATOM     30  N   UNL     1       1.460   7.090  -1.252  0.00  0.00    -0.304 N 
ATOM     31  C   UNL     1       1.322   7.730  -2.431  0.00  0.00    +0.210 C 
ATOM     32  O   UNL     1       1.373   7.105  -3.469  0.00  0.00    -0.276 OA
ATOM     33  C   UNL     1       1.106   9.221  -2.457  0.00  0.00    +0.109 C 
ATOM     34  H   UNL     1       1.419   7.589  -0.422  0.00  0.00    +0.149 HD
ENDBRANCH  25  30
BRANCH  27  35
ATOM     35  O   UNL     1       3.351   3.287  -0.963  0.00  0.00    -0.387 OA
ATOM     36  H   UNL     1       3.481   2.329  -0.995  0.00  0.00    +0.210 HD
ENDBRANCH  27  35
BRANCH  26  37
ATOM     37  O   UNL     1       3.680   5.854   0.103  0.00  0.00    -0.387 OA
ATOM     38  H   UNL     1       4.190   5.649   0.899  0.00  0.00    +0.210 HD
ENDBRANCH  26  37
BRANCH  28  39
ATOM     39  C   UNL     1       1.286   1.562  -0.002  0.00  0.00    +0.190 C 
BRANCH  39  40
ATOM     40  O   UNL     1      -0.011   0.963   0.007  0.00  0.00    -0.392 OA
ATOM     41  H   UNL     1       0.002  -0.004   0.002  0.00  0.00    +0.210 HD
ENDBRANCH  39  40
ENDBRANCH  28  39
ENDBRANCH  23  24
ENDBRANCH   9  23
TORSDOF 11
