REMARK  Name = ZINC59789602
REMARK  10 active torsions:
REMARK  status: ('A' for Active; 'I' for Inactive)
REMARK    1  A    between atoms: C_2  and  C_3
REMARK    2  A    between atoms: C_3  and  N_4
REMARK    3  A    between atoms: C_5  and  C_24
REMARK    4  A    between atoms: C_8  and  S_9
REMARK    5  A    between atoms: S_9  and  C_10
REMARK    6  A    between atoms: C_10  and  C_11
REMARK    7  A    between atoms: C_17  and  S_19
REMARK    8  A    between atoms: S_19  and  C_20
REMARK    9  A    between atoms: C_20  and  C_21
REMARK   10  A    between atoms: C_28  and  N_30
REMARK                            x       y       z     vdW  Elec       q    Type
REMARK                         _______ _______ _______ _____ _____    ______ ____
ROOT
ATOM      1  S   UNL     1       1.051  -4.084  -0.678  0.00  0.00    -0.077 S 
ENDROOT
BRANCH   1   6
ATOM      2  N   UNL     1       1.834  -1.893   0.874  0.00  0.00    -0.298 N 
ATOM      3  C   UNL     1       1.843  -1.580   2.214  0.00  0.00    +0.165 A 
ATOM      4  N   UNL     1       1.357  -2.616   2.856  0.00  0.00    -0.128 NA
ATOM      5  N   UNL     1       1.048  -3.544   2.021  0.00  0.00    -0.122 NA
ATOM      6  C   UNL     1       1.314  -3.154   0.794  0.00  0.00    +0.193 A 
BRANCH   3   7
ATOM      7  C   UNL     1       2.314  -0.314   2.817  0.00  0.00    +0.021 A 
ATOM      8  C   UNL     1       2.145   0.892   2.135  0.00  0.00    +0.012 A 
ATOM      9  C   UNL     1       2.587   2.069   2.703  0.00  0.00    +0.003 A 
ATOM     10  C   UNL     1       3.195   2.056   3.946  0.00  0.00    +0.033 A 
ATOM     11  C   UNL     1       3.365   0.864   4.627  0.00  0.00    +0.127 A 
ATOM     12  C   UNL     1       2.923  -0.320   4.072  0.00  0.00    +0.044 A 
BRANCH  11  13
ATOM     13  N   UNL     1       4.016   0.859   5.956  0.00  0.00    +0.056 N 
ATOM     14  O   UNL     1       4.399   1.896   6.445  0.00  0.00    -0.126 OA
ATOM     15  O   UNL     1       4.165  -0.182   6.552  0.00  0.00    -0.126 OA
ENDBRANCH  11  13
ENDBRANCH   3   7
BRANCH   2  16
ATOM     16  C   UNL     1       2.281  -1.048  -0.236  0.00  0.00    +0.152 C 
BRANCH  16  18
ATOM     17  C   UNL     1       1.122   0.972  -0.967  0.00  0.00    +0.005 C 
ATOM     18  C   UNL     1       1.097  -0.331  -0.831  0.00  0.00    -0.013 C 
ENDBRANCH  16  18
ENDBRANCH   2  16
ENDBRANCH   1   6
BRANCH   1  19
ATOM     19  C   UNL     1       0.347  -5.649  -0.089  0.00  0.00    +0.173 C 
BRANCH  19  20
ATOM     20  C   UNL     1       0.070  -6.550  -1.265  0.00  0.00    +0.229 C 
ATOM     21  O   UNL     1       0.324  -6.174  -2.390  0.00  0.00    -0.275 OA
ATOM     22  N   UNL     1      -0.458  -7.774  -1.066  0.00  0.00    -0.263 N 
ATOM     23  C   UNL     1      -0.713  -8.607  -2.153  0.00  0.00    +0.189 A 
ATOM     24  N   UNL     1      -0.512  -8.405  -3.445  0.00  0.00    -0.125 NA
ATOM     25  N   UNL     1      -0.802  -9.275  -4.310  0.00  0.00    -0.133 NA
ATOM     26  C   UNL     1      -1.327 -10.445  -3.979  0.00  0.00    +0.160 A 
ATOM     27  S   UNL     1      -1.400 -10.260  -2.199  0.00  0.00    -0.024 S 
ATOM     28  H   UNL     1      -0.660  -8.075  -0.166  0.00  0.00    +0.157 HD
BRANCH  26  29
ATOM     29  S   UNL     1      -1.809 -11.800  -4.997  0.00  0.00    -0.088 S 
BRANCH  29  30
ATOM     30  C   UNL     1      -1.423 -11.243  -6.680  0.00  0.00    +0.171 C 
BRANCH  30  31
ATOM     31  C   UNL     1      -1.792 -12.323  -7.664  0.00  0.00    +0.221 C 
ATOM     32  O   UNL     1      -2.269 -13.366  -7.269  0.00  0.00    -0.275 OA
ATOM     33  N   UNL     1      -1.593 -12.131  -8.983  0.00  0.00    -0.329 N 
ATOM     34  H   UNL     1      -1.212 -11.297  -9.299  0.00  0.00    +0.145 HD
ATOM     35  H   UNL     1      -1.831 -12.826  -9.616  0.00  0.00    +0.145 HD
ENDBRANCH  30  31
ENDBRANCH  29  30
ENDBRANCH  26  29
ENDBRANCH  19  20
ENDBRANCH   1  19
TORSDOF 10
