REMARK  Name = ZINC39654133
REMARK  10 active torsions:
REMARK  status: ('A' for Active; 'I' for Inactive)
REMARK    1  A    between atoms: C_1  and  C_2
REMARK    2  A    between atoms: C_2  and  O_3
REMARK    3  A    between atoms: O_3  and  C_4
REMARK    4  A    between atoms: C_7  and  C_10
REMARK    5  A    between atoms: C_10  and  C_11
REMARK    6  A    between atoms: C_11  and  N_12
REMARK    7  A    between atoms: C_13  and  C_15
REMARK    8  A    between atoms: C_26  and  C_28
REMARK    9  A    between atoms: C_30  and  C_34
REMARK   10  A    between atoms: N_31  and  C_33
REMARK                            x       y       z     vdW  Elec       q    Type
REMARK                         _______ _______ _______ _____ _____    ______ ____
ROOT
ATOM      1  C   UNL     1      -0.834 -10.175  -3.638  0.00  0.00    +0.100 C 
ATOM      2  C   UNL     1      -0.726 -10.876  -2.265  0.00  0.00    +0.121 C 
ATOM      3  N   UNL     1      -2.115 -11.276  -1.939  0.00  0.00    -0.295 N 
ATOM      4  C   UNL     1      -2.681 -11.730  -3.232  0.00  0.00    +0.115 C 
ATOM      5  C   UNL     1      -2.116 -10.741  -4.271  0.00  0.00    -0.004 C 
ATOM      6  C   UNL     1      -3.117  -9.618  -4.528  0.00  0.00    -0.010 C 
ATOM      7  C   UNL     1      -4.361 -10.197  -5.209  0.00  0.00    -0.082 C 
ATOM      8  N   UNL     1      -3.976 -10.836  -6.473  0.00  0.00    +0.379 N 
ATOM      9  C   UNL     1      -3.086 -11.973  -6.209  0.00  0.00    -0.082 C 
ATOM     10  C   UNL     1      -1.788 -11.470  -5.570  0.00  0.00    -0.010 C 
ATOM     11  C   UNL     1      -2.726 -11.236  -0.738  0.00  0.00    +0.267 C 
ATOM     12  O   UNL     1      -3.880 -11.602  -0.631  0.00  0.00    -0.268 OA
ATOM     13  H   UNL     1      -4.804 -11.163  -6.949  0.00  0.00    -0.086 HD
ATOM     14  H   UNL     1      -3.499 -10.165  -7.056  0.00  0.00    -0.086 HD
ENDROOT
BRANCH  11  15
ATOM     15  C   UNL     1      -1.993 -10.748   0.447  0.00  0.00    +0.147 A 
ATOM     16  C   UNL     1      -2.494 -10.653   1.767  0.00  0.00    +0.057 A 
ATOM     17  C   UNL     1      -1.474 -10.156   2.506  0.00  0.00    +0.037 A 
ATOM     18  N   UNL     1      -0.430  -9.968   1.672  0.00  0.00    -0.271 N 
ATOM     19  N   UNL     1      -0.745 -10.322   0.478  0.00  0.00    -0.167 NA
ATOM     20  C   UNL     1       0.878  -9.442   2.071  0.00  0.00    +0.172 C 
ATOM     21  C   UNL     1      -1.500  -9.867   3.985  0.00  0.00    +0.065 C 
ENDBRANCH  11  15
BRANCH   1  23
ATOM     22  N   UNL     1      -0.500  -7.851  -4.418  0.00  0.00    -0.315 N 
ATOM     23  C   UNL     1      -0.951  -8.684  -3.458  0.00  0.00    +0.218 C 
ATOM     24  O   UNL     1      -1.451  -8.232  -2.450  0.00  0.00    -0.275 OA
ATOM     25  H   UNL     1      -0.101  -8.212  -5.224  0.00  0.00    +0.149 HD
BRANCH  22  26
ATOM     26  C   UNL     1      -0.614  -6.401  -4.243  0.00  0.00    +0.109 C 
BRANCH  26  27
ATOM     27  C   UNL     1      -0.033  -5.692  -5.467  0.00  0.00    +0.054 C 
BRANCH  27  31
ATOM     28  C   UNL     1      -0.365  -1.462  -4.957  0.00  0.00    +0.121 A 
ATOM     29  C   UNL     1       0.769  -2.129  -4.514  0.00  0.00    +0.046 A 
ATOM     30  C   UNL     1       0.874  -3.496  -4.680  0.00  0.00    +0.007 A 
ATOM     31  C   UNL     1      -0.150  -4.201  -5.287  0.00  0.00    -0.046 A 
ATOM     32  C   UNL     1      -1.280  -3.539  -5.729  0.00  0.00    +0.007 A 
ATOM     33  C   UNL     1      -1.393  -2.172  -5.560  0.00  0.00    +0.046 A 
BRANCH  28  34
ATOM     34  O   UNL     1      -0.471  -0.117  -4.794  0.00  0.00    -0.492 OA
BRANCH  34  36
ATOM     35  C   UNL     1       0.327   2.046  -4.071  0.00  0.00    +0.048 C 
ATOM     36  C   UNL     1       0.626   0.548  -4.165  0.00  0.00    +0.225 C 
ENDBRANCH  34  36
ENDBRANCH  28  34
ENDBRANCH  27  31
ENDBRANCH  26  27
ENDBRANCH  22  26
ENDBRANCH   1  23
TORSDOF 7
