REMARK  Name = ZINC19328659
REMARK  17 active torsions:
REMARK  status: ('A' for Active; 'I' for Inactive)
REMARK    1  A    between atoms: C_1  and  C_2
REMARK    2  A    between atoms: C_2  and  C_34
REMARK    3  A    between atoms: C_4  and  C_8
REMARK    4  A    between atoms: C_4  and  C_15
REMARK    5  A    between atoms: C_8  and  C_9
REMARK    6  A    between atoms: C_15  and  C_17
REMARK    7  A    between atoms: C_15  and  C_32
REMARK    8  A    between atoms: C_17  and  N_18
REMARK    9  A    between atoms: N_18  and  C_19
REMARK   10  A    between atoms: C_19  and  N_20
REMARK   11  A    between atoms: N_20  and  C_21
REMARK   12  A    between atoms: C_21  and  C_22
REMARK   13  A    between atoms: C_25  and  O_30
REMARK   14  A    between atoms: C_26  and  O_28
REMARK   15  A    between atoms: O_28  and  C_29
REMARK   16  A    between atoms: O_30  and  C_31
REMARK   17  A    between atoms: C_32  and  O_33
REMARK                            x       y       z     vdW  Elec       q    Type
REMARK                         _______ _______ _______ _____ _____    ______ ____
ROOT
ATOM      1  C   UNL     1       2.256   0.159  -2.635  0.00  0.00    +0.004 C 
ENDROOT
BRANCH   1   5
ATOM      2  C   UNL     1       0.324   3.740   0.270  0.00  0.00    +0.041 C 
ATOM      3  C   UNL     1       0.883   2.316   0.243  0.00  0.00    +0.064 C 
ATOM      4  C   UNL     1       1.354   1.978  -1.174  0.00  0.00    +0.042 C 
ATOM      5  C   UNL     1       1.856   0.531  -1.206  0.00  0.00    -0.017 C 
ATOM      6  C   UNL     1       0.734  -0.397  -0.729  0.00  0.00    +0.035 C 
ATOM      7  C   UNL     1       0.287   0.032   0.670  0.00  0.00    +0.161 C 
ATOM      8  O   UNL     1      -0.138   1.396   0.636  0.00  0.00    -0.374 OA
ATOM      9  C   UNL     1       2.063   2.212   1.212  0.00  0.00    +0.041 C 
BRANCH   5  10
ATOM     10  C   UNL     1       3.066   0.389  -0.280  0.00  0.00    +0.042 C 
BRANCH  10  11
ATOM     11  C   UNL     1       3.657  -0.989  -0.435  0.00  0.00    -0.047 A 
ATOM     12  C   UNL     1       2.978  -2.091   0.051  0.00  0.00    +0.003 A 
ATOM     13  C   UNL     1       3.518  -3.355  -0.095  0.00  0.00    +0.000 A 
ATOM     14  C   UNL     1       4.742  -3.516  -0.718  0.00  0.00    +0.000 A 
ATOM     15  C   UNL     1       5.423  -2.414  -1.199  0.00  0.00    +0.000 A 
ATOM     16  C   UNL     1       4.880  -1.150  -1.057  0.00  0.00    +0.003 A 
ENDBRANCH  10  11
ENDBRANCH   5  10
ENDBRANCH   1   5
BRANCH   1  17
ATOM     17  C   UNL     1       2.397  -1.360  -2.746  0.00  0.00    -0.075 C 
BRANCH  17  18
ATOM     18  N   UNL     1       2.610  -1.730  -4.151  0.00  0.00    +0.387 N 
ATOM     19  H   UNL     1       1.752  -1.396  -4.753  0.00  0.00    -0.084 HD
ATOM     20  H   UNL     1       3.527  -1.249  -4.522  0.00  0.00    -0.084 HD
BRANCH  18  21
ATOM     21  C   UNL     1       2.750  -3.185  -4.297  0.00  0.00    +0.001 C 
BRANCH  21  22
ATOM     22  N   UNL     1       1.448  -3.770  -4.642  0.00  0.00    -0.329 NA
ATOM     23  H   UNL     1       1.353  -4.759  -4.169  0.00  0.00    +0.120 HD
BRANCH  22  24
ATOM     24  C   UNL     1       1.310  -3.929  -6.096  0.00  0.00    +0.114 C 
BRANCH  24  25
ATOM     25  C   UNL     1      -0.035  -4.530  -6.411  0.00  0.00    -0.030 A 
ATOM     26  C   UNL     1      -1.124  -3.708  -6.630  0.00  0.00    +0.009 A 
ATOM     27  C   UNL     1      -2.360  -4.254  -6.921  0.00  0.00    +0.050 A 
ATOM     28  C   UNL     1      -2.510  -5.630  -6.992  0.00  0.00    +0.162 A 
ATOM     29  C   UNL     1      -1.413  -6.458  -6.771  0.00  0.00    +0.162 A 
ATOM     30  C   UNL     1      -0.176  -5.904  -6.486  0.00  0.00    +0.054 A 
BRANCH  29  31
ATOM     31  O   UNL     1      -1.555  -7.809  -6.839  0.00  0.00    -0.491 OA
ATOM     32  C   UNL     1      -0.387  -8.597  -6.601  0.00  0.00    +0.277 C 
ENDBRANCH  29  31
BRANCH  28  33
ATOM     33  O   UNL     1      -3.725  -6.170  -7.277  0.00  0.00    -0.491 OA
ATOM     34  C   UNL     1      -4.805  -5.259  -7.492  0.00  0.00    +0.277 C 
ENDBRANCH  28  33
ENDBRANCH  24  25
ENDBRANCH  22  24
ENDBRANCH  21  22
ENDBRANCH  18  21
ENDBRANCH  17  18
ENDBRANCH   1  17
BRANCH   1  35
ATOM     35  C   UNL     1       3.591   0.822  -2.979  0.00  0.00    +0.158 C 
BRANCH  35  36
ATOM     36  O   UNL     1       3.908   0.571  -4.350  0.00  0.00    -0.395 OA
ATOM     37  H   UNL     1       4.837   0.971  -4.782  0.00  0.00    +0.209 HD
ENDBRANCH  35  36
ENDBRANCH   1  35
TORSDOF 13
