REMARK  Name = ZINC35488555
REMARK  7 active torsions:
REMARK  status: ('A' for Active; 'I' for Inactive)
REMARK    1  A    between atoms: C_4  and  C_7
REMARK    2  A    between atoms: C_7  and  C_8
REMARK    3  A    between atoms: C_8  and  N_9
REMARK    4  A    between atoms: C_10  and  C_26
REMARK    5  A    between atoms: C_29  and  O_32
REMARK    6  A    between atoms: O_32  and  C_33
REMARK    7  A    between atoms: C_33  and  C_34
REMARK                            x       y       z     vdW  Elec       q    Type
REMARK                         _______ _______ _______ _____ _____    ______ ____
ROOT
ATOM      1  N   UNL     1       5.450  -1.678   1.382  0.00  0.00    -0.283 N 
ATOM      2  C   UNL     1       5.623  -3.140   1.367  0.00  0.00    +0.144 C 
ATOM      3  C   UNL     1       7.098  -3.375   1.355  0.00  0.00    +0.072 A 
ATOM      4  C   UNL     1       7.878  -4.617   1.347  0.00  0.00    +0.199 A 
ATOM      5  O   UNL     1       7.382  -5.716   1.174  0.00  0.00    -0.287 OA
ATOM      6  C   UNL     1       9.331  -4.407   1.571  0.00  0.00    +0.066 A 
ATOM      7  C   UNL     1      10.176  -5.496   1.790  0.00  0.00    +0.035 A 
ATOM      8  C   UNL     1      11.521  -5.282   2.001  0.00  0.00    +0.042 A 
ATOM      9  C   UNL     1      12.029  -3.989   1.996  0.00  0.00    +0.023 A 
ATOM     10  C   UNL     1      11.205  -2.909   1.779  0.00  0.00    +0.048 A 
ATOM     11  C   UNL     1       9.840  -3.099   1.561  0.00  0.00    +0.140 A 
ATOM     12  O   UNL     1       9.055  -2.019   1.341  0.00  0.00    -0.450 OA
ATOM     13  C   UNL     1       7.714  -2.156   1.357  0.00  0.00    +0.199 A 
ATOM     14  C   UNL     1       6.674  -1.113   1.371  0.00  0.00    +0.283 C 
ATOM     15  O   UNL     1       6.888   0.083   1.376  0.00  0.00    -0.267 OA
ATOM     16 CL   UNL     1      12.581  -6.630   2.273  0.00  0.00    -0.084 Cl
ENDROOT
BRANCH   2  17
ATOM     17  C   UNL     1       5.008  -3.749   2.600  0.00  0.00    -0.022 A 
ATOM     18  C   UNL     1       5.139  -3.115   3.822  0.00  0.00    +0.009 A 
ATOM     19  C   UNL     1       4.577  -3.672   4.955  0.00  0.00    +0.046 A 
ATOM     20  C   UNL     1       3.880  -4.868   4.865  0.00  0.00    +0.121 A 
ATOM     21  C   UNL     1       3.749  -5.502   3.638  0.00  0.00    +0.046 A 
ATOM     22  C   UNL     1       4.309  -4.939   2.508  0.00  0.00    +0.009 A 
BRANCH  20  23
ATOM     23  O   UNL     1       3.326  -5.417   5.978  0.00  0.00    -0.483 OA
BRANCH  23  24
ATOM     24  C   UNL     1       2.622  -6.650   5.811  0.00  0.00    +0.324 C 
BRANCH  24  25
ATOM     25  C   UNL     1       2.082  -7.104   7.143  0.00  0.00    +0.248 C 
ATOM     26  O   UNL     1       2.279  -6.437   8.136  0.00  0.00    -0.272 OA
ATOM     27  N   UNL     1       1.378  -8.250   7.229  0.00  0.00    -0.327 N 
ATOM     28  H   UNL     1       1.220  -8.784   6.434  0.00  0.00    +0.145 HD
ATOM     29  H   UNL     1       1.030  -8.543   8.086  0.00  0.00    +0.145 HD
ENDBRANCH  24  25
ENDBRANCH  23  24
ENDBRANCH  20  23
ENDBRANCH   2  17
BRANCH   1  30
ATOM     30  C   UNL     1       4.171  -0.963   1.399  0.00  0.00    +0.114 C 
BRANCH  30  31
ATOM     31  C   UNL     1       3.711  -0.707  -0.038  0.00  0.00    +0.054 C 
BRANCH  31  35
ATOM     32  C   UNL     1      -0.017   1.378   0.010  0.00  0.00    +0.000 A 
ATOM     33  C   UNL     1       1.171   2.086   0.002  0.00  0.00    +0.000 A 
ATOM     34  C   UNL     1       2.377   1.411  -0.013  0.00  0.00    +0.004 A 
ATOM     35  C   UNL     1       2.396   0.029  -0.020  0.00  0.00    -0.046 A 
ATOM     36  C   UNL     1       1.208  -0.679  -0.012  0.00  0.00    +0.004 A 
ATOM     37  C   UNL     1       0.002  -0.004   0.002  0.00  0.00    +0.000 A 
ENDBRANCH  31  35
ENDBRANCH  30  31
ENDBRANCH   1  30
TORSDOF 7
