REMARK  Name = ZINC39992535
REMARK  7 active torsions:
REMARK  status: ('A' for Active; 'I' for Inactive)
REMARK    1  A    between atoms: C_3  and  C_6
REMARK    2  A    between atoms: N_15  and  C_16
REMARK    3  A    between atoms: C_16  and  C_17
REMARK    4  A    between atoms: C_17  and  C_18
REMARK    5  A    between atoms: N_20  and  C_21
REMARK    6  A    between atoms: C_24  and  S_27
REMARK    7  A    between atoms: S_27  and  N_30
REMARK                            x       y       z     vdW  Elec       q    Type
REMARK                         _______ _______ _______ _____ _____    ______ ____
ROOT
ATOM      1  C   UNL     1       4.849   0.209  -3.216  0.00  0.00    +0.078 C 
ENDROOT
BRANCH   1   2
ATOM      2  C   UNL     1       4.337   0.353  -4.626  0.00  0.00    +0.215 C 
ATOM      3  O   UNL     1       3.447   1.140  -4.871  0.00  0.00    -0.276 OA
ATOM      4  N   UNL     1       4.867  -0.394  -5.615  0.00  0.00    -0.286 N 
ATOM      5  H   UNL     1       5.623  -0.974  -5.433  0.00  0.00    +0.155 HD
BRANCH   4   6
ATOM      6  C   UNL     1       4.328  -0.332  -6.905  0.00  0.00    +0.033 A 
ATOM      7  C   UNL     1       4.287  -1.471  -7.697  0.00  0.00    +0.025 A 
ATOM      8  C   UNL     1       3.754  -1.407  -8.970  0.00  0.00    +0.030 A 
ATOM      9  C   UNL     1       3.261  -0.209  -9.455  0.00  0.00    +0.105 A 
ATOM     10  C   UNL     1       3.301   0.927  -8.668  0.00  0.00    +0.030 A 
ATOM     11  C   UNL     1       3.827   0.868  -7.393  0.00  0.00    +0.025 A 
BRANCH   9  12
ATOM     12  S   UNL     1       2.582  -0.131 -11.079  0.00  0.00    +0.056 S 
ATOM     13  O   UNL     1       2.687   1.222 -11.498  0.00  0.00    -0.153 OA
ATOM     14  O   UNL     1       3.158  -1.203 -11.812  0.00  0.00    -0.153 OA
BRANCH  12  15
ATOM     15  N   UNL     1       0.964  -0.462 -10.949  0.00  0.00    -0.204 NA
ATOM     16  H   UNL     1       0.576  -0.650 -10.081  0.00  0.00    +0.144 HD
ATOM     17  H   UNL     1       0.406  -0.468 -11.742  0.00  0.00    +0.144 HD
ENDBRANCH  12  15
ENDBRANCH   9  12
ENDBRANCH   4   6
ENDBRANCH   1   2
BRANCH   1  18
ATOM     18  C   UNL     1       4.084   1.163  -2.296  0.00  0.00    -0.068 C 
BRANCH  18  27
ATOM     19  C   UNL     1       3.767   1.850  -0.025  0.00  0.00    +0.001 C 
ATOM     20  C   UNL     1       4.354   1.780   1.381  0.00  0.00    -0.046 A 
ATOM     21  C   UNL     1       3.650   2.106   2.537  0.00  0.00    +0.010 A 
ATOM     22  C   UNL     1       4.252   2.012   3.746  0.00  0.00    +0.045 A 
ATOM     23  S   UNL     1       5.887   1.445   3.301  0.00  0.00    -0.101 S 
ATOM     24  C   UNL     1       5.646   1.378   1.549  0.00  0.00    -0.010 A 
ATOM     25  C   UNL     1       6.599   0.984   0.469  0.00  0.00    +0.024 C 
ATOM     26  C   UNL     1       5.993   1.434  -0.872  0.00  0.00    -0.072 C 
ATOM     27  N   UNL     1       4.583   1.023  -0.922  0.00  0.00    +0.388 N 
ATOM     28  H   UNL     1       4.511   0.057  -0.640  0.00  0.00    -0.080 HD
BRANCH  19  31
ATOM     29  C   UNL     1      -0.007   1.332   0.023  0.00  0.00    +0.008 A 
ATOM     30  C   UNL     1       1.188   2.026   0.010  0.00  0.00    +0.010 A 
ATOM     31  C   UNL     1       2.352   1.331  -0.008  0.00  0.00    -0.019 A 
ATOM     32  S   UNL     1       1.773  -0.358  -0.005  0.00  0.00    -0.103 S 
ATOM     33  C   UNL     1       0.020  -0.023   0.019  0.00  0.00    +0.045 A 
ENDBRANCH  19  31
ENDBRANCH  18  27
ENDBRANCH   1  18
TORSDOF 7
