REMARK  Name = ZINC63506049
REMARK  9 active torsions:
REMARK  status: ('A' for Active; 'I' for Inactive)
REMARK    1  A    between atoms: C_4  and  C_7
REMARK    2  A    between atoms: C_7  and  S_8
REMARK    3  A    between atoms: S_8  and  C_9
REMARK    4  A    between atoms: N_18  and  C_19
REMARK    5  A    between atoms: C_19  and  C_20
REMARK    6  A    between atoms: C_23  and  C_26
REMARK    7  A    between atoms: N_28  and  C_29
REMARK    8  A    between atoms: C_29  and  C_30
REMARK    9  A    between atoms: C_30  and  C_31
REMARK                            x       y       z     vdW  Elec       q    Type
REMARK                         _______ _______ _______ _____ _____    ______ ____
ROOT
ATOM      1  C   UNL     1       4.593  -4.380   1.278  0.00  0.00    +0.144 C 
ENDROOT
BRANCH   1  10
ATOM      2  C   UNL     1       6.062  -2.218   1.366  0.00  0.00    +0.221 C 
ATOM      3  N   UNL     1       7.025  -1.629   0.426  0.00  0.00    -0.315 N 
ATOM      4  C   UNL     1       7.081  -2.474  -0.689  0.00  0.00    +0.068 A 
ATOM      5  C   UNL     1       7.825  -2.385  -1.860  0.00  0.00    +0.028 A 
ATOM      6  C   UNL     1       7.679  -3.382  -2.814  0.00  0.00    +0.019 A 
ATOM      7  C   UNL     1       6.805  -4.423  -2.573  0.00  0.00    +0.084 A 
ATOM      8  N   UNL     1       6.110  -4.482  -1.454  0.00  0.00    -0.348 N 
ATOM      9  C   UNL     1       6.216  -3.553  -0.512  0.00  0.00    +0.122 A 
ATOM     10  N   UNL     1       5.574  -3.443   0.724  0.00  0.00    -0.284 N 
ATOM     11  H   UNL     1       7.527  -0.809   0.554  0.00  0.00    +0.149 HD
ATOM     12  H   UNL     1       5.503  -5.226  -1.315  0.00  0.00    +0.167 HD
BRANCH   2  13
ATOM     13  S   UNL     1       4.686  -1.071   1.653  0.00  0.00    -0.115 S 
BRANCH  13  14
ATOM     14  C   UNL     1       5.356   0.130   2.837  0.00  0.00    +0.107 C 
BRANCH  14  18
ATOM     15  C   UNL     1       2.268   2.830   4.029  0.00  0.00    +0.000 A 
ATOM     16  C   UNL     1       2.433   1.630   4.696  0.00  0.00    +0.000 A 
ATOM     17  C   UNL     1       3.432   0.757   4.310  0.00  0.00    +0.004 A 
ATOM     18  C   UNL     1       4.266   1.083   3.257  0.00  0.00    -0.037 A 
ATOM     19  C   UNL     1       4.101   2.282   2.590  0.00  0.00    +0.004 A 
ATOM     20  C   UNL     1       3.103   3.156   2.977  0.00  0.00    +0.000 A 
ENDBRANCH  14  18
ENDBRANCH  13  14
ENDBRANCH   2  13
ENDBRANCH   1  10
BRANCH   1  21
ATOM     21  C   UNL     1       3.223  -4.043   0.748  0.00  0.00    -0.030 A 
ATOM     22  C   UNL     1       2.377  -3.235   1.487  0.00  0.00    +0.006 A 
ATOM     23  C   UNL     1       1.122  -2.923   1.008  0.00  0.00    +0.013 A 
ATOM     24  C   UNL     1       0.705  -3.425  -0.226  0.00  0.00    +0.037 A 
ATOM     25  C   UNL     1       1.563  -4.240  -0.967  0.00  0.00    +0.013 A 
ATOM     26  C   UNL     1       2.818  -4.539  -0.479  0.00  0.00    +0.006 A 
BRANCH  24  27
ATOM     27  C   UNL     1      -0.639  -3.095  -0.746  0.00  0.00    +0.244 C 
ATOM     28  O   UNL     1      -1.384  -2.386  -0.098  0.00  0.00    -0.270 OA
ATOM     29  N   UNL     1      -1.039  -3.581  -1.938  0.00  0.00    -0.311 N 
ATOM     30  H   UNL     1      -0.444  -4.147  -2.454  0.00  0.00    +0.149 HD
BRANCH  29  31
ATOM     31  C   UNL     1      -2.371  -3.255  -2.453  0.00  0.00    +0.110 C 
BRANCH  31  32
ATOM     32  C   UNL     1      -2.571  -3.927  -3.812  0.00  0.00    +0.073 C 
BRANCH  32  33
ATOM     33  C   UNL     1      -3.941  -3.591  -4.342  0.00  0.00    +0.035 A 
ATOM     34  H   UNL     1      -6.139  -1.935  -5.811  0.00  0.00    +0.166 HD
ATOM     35  C   UNL     1      -4.272  -2.486  -5.036  0.00  0.00    +0.105 A 
ATOM     36  N   UNL     1      -5.608  -2.581  -5.320  0.00  0.00    -0.352 N 
ATOM     37  C   UNL     1      -6.047  -3.742  -4.788  0.00  0.00    +0.171 A 
ATOM     38  N   UNL     1      -5.044  -4.344  -4.210  0.00  0.00    -0.350 N 
ATOM     39  H   UNL     1      -5.089  -5.199  -3.754  0.00  0.00    +0.166 HD
ENDBRANCH  32  33
ENDBRANCH  31  32
ENDBRANCH  29  31
ENDBRANCH  24  27
ENDBRANCH   1  21
TORSDOF 9
