REMARK  Name = ZINC45558043
REMARK  6 active torsions:
REMARK  status: ('A' for Active; 'I' for Inactive)
REMARK    1  A    between atoms: C_4  and  C_7
REMARK    2  A    between atoms: C_7  and  C_8
REMARK    3  A    between atoms: C_7  and  C_17
REMARK    4  A    between atoms: C_7  and  N_20
REMARK    5  A    between atoms: C_8  and  S_9
REMARK    6  A    between atoms: S_9  and  C_10
REMARK                            x       y       z     vdW  Elec       q    Type
REMARK                         _______ _______ _______ _____ _____    ______ ____
ROOT
ATOM      1  C   UNL     1       3.711  -0.707  -0.038  0.00  0.00    +0.128 C 
ENDROOT
BRANCH   1   5
ATOM      2  C   UNL     1      -0.017   1.378   0.010  0.00  0.00    +0.000 A 
ATOM      3  C   UNL     1       1.171   2.086   0.002  0.00  0.00    +0.000 A 
ATOM      4  C   UNL     1       2.377   1.411  -0.013  0.00  0.00    +0.006 A 
ATOM      5  C   UNL     1       2.396   0.029  -0.020  0.00  0.00    -0.018 A 
ATOM      6  C   UNL     1       1.208  -0.679  -0.012  0.00  0.00    +0.006 A 
ATOM      7  C   UNL     1       0.002  -0.004   0.002  0.00  0.00    +0.000 A 
ENDBRANCH   1   5
BRANCH   1   8
ATOM      8  C   UNL     1       4.164  -0.959   1.377  0.00  0.00    +0.236 C 
ATOM      9  O   UNL     1       3.350  -1.012   2.275  0.00  0.00    -0.274 OA
ATOM     10  N   UNL     1       5.475  -1.127   1.645  0.00  0.00    -0.328 N 
ATOM     11  H   UNL     1       6.126  -1.085   0.928  0.00  0.00    +0.145 HD
ATOM     12  H   UNL     1       5.766  -1.289   2.556  0.00  0.00    +0.145 HD
ENDBRANCH   1   8
BRANCH   1  13
ATOM     13  N   UNL     1       4.717   0.104  -0.737  0.00  0.00    -0.313 NA
ATOM     14  H   UNL     1       4.436   0.287  -1.688  0.00  0.00    +0.119 HD
ATOM     15  H   UNL     1       4.896   0.964  -0.241  0.00  0.00    +0.119 HD
ENDBRANCH   1  13
BRANCH   1  16
ATOM     16  C   UNL     1       3.539  -2.043  -0.764  0.00  0.00    +0.110 C 
BRANCH  16  17
ATOM     17  S   UNL     1       5.081  -2.993  -0.657  0.00  0.00    -0.120 S 
BRANCH  17  18
ATOM     18  C   UNL     1       4.725  -4.482  -1.528  0.00  0.00    +0.043 A 
ATOM     19  C   UNL     1       3.473  -4.673  -2.098  0.00  0.00    +0.017 A 
ATOM     20  C   UNL     1       3.197  -5.842  -2.780  0.00  0.00    +0.001 A 
ATOM     21  C   UNL     1       4.165  -6.823  -2.897  0.00  0.00    +0.003 A 
ATOM     22  C   UNL     1       5.413  -6.638  -2.330  0.00  0.00    +0.039 A 
ATOM     23  C   UNL     1       5.699  -5.468  -1.651  0.00  0.00    +0.137 A 
ATOM     24  F   UNL     1       6.920  -5.284  -1.103  0.00  0.00    -0.204 F 
ENDBRANCH  17  18
ENDBRANCH  16  17
ENDBRANCH   1  16
TORSDOF 6
