REMARK  Name = ZINC32860145
REMARK  10 active torsions:
REMARK  status: ('A' for Active; 'I' for Inactive)
REMARK    1  A    between atoms: C_1  and  C_2
REMARK    2  A    between atoms: C_15  and  C_17
REMARK    3  A    between atoms: C_17  and  N_18
REMARK    4  A    between atoms: N_18  and  C_19
REMARK    5  A    between atoms: N_18  and  C_20
REMARK    6  A    between atoms: C_20  and  C_22
REMARK    7  A    between atoms: C_20  and  C_23
REMARK    8  A    between atoms: N_25  and  C_26
REMARK    9  A    between atoms: C_29  and  O_33
REMARK   10  A    between atoms: O_33  and  C_34
REMARK                            x       y       z     vdW  Elec       q    Type
REMARK                         _______ _______ _______ _____ _____    ______ ____
ROOT
ATOM      1  N   UNL     1       1.257   1.656  -0.593  0.00  0.00    +0.391 N 
ATOM      2  C   UNL     1       1.557   0.974  -1.859  0.00  0.00    -0.094 C 
ATOM      3  H   UNL     1       1.117   2.725  -0.810  0.00  0.00    -0.080 HD
ENDROOT
BRANCH   1   4
ATOM      4  C   UNL     1       0.010   1.149  -0.004  0.00  0.00    +0.017 C 
ATOM      5  C   UNL     1       0.264  -0.224   0.621  0.00  0.00    -0.004 C 
BRANCH   4   6
ATOM      6  C   UNL     1      -0.469   2.104   1.059  0.00  0.00    +0.203 C 
ATOM      7  O   UNL     1       0.273   2.970   1.475  0.00  0.00    -0.277 OA
ATOM      8  N   UNL     1      -1.720   1.997   1.547  0.00  0.00    -0.287 N 
ATOM      9  H   UNL     1      -2.416   1.260   1.119  0.00  0.00    +0.155 HD
BRANCH   8  10
ATOM     10  C   UNL     1      -2.135   2.824   2.599  0.00  0.00    +0.035 A 
ATOM     11  C   UNL     1      -3.009   2.337   3.562  0.00  0.00    +0.027 A 
ATOM     12  C   UNL     1      -3.414   3.151   4.602  0.00  0.00    +0.049 A 
ATOM     13  C   UNL     1      -2.957   4.458   4.679  0.00  0.00    +0.145 A 
ATOM     14  C   UNL     1      -2.087   4.947   3.714  0.00  0.00    +0.084 A 
ATOM     15  C   UNL     1      -1.677   4.132   2.676  0.00  0.00    +0.047 A 
ATOM     16 CL   UNL     1      -1.515   6.583   3.811  0.00  0.00    -0.080 Cl
BRANCH  13  17
ATOM     17  O   UNL     1      -3.360   5.260   5.700  0.00  0.00    -0.433 OA
BRANCH  17  18
ATOM     18  C   UNL     1      -4.256   4.691   6.657  0.00  0.00    +0.541 C 
ATOM     19  F   UNL     1      -5.429   4.283   6.013  0.00  0.00    -0.166 F 
ATOM     20  F   UNL     1      -3.649   3.586   7.264  0.00  0.00    -0.166 F 
ENDBRANCH  17  18
ENDBRANCH  13  17
ENDBRANCH   8  10
ENDBRANCH   4   6
ENDBRANCH   1   4
BRANCH   1  21
ATOM     21  C   UNL     1       2.375   1.530   0.352  0.00  0.00    +0.020 C 
BRANCH  21  35
ATOM     22  C   UNL     1       6.886   2.007  -0.575  0.00  0.00    +0.029 C 
ATOM     23  C   UNL     1       5.892   3.013   0.011  0.00  0.00    +0.087 C 
ATOM     24  C   UNL     1       6.559   3.788   1.153  0.00  0.00    +0.118 C 
ATOM     25  C   UNL     1       5.517   4.476   1.995  0.00  0.00    +0.219 C 
ATOM     26  O   UNL     1       5.352   5.673   1.890  0.00  0.00    -0.275 OA
ATOM     27  N   UNL     1       4.765   3.769   2.865  0.00  0.00    -0.284 N 
ATOM     28  C   UNL     1       4.875   2.375   2.930  0.00  0.00    +0.055 A 
ATOM     29  C   UNL     1       5.006   1.729   4.148  0.00  0.00    +0.025 A 
ATOM     30  C   UNL     1       5.058   0.348   4.192  0.00  0.00    +0.002 A 
ATOM     31  C   UNL     1       4.981  -0.390   3.024  0.00  0.00    +0.002 A 
ATOM     32  C   UNL     1       4.862   0.248   1.803  0.00  0.00    +0.025 A 
ATOM     33  C   UNL     1       4.818   1.632   1.750  0.00  0.00    +0.058 A 
ATOM     34  N   UNL     1       4.720   2.298   0.520  0.00  0.00    -0.268 N 
ATOM     35  C   UNL     1       3.571   2.275  -0.183  0.00  0.00    +0.204 C 
ATOM     36  O   UNL     1       3.499   2.855  -1.246  0.00  0.00    -0.277 OA
ATOM     37  H   UNL     1       4.058   4.288   3.530  0.00  0.00    +0.155 HD
ENDBRANCH  21  35
ENDBRANCH   1  21
TORSDOF 7
