REMARK  Name = ZINC36569702
REMARK  10 active torsions:
REMARK  status: ('A' for Active; 'I' for Inactive)
REMARK    1  A    between atoms: C_1  and  O_2
REMARK    2  A    between atoms: O_2  and  C_3
REMARK    3  A    between atoms: C_3  and  C_5
REMARK    4  A    between atoms: C_5  and  C_6
REMARK    5  A    between atoms: C_6  and  C_7
REMARK    6  A    between atoms: C_7  and  C_9
REMARK    7  A    between atoms: C_7  and  N_13
REMARK    8  A    between atoms: C_9  and  O_11
REMARK    9  A    between atoms: O_11  and  C_12
REMARK   10  A    between atoms: C_25  and  C_27
REMARK                            x       y       z     vdW  Elec       q    Type
REMARK                         _______ _______ _______ _____ _____    ______ ____
ROOT
ATOM      1  N   UNL     1       0.767  -6.540  -1.700  0.00  0.00    -0.286 N 
ATOM      2  C   UNL     1      -0.228  -5.808  -2.237  0.00  0.00    +0.304 C 
ATOM      3  O   UNL     1      -0.035  -4.645  -2.536  0.00  0.00    -0.253 OA
ATOM      4  N   UNL     1      -1.438  -6.364  -2.443  0.00  0.00    -0.273 N 
ATOM      5  C   UNL     1      -2.501  -5.621  -3.136  0.00  0.00    +0.116 C 
ATOM      6  C   UNL     1      -2.837  -6.335  -4.452  0.00  0.00    +0.074 C 
ATOM      7  C   UNL     1      -2.948  -7.813  -4.187  0.00  0.00    +0.040 A 
ATOM      8  C   UNL     1      -2.456  -8.441  -3.097  0.00  0.00    +0.062 A 
ATOM      9  N   UNL     1      -2.736  -9.742  -3.205  0.00  0.00    -0.348 N 
ATOM     10  C   UNL     1      -3.387  -9.948  -4.321  0.00  0.00    +0.171 A 
ATOM     11  N   UNL     1      -3.539  -8.766  -4.961  0.00  0.00    -0.349 N 
ATOM     12  H   UNL     1      -3.985  -8.623  -5.810  0.00  0.00    +0.166 HD
ATOM     13  C   UNL     1      -1.726  -7.735  -1.984  0.00  0.00    +0.158 C 
ATOM     14  H   UNL     1       0.593  -7.442  -1.389  0.00  0.00    +0.151 HD
ATOM     15  H   UNL     1      -2.495 -10.424  -2.560  0.00  0.00    +0.167 HD
ENDROOT
BRANCH  13  16
ATOM     16  C   UNL     1      -2.595  -7.692  -0.754  0.00  0.00    -0.001 A 
ATOM     17  C   UNL     1      -3.869  -7.159  -0.825  0.00  0.00    +0.007 A 
ATOM     18  C   UNL     1      -4.667  -7.119   0.303  0.00  0.00    +0.002 A 
ATOM     19  C   UNL     1      -4.192  -7.612   1.504  0.00  0.00    +0.021 A 
ATOM     20  C   UNL     1      -2.918  -8.147   1.577  0.00  0.00    +0.060 A 
ATOM     21  C   UNL     1      -2.121  -8.192   0.445  0.00  0.00    +0.065 A 
ATOM     22 CL   UNL     1      -0.525  -8.869   0.534  0.00  0.00    -0.082 Cl
ATOM     23 CL   UNL     1      -2.322  -8.766   3.085  0.00  0.00    -0.082 Cl
ENDBRANCH  13  16
BRANCH   1  24
ATOM     24  C   UNL     1       2.114  -5.973  -1.585  0.00  0.00    +0.184 C 
BRANCH  24  25
ATOM     25  C   UNL     1       2.214  -5.169  -0.315  0.00  0.00    +0.327 C 
ATOM     26  O   UNL     1       1.259  -5.078   0.420  0.00  0.00    -0.249 OA
BRANCH  25  27
ATOM     27  O   UNL     1       3.364  -4.553   0.001  0.00  0.00    -0.467 OA
ATOM     28  C   UNL     1       3.387  -3.808   1.220  0.00  0.00    +0.280 C 
ENDBRANCH  25  27
ENDBRANCH  24  25
BRANCH  24  29
ATOM     29  C   UNL     1       3.143  -7.105  -1.555  0.00  0.00    +0.045 C 
BRANCH  29  30
ATOM     30  C   UNL     1       3.127  -7.844  -2.894  0.00  0.00    +0.123 C 
BRANCH  30  31
ATOM     31  C   UNL     1       4.141  -8.959  -2.864  0.00  0.00    +0.307 C 
ATOM     32  O   UNL     1       4.807  -9.143  -1.873  0.00  0.00    -0.251 OA
BRANCH  31  34
ATOM     33  C   UNL     1       5.282 -10.784  -3.840  0.00  0.00    +0.280 C 
ATOM     34  O   UNL     1       4.303  -9.747  -3.938  0.00  0.00    -0.468 OA
ENDBRANCH  31  34
ENDBRANCH  30  31
ENDBRANCH  29  30
ENDBRANCH  24  29
ENDBRANCH   1  24
TORSDOF 8
