REMARK  Name = ZINC01638829
REMARK  11 active torsions:
REMARK  status: ('A' for Active; 'I' for Inactive)
REMARK    1  A    between atoms: C_1  and  C_2
REMARK    2  A    between atoms: C_2  and  C_38
REMARK    3  A    between atoms: C_6  and  C_17
REMARK    4  A    between atoms: C_11  and  C_15
REMARK    5  A    between atoms: C_11  and  C_16
REMARK    6  A    between atoms: C_17  and  C_18
REMARK    7  A    between atoms: C_18  and  C_20
REMARK    8  A    between atoms: C_18  and  C_26
REMARK    9  A    between atoms: C_29  and  O_34
REMARK   10  A    between atoms: C_30  and  O_33
REMARK   11  A    between atoms: C_31  and  O_32
REMARK                            x       y       z     vdW  Elec       q    Type
REMARK                         _______ _______ _______ _____ _____    ______ ____
ROOT
ATOM      1  C   UNL     1       0.247   3.769   1.924  0.00  0.00    +0.012 C 
ATOM      2  C   UNL     1       0.402   4.146   0.449  0.00  0.00    -0.021 C 
ATOM      3  C   UNL     1       1.666   3.496  -0.117  0.00  0.00    +0.081 C 
ATOM      4  C   UNL     1       1.551   1.994  -0.021  0.00  0.00    +0.113 C 
ATOM      5  C   UNL     1       0.352   1.389  -0.114  0.00  0.00    +0.041 C 
ATOM      6  C   UNL     1       0.256  -0.114  -0.046  0.00  0.00    +0.063 C 
ATOM      7  C   UNL     1       1.594  -0.735  -0.361  0.00  0.00    +0.041 C 
ATOM      8  C   UNL     1       2.721  -0.008  -0.240  0.00  0.00    +0.113 C 
ATOM      9  O   UNL     1       2.673   1.276   0.155  0.00  0.00    -0.464 OA
ATOM     10  C   UNL     1       4.069  -0.619  -0.539  0.00  0.00    +0.081 C 
ATOM     11  C   UNL     1       3.920  -1.687  -1.625  0.00  0.00    -0.021 C 
ATOM     12  C   UNL     1       2.931  -2.748  -1.131  0.00  0.00    +0.086 C 
ATOM     13  C   UNL     1       1.630  -2.078  -0.782  0.00  0.00    +0.164 C 
ATOM     14  O   UNL     1       0.594  -2.705  -0.865  0.00  0.00    -0.292 OA
ATOM     15  C   UNL     1       3.387  -1.045  -2.907  0.00  0.00    +0.012 C 
ATOM     16  C   UNL     1       5.279  -2.333  -1.900  0.00  0.00    +0.012 C 
ATOM     17  C   UNL     1      -0.833   2.132  -0.271  0.00  0.00    +0.164 C 
ATOM     18  O   UNL     1      -1.896   1.549  -0.354  0.00  0.00    -0.292 OA
ATOM     19  C   UNL     1      -0.806   3.635  -0.342  0.00  0.00    +0.086 C 
ATOM     20  C   UNL     1       0.502   5.667   0.316  0.00  0.00    +0.012 C 
ENDROOT
BRANCH   6  21
ATOM     21  C   UNL     1      -0.178  -0.531   1.361  0.00  0.00    +0.026 C 
BRANCH  21  22
ATOM     22  C   UNL     1      -0.462  -2.035   1.382  0.00  0.00    +0.054 C 
BRANCH  22  23
ATOM     23  C   UNL     1      -1.664  -2.331   0.521  0.00  0.00    -0.040 A 
ATOM     24  C   UNL     1      -1.783  -3.560  -0.100  0.00  0.00    +0.004 A 
ATOM     25  C   UNL     1      -2.887  -3.833  -0.886  0.00  0.00    +0.000 A 
ATOM     26  C   UNL     1      -3.868  -2.874  -1.057  0.00  0.00    +0.000 A 
ATOM     27  C   UNL     1      -3.746  -1.643  -0.439  0.00  0.00    +0.000 A 
ATOM     28  C   UNL     1      -2.644  -1.371   0.350  0.00  0.00    +0.004 A 
ENDBRANCH  22  23
BRANCH  22  29
ATOM     29  C   UNL     1      -0.737  -2.474   2.797  0.00  0.00    +0.005 A 
ATOM     30  C   UNL     1      -1.729  -1.853   3.532  0.00  0.00    +0.011 A 
ATOM     31  C   UNL     1      -1.986  -2.253   4.830  0.00  0.00    +0.050 A 
ATOM     32  C   UNL     1      -1.248  -3.279   5.400  0.00  0.00    +0.162 A 
ATOM     33  C   UNL     1      -0.249  -3.906   4.664  0.00  0.00    +0.201 A 
ATOM     34  C   UNL     1       0.002  -3.505   3.357  0.00  0.00    +0.166 A 
BRANCH  34  35
ATOM     35  O   UNL     1       0.974  -4.119   2.631  0.00  0.00    -0.503 OA
ATOM     36  H   UNL     1       1.847  -3.711   2.718  0.00  0.00    +0.292 HD
ENDBRANCH  34  35
BRANCH  33  37
ATOM     37  O   UNL     1       0.477  -4.914   5.220  0.00  0.00    -0.501 OA
ATOM     38  H   UNL     1       0.099  -5.793   5.083  0.00  0.00    +0.292 HD
ENDBRANCH  33  37
BRANCH  32  39
ATOM     39  O   UNL     1      -1.500  -3.672   6.677  0.00  0.00    -0.503 OA
ATOM     40  H   UNL     1      -2.162  -4.373   6.750  0.00  0.00    +0.292 HD
ENDBRANCH  32  39
ENDBRANCH  22  29
ENDBRANCH  21  22
ENDBRANCH   6  21
TORSDOF 7
