REMARK  Name = ZINC13064390
REMARK  11 active torsions:
REMARK  status: ('A' for Active; 'I' for Inactive)
REMARK    1  A    between atoms: C_1  and  C_2
REMARK    2  A    between atoms: C_2  and  C_3
REMARK    3  A    between atoms: C_3  and  C_5
REMARK    4  A    between atoms: C_3  and  N_73
REMARK    5  A    between atoms: N_9  and  C_10
REMARK    6  A    between atoms: C_15  and  C_16
REMARK    7  A    between atoms: C_15  and  N_73
REMARK    8  A    between atoms: C_19  and  O_22
REMARK    9  A    between atoms: O_22  and  C_23
REMARK   10  A    between atoms: C_24  and  C_25
REMARK   11  A    between atoms: C_24  and  N_73
REMARK                            x       y       z     vdW  Elec       q    Type
REMARK                         _______ _______ _______ _____ _____    ______ ____
ROOT
ATOM      1  N   UNL     1      -1.622   2.276   1.136  0.00  0.00    +0.392 N 
ATOM      2  H   UNL     1      -0.857   2.793   1.585  0.00  0.00    -0.080 HD
ENDROOT
BRANCH   1   3
ATOM      3  C   UNL     1      -1.799   0.982   1.829  0.00  0.00    +0.003 C 
BRANCH   3   4
ATOM      4  C   UNL     1      -0.473   0.566   2.413  0.00  0.00    +0.138 A 
ATOM      5  N   UNL     1       0.714   0.834   1.927  0.00  0.00    -0.115 NA
ATOM      6  N   UNL     1       1.592   0.307   2.710  0.00  0.00    -0.023 NA
ATOM      7  N   UNL     1       0.995  -0.289   3.682  0.00  0.00    -0.044 NA
ATOM      8  N   UNL     1      -0.279  -0.148   3.537  0.00  0.00    -0.228 N 
BRANCH   8   9
ATOM      9  C   UNL     1      -1.319  -0.669   4.427  0.00  0.00    +0.111 C 
ATOM     10  C   UNL     1      -1.188  -0.029   5.825  0.00  0.00    +0.027 C 
ATOM     11  C   UNL     1      -1.544  -1.177   6.803  0.00  0.00    +0.002 C 
ATOM     12  C   UNL     1      -0.903  -2.414   6.126  0.00  0.00    +0.002 C 
ATOM     13  C   UNL     1      -1.138  -2.185   4.619  0.00  0.00    +0.027 C 
ENDBRANCH   8   9
ENDBRANCH   3   4
BRANCH   3  15
ATOM     14  C   UNL     1      -3.652   0.310   0.294  0.00  0.00    +0.002 C 
ATOM     15  C   UNL     1      -2.281  -0.086   0.846  0.00  0.00    -0.011 C 
ENDBRANCH   3  15
ENDBRANCH   1   3
BRANCH   1  16
ATOM     16  C   UNL     1      -1.278   2.047  -0.283  0.00  0.00    -0.042 C 
BRANCH  16  17
ATOM     17  C   UNL     1       0.128   1.511  -0.360  0.00  0.00    -0.064 A 
ATOM     18  C   UNL     1       1.196   2.327  -0.037  0.00  0.00    +0.005 A 
ATOM     19  C   UNL     1       2.487   1.839  -0.113  0.00  0.00    +0.046 A 
ATOM     20  C   UNL     1       2.710   0.530  -0.514  0.00  0.00    +0.120 A 
ATOM     21  C   UNL     1       1.637  -0.286  -0.838  0.00  0.00    +0.046 A 
ATOM     22  C   UNL     1       0.348   0.205  -0.760  0.00  0.00    +0.005 A 
BRANCH  20  23
ATOM     23  O   UNL     1       3.979   0.048  -0.589  0.00  0.00    -0.495 OA
ATOM     24  C   UNL     1       5.035   0.945  -0.241  0.00  0.00    +0.277 C 
ENDBRANCH  20  23
ENDBRANCH  16  17
ENDBRANCH   1  16
BRANCH   1  25
ATOM     25  C   UNL     1      -2.862   3.075   1.233  0.00  0.00    -0.036 C 
BRANCH  25  26
ATOM     26  C   UNL     1      -2.962   3.645   2.624  0.00  0.00    +0.001 A 
ATOM     27  C   UNL     1      -2.451   4.875   2.889  0.00  0.00    +0.017 A 
ATOM     28  C   UNL     1      -2.569   5.403   4.247  0.00  0.00    +0.002 A 
ATOM     29  C   UNL     1      -2.066   6.668   4.577  0.00  0.00    +0.059 A 
ATOM     30  C   UNL     1      -2.184   7.137   5.869  0.00  0.00    +0.163 A 
ATOM     31  C   UNL     1      -2.806   6.355   6.847  0.00  0.00    +0.164 A 
ATOM     32  C   UNL     1      -3.307   5.104   6.529  0.00  0.00    +0.075 A 
ATOM     33  C   UNL     1      -3.195   4.617   5.234  0.00  0.00    +0.053 A 
ATOM     34  N   UNL     1      -3.688   3.372   4.900  0.00  0.00    -0.322 N 
ATOM     35  H   UNL     1      -4.120   2.831   5.580  0.00  0.00    +0.169 HD
ATOM     36  C   UNL     1      -3.580   2.898   3.647  0.00  0.00    +0.251 A 
ATOM     37  O   UNL     1      -4.029   1.794   3.388  0.00  0.00    -0.268 OA
ATOM     38  O   UNL     1      -2.930   6.812   8.122  0.00  0.00    -0.485 OA
ATOM     39  C   UNL     1      -2.089   7.907   8.499  0.00  0.00    +0.270 C 
ATOM     40  C   UNL     1      -2.150   8.965   7.390  0.00  0.00    +0.270 C 
ATOM     41  O   UNL     1      -1.686   8.367   6.175  0.00  0.00    -0.485 OA
ENDBRANCH  25  26
ENDBRANCH   1  25
TORSDOF 9
