REMARK  Name = ZINC12402145
REMARK  12 active torsions:
REMARK  status: ('A' for Active; 'I' for Inactive)
REMARK    1  A    between atoms: C_1  and  C_2
REMARK    2  A    between atoms: C_2  and  C_22
REMARK    3  A    between atoms: C_4  and  N_11
REMARK    4  A    between atoms: C_7  and  C_9
REMARK    5  A    between atoms: C_7  and  C_10
REMARK    6  A    between atoms: N_11  and  C_12
REMARK    7  A    between atoms: C_12  and  N_14
REMARK    8  A    between atoms: N_14  and  C_15
REMARK    9  A    between atoms: C_22  and  N_23
REMARK   10  A    between atoms: N_23  and  C_24
REMARK   11  A    between atoms: C_24  and  N_26
REMARK   12  A    between atoms: N_26  and  C_27
REMARK                            x       y       z     vdW  Elec       q    Type
REMARK                         _______ _______ _______ _____ _____    ______ ____
ROOT
ATOM      1  C   UNL     1       0.192   0.750   1.224  0.00  0.00    +0.013 C 
ATOM      2  C   UNL     1       0.306  -0.641   0.592  0.00  0.00    -0.014 C 
ATOM      3  C   UNL     1       1.141  -0.567  -0.681  0.00  0.00    +0.030 C 
ATOM      4  C   UNL     1       2.617  -0.355  -0.351  0.00  0.00    +0.073 C 
ATOM      5  C   UNL     1       3.115  -1.544   0.468  0.00  0.00    +0.028 C 
ATOM      6  C   UNL     1       2.352  -1.652   1.783  0.00  0.00    -0.033 C 
ATOM      7  C   UNL     1       0.848  -1.651   1.587  0.00  0.00    +0.014 C 
ATOM      8  C   UNL     1       2.745  -2.993   2.442  0.00  0.00    +0.011 C 
ATOM      9  C   UNL     1       2.786  -0.533   2.734  0.00  0.00    +0.011 C 
ENDROOT
BRANCH   4  10
ATOM     10  N   UNL     1       3.383  -0.278  -1.602  0.00  0.00    -0.323 N 
ATOM     11  H   UNL     1       3.043  -0.703  -2.406  0.00  0.00    +0.148 HD
BRANCH  10  12
ATOM     12  C   UNL     1       4.557   0.382  -1.634  0.00  0.00    +0.135 C 
ATOM     13  S   UNL     1       5.157   1.131  -0.216  0.00  0.00    -0.019 S 
BRANCH  12  14
ATOM     14  N   UNL     1       5.260   0.452  -2.782  0.00  0.00    -0.296 N 
ATOM     15  H   UNL     1       4.935   0.003  -3.578  0.00  0.00    +0.154 HD
BRANCH  14  16
ATOM     16  C   UNL     1       6.459   1.173  -2.825  0.00  0.00    +0.051 A 
ATOM     17  C   UNL     1       6.569   2.382  -2.151  0.00  0.00    +0.025 A 
ATOM     18  C   UNL     1       7.753   3.091  -2.196  0.00  0.00    +0.002 A 
ATOM     19  C   UNL     1       8.829   2.600  -2.912  0.00  0.00    +0.002 A 
ATOM     20  C   UNL     1       8.723   1.397  -3.586  0.00  0.00    +0.022 A 
ATOM     21  C   UNL     1       7.543   0.679  -3.540  0.00  0.00    +0.062 A 
ATOM     22 CL   UNL     1       7.414  -0.835  -4.380  0.00  0.00    -0.082 Cl
ENDBRANCH  14  16
ENDBRANCH  12  14
ENDBRANCH  10  12
ENDBRANCH   4  10
BRANCH   2  23
ATOM     23  C   UNL     1      -1.119  -1.082   0.193  0.00  0.00    +0.110 C 
BRANCH  23  24
ATOM     24  N   UNL     1      -1.676  -0.126  -0.767  0.00  0.00    -0.326 N 
ATOM     25  H   UNL     1      -1.151   0.640  -1.048  0.00  0.00    +0.148 HD
BRANCH  24  26
ATOM     26  C   UNL     1      -2.917  -0.309  -1.258  0.00  0.00    +0.135 C 
ATOM     27  S   UNL     1      -3.844  -1.660  -0.761  0.00  0.00    -0.019 S 
BRANCH  26  28
ATOM     28  N   UNL     1      -3.429   0.571  -2.141  0.00  0.00    -0.296 N 
ATOM     29  H   UNL     1      -2.884   1.304  -2.467  0.00  0.00    +0.154 HD
BRANCH  28  30
ATOM     30  C   UNL     1      -4.748   0.428  -2.587  0.00  0.00    +0.051 A 
ATOM     31  C   UNL     1      -5.743   0.033  -1.703  0.00  0.00    +0.025 A 
ATOM     32  C   UNL     1      -7.043  -0.108  -2.146  0.00  0.00    +0.002 A 
ATOM     33  C   UNL     1      -7.356   0.143  -3.470  0.00  0.00    +0.002 A 
ATOM     34  C   UNL     1      -6.368   0.537  -4.354  0.00  0.00    +0.022 A 
ATOM     35  C   UNL     1      -5.066   0.686  -3.915  0.00  0.00    +0.062 A 
ATOM     36 CL   UNL     1      -3.827   1.187  -5.024  0.00  0.00    -0.082 Cl
ENDBRANCH  28  30
ENDBRANCH  26  28
ENDBRANCH  24  26
ENDBRANCH  23  24
ENDBRANCH   2  23
TORSDOF 9
