REMARK  Name = ZINC12073088
REMARK  11 active torsions:
REMARK  status: ('A' for Active; 'I' for Inactive)
REMARK    1  A    between atoms: C_1  and  C_2
REMARK    2  A    between atoms: C_5  and  N_8
REMARK    3  A    between atoms: C_13  and  N_60
REMARK    4  A    between atoms: C_16  and  C_18
REMARK    5  A    between atoms: C_16  and  C_19
REMARK    6  A    between atoms: C_20  and  C_21
REMARK    7  A    between atoms: C_20  and  N_60
REMARK    8  A    between atoms: C_24  and  O_27
REMARK    9  A    between atoms: O_27  and  C_28
REMARK   10  A    between atoms: C_28  and  C_29
REMARK   11  A    between atoms: C_29  and  O_30
REMARK                            x       y       z     vdW  Elec       q    Type
REMARK                         _______ _______ _______ _____ _____    ______ ____
ROOT
ATOM      1  N   UNL     1       2.354   3.344  -3.975  0.00  0.00    -0.237 N 
ATOM      2  C   UNL     1       1.377   2.421  -4.046  0.00  0.00    +0.047 A 
ATOM      3  C   UNL     1       1.104   2.008  -2.782  0.00  0.00    -0.020 A 
ATOM      4  C   UNL     1       1.945   2.699  -1.912  0.00  0.00    +0.137 A 
ATOM      5  N   UNL     1       2.697   3.502  -2.624  0.00  0.00    -0.174 NA
ATOM      6  C   UNL     1       0.060   0.975  -2.437  0.00  0.00    -0.037 C 
ATOM      7  C   UNL     1      -0.874   0.809  -3.642  0.00  0.00    -0.005 C 
ATOM      8  C   UNL     1      -0.041   0.596  -4.909  0.00  0.00    -0.031 C 
ATOM      9  C   UNL     1       0.677   1.901  -5.276  0.00  0.00    +0.062 C 
ATOM     10  C   UNL     1      -0.959   0.178  -6.059  0.00  0.00    +0.011 C 
ATOM     11  C   UNL     1       0.995  -0.502  -4.659  0.00  0.00    +0.011 C 
ENDROOT
BRANCH   1  16
ATOM     12  C   UNL     1       4.675   6.099  -8.361  0.00  0.00    +0.044 C 
ATOM     13  C   UNL     1       4.059   5.368  -7.196  0.00  0.00    -0.050 A 
ATOM     14  C   UNL     1       2.691   5.169  -7.153  0.00  0.00    +0.005 A 
ATOM     15  C   UNL     1       2.124   4.498  -6.087  0.00  0.00    +0.028 A 
ATOM     16  C   UNL     1       2.928   4.025  -5.059  0.00  0.00    +0.066 A 
ATOM     17  C   UNL     1       4.300   4.231  -5.103  0.00  0.00    +0.028 A 
ATOM     18  C   UNL     1       4.862   4.897  -6.174  0.00  0.00    +0.005 A 
ENDBRANCH   1  16
BRANCH   6  19
ATOM     19  N   UNL     1      -0.722   1.428  -1.271  0.00  0.00    +0.386 N 
ATOM     20  H   UNL     1      -1.647   0.985  -1.291  0.00  0.00    -0.085 HD
ATOM     21  H   UNL     1      -0.830   2.448  -1.311  0.00  0.00    -0.085 HD
BRANCH  19  22
ATOM     22  C   UNL     1      -0.033   1.060  -0.019  0.00  0.00    -0.046 C 
BRANCH  22  23
ATOM     23  C   UNL     1      -0.854   1.535   1.153  0.00  0.00    -0.064 A 
ATOM     24  C   UNL     1      -0.641   2.796   1.679  0.00  0.00    +0.005 A 
ATOM     25  C   UNL     1      -1.395   3.235   2.749  0.00  0.00    +0.046 A 
ATOM     26  C   UNL     1      -2.359   2.406   3.304  0.00  0.00    +0.121 A 
ATOM     27  C   UNL     1      -2.567   1.139   2.778  0.00  0.00    +0.046 A 
ATOM     28  C   UNL     1      -1.814   0.706   1.704  0.00  0.00    +0.005 A 
BRANCH  26  29
ATOM     29  O   UNL     1      -3.099   2.834   4.361  0.00  0.00    -0.490 OA
BRANCH  29  30
ATOM     30  C   UNL     1      -2.831   4.149   4.850  0.00  0.00    +0.256 C 
BRANCH  30  31
ATOM     31  C   UNL     1      -3.755   4.452   6.031  0.00  0.00    +0.196 C 
BRANCH  31  32
ATOM     32  O   UNL     1      -3.444   3.575   7.116  0.00  0.00    -0.392 OA
ATOM     33  H   UNL     1      -3.992   3.710   7.901  0.00  0.00    +0.210 HD
ENDBRANCH  31  32
ENDBRANCH  30  31
ENDBRANCH  29  30
ENDBRANCH  26  29
ENDBRANCH  22  23
ENDBRANCH  19  22
ENDBRANCH   6  19
TORSDOF 8
