REMARK  Name = ZINC22859894
REMARK  10 active torsions:
REMARK  status: ('A' for Active; 'I' for Inactive)
REMARK    1  A    between atoms: C_1  and  O_2
REMARK    2  A    between atoms: O_2  and  C_3
REMARK    3  A    between atoms: N_12  and  C_13
REMARK    4  A    between atoms: C_13  and  C_15
REMARK    5  A    between atoms: C_15  and  S_16
REMARK    6  A    between atoms: S_16  and  C_17
REMARK    7  A    between atoms: C_20  and  C_29
REMARK    8  A    between atoms: N_21  and  C_22
REMARK    9  A    between atoms: C_22  and  C_23
REMARK   10  A    between atoms: C_29  and  N_30
REMARK                            x       y       z     vdW  Elec       q    Type
REMARK                         _______ _______ _______ _____ _____    ______ ____
ROOT
ATOM      1  C   UNL     1       4.981  -6.102  -9.664  0.00  0.00    +0.192 A 
ATOM      2  N   UNL     1       4.854  -7.395  -9.473  0.00  0.00    -0.123 NA
ATOM      3  N   UNL     1       5.309  -8.033 -10.492  0.00  0.00    -0.135 NA
ATOM      4  C   UNL     1       5.748  -7.193 -11.386  0.00  0.00    +0.118 A 
ATOM      5  N   UNL     1       5.549  -5.933 -10.893  0.00  0.00    -0.303 N 
ENDROOT
BRANCH   1   6
ATOM      6  S   UNL     1       4.500  -4.827  -8.547  0.00  0.00    -0.077 S 
BRANCH   6   7
ATOM      7  C   UNL     1       3.823  -5.722  -7.122  0.00  0.00    +0.175 C 
BRANCH   7   8
ATOM      8  C   UNL     1       3.369  -4.735  -6.078  0.00  0.00    +0.249 C 
ATOM      9  O   UNL     1       3.490  -3.542  -6.276  0.00  0.00    -0.273 OA
BRANCH   8  19
ATOM     10  C   UNL     1       0.568  -1.021  -0.880  0.00  0.00    +0.121 A 
ATOM     11  C   UNL     1       1.153  -0.234  -1.864  0.00  0.00    +0.048 A 
ATOM     12  C   UNL     1       1.772  -0.802  -2.953  0.00  0.00    +0.030 A 
ATOM     13  C   UNL     1       1.828  -2.195  -3.098  0.00  0.00    +0.055 A 
ATOM     14  C   UNL     1       1.231  -2.967  -2.092  0.00  0.00    +0.042 A 
ATOM     15  C   UNL     1       0.617  -2.403  -0.999  0.00  0.00    +0.062 A 
ATOM     16  S   UNL     1       1.514  -4.630  -2.638  0.00  0.00    -0.052 S 
ATOM     17  C   UNL     1       2.344  -4.299  -4.061  0.00  0.00    +0.164 A 
ATOM     18  N   UNL     1       2.399  -2.945  -4.112  0.00  0.00    -0.335 N 
ATOM     19  N   UNL     1       2.836  -5.169  -4.941  0.00  0.00    -0.156 NA
ATOM     20  H   UNL     1       2.838  -2.503  -4.855  0.00  0.00    +0.168 HD
BRANCH  10  22
ATOM     21  C   UNL     1      -0.048   0.984   0.240  0.00  0.00    +0.277 C 
ATOM     22  O   UNL     1      -0.040  -0.444   0.191  0.00  0.00    -0.495 OA
ENDBRANCH  10  22
ENDBRANCH   8  19
ENDBRANCH   7   8
ENDBRANCH   6   7
ENDBRANCH   1   6
BRANCH   5  23
ATOM     23  C   UNL     1       5.881  -4.665 -11.547  0.00  0.00    +0.160 C 
BRANCH  23  24
ATOM     24  C   UNL     1       7.235  -4.197 -11.078  0.00  0.00    -0.028 A 
ATOM     25  C   UNL     1       7.337  -3.388  -9.961  0.00  0.00    +0.005 A 
ATOM     26  C   UNL     1       8.578  -2.958  -9.530  0.00  0.00    +0.000 A 
ATOM     27  C   UNL     1       9.717  -3.338 -10.216  0.00  0.00    +0.000 A 
ATOM     28  C   UNL     1       9.615  -4.148 -11.331  0.00  0.00    +0.000 A 
ATOM     29  C   UNL     1       8.374  -4.581 -11.760  0.00  0.00    +0.005 A 
ENDBRANCH  23  24
ENDBRANCH   5  23
BRANCH   4  30
ATOM     30  C   UNL     1       6.356  -7.545 -12.719  0.00  0.00    -0.001 C 
BRANCH  30  31
ATOM     31  N   UNL     1       7.784  -7.841 -12.543  0.00  0.00    +0.384 N 
ATOM     32  C   UNL     1       7.955  -9.114 -11.797  0.00  0.00    -0.078 C 
ATOM     33  C   UNL     1       9.388  -9.560 -12.180  0.00  0.00    -0.020 C 
ATOM     34  C   UNL     1       9.492  -9.151 -13.667  0.00  0.00    -0.020 C 
ATOM     35  C   UNL     1       8.427  -8.056 -13.858  0.00  0.00    -0.078 C 
ATOM     36  H   UNL     1       8.239  -7.086 -12.052  0.00  0.00    -0.081 HD
ENDBRANCH  30  31
ENDBRANCH   4  30
TORSDOF 9
