REMARK  Name = ZINC39665855
REMARK  11 active torsions:
REMARK  status: ('A' for Active; 'I' for Inactive)
REMARK    1  A    between atoms: C_1  and  C_2
REMARK    2  A    between atoms: C_5  and  C_8
REMARK    3  A    between atoms: C_8  and  C_9
REMARK    4  A    between atoms: C_13  and  C_22
REMARK    5  A    between atoms: N_24  and  C_25
REMARK    6  A    between atoms: C_25  and  C_26
REMARK    7  A    between atoms: C_26  and  C_28
REMARK    8  A    between atoms: C_26  and  O_29
REMARK    9  A    between atoms: O_29  and  C_30
REMARK   10  A    between atoms: C_33  and  O_36
REMARK   11  A    between atoms: O_36  and  C_37
REMARK                            x       y       z     vdW  Elec       q    Type
REMARK                         _______ _______ _______ _____ _____    ______ ____
ROOT
ATOM      1  C   UNL     1      -0.576  -4.501  -0.036  0.00  0.00    +0.220 C 
ATOM      2  O   UNL     1       0.183  -3.580   0.183  0.00  0.00    -0.275 OA
ATOM      3  N   UNL     1      -0.148  -5.772   0.099  0.00  0.00    -0.300 N 
ATOM      4  C   UNL     1      -0.918  -7.018  -0.128  0.00  0.00    +0.121 C 
ATOM      5  C   UNL     1       0.083  -7.977  -0.811  0.00  0.00    +0.100 C 
ATOM      6  C   UNL     1       1.470  -7.462  -0.388  0.00  0.00    -0.004 C 
ATOM      7  C   UNL     1       1.200  -6.240   0.502  0.00  0.00    +0.115 C 
ATOM      8  C   UNL     1       2.276  -7.046  -1.615  0.00  0.00    -0.010 C 
ATOM      9  C   UNL     1       3.670  -6.592  -1.174  0.00  0.00    -0.082 C 
ATOM     10  N   UNL     1       4.344  -7.689  -0.470  0.00  0.00    +0.379 N 
ATOM     11  C   UNL     1       3.612  -8.021   0.758  0.00  0.00    -0.082 C 
ATOM     12  C   UNL     1       2.215  -8.536   0.399  0.00  0.00    -0.010 C 
ATOM     13  H   UNL     1       4.378  -8.501  -1.069  0.00  0.00    -0.086 HD
ATOM     14  H   UNL     1       5.284  -7.409  -0.234  0.00  0.00    -0.086 HD
ENDROOT
BRANCH   5  15
ATOM     15  C   UNL     1      -0.068  -7.914  -2.309  0.00  0.00    +0.218 C 
ATOM     16  O   UNL     1      -0.448  -6.891  -2.837  0.00  0.00    -0.275 OA
ATOM     17  N   UNL     1       0.220  -8.995  -3.061  0.00  0.00    -0.312 N 
ATOM     18  H   UNL     1       0.524  -9.813  -2.638  0.00  0.00    +0.149 HD
BRANCH  17  19
ATOM     19  C   UNL     1       0.072  -8.934  -4.517  0.00  0.00    +0.148 C 
BRANCH  19  20
ATOM     20  C   UNL     1       0.460 -10.283  -5.126  0.00  0.00    +0.187 C 
ATOM     21  C   UNL     1       0.427 -10.182  -6.652  0.00  0.00    +0.053 C 
BRANCH  20  22
ATOM     22  O   UNL     1      -0.464 -11.283  -4.694  0.00  0.00    -0.488 OA
BRANCH  22  23
ATOM     23  C   UNL     1      -0.021 -12.569  -4.681  0.00  0.00    +0.121 A 
ATOM     24  C   UNL     1      -0.830 -13.576  -4.177  0.00  0.00    +0.049 A 
ATOM     25  C   UNL     1      -0.379 -14.882  -4.163  0.00  0.00    +0.049 A 
ATOM     26  C   UNL     1       0.882 -15.186  -4.654  0.00  0.00    +0.120 A 
ATOM     27  C   UNL     1       1.690 -14.178  -5.160  0.00  0.00    +0.049 A 
ATOM     28  C   UNL     1       1.238 -12.873  -5.177  0.00  0.00    +0.049 A 
BRANCH  26  29
ATOM     29  O   UNL     1       1.325 -16.471  -4.640  0.00  0.00    -0.495 OA
ATOM     30  C   UNL     1       2.634 -16.711  -5.162  0.00  0.00    +0.277 C 
ENDBRANCH  26  29
ENDBRANCH  22  23
ENDBRANCH  20  22
ENDBRANCH  19  20
ENDBRANCH  17  19
ENDBRANCH   5  15
BRANCH   1  31
ATOM     31  C   UNL     1      -1.995  -4.224  -0.458  0.00  0.00    +0.131 C 
BRANCH  31  36
ATOM     32  C   UNL     1      -2.844   1.485  -0.746  0.00  0.00    +0.044 C 
ATOM     33  C   UNL     1      -2.622  -0.004  -0.671  0.00  0.00    -0.050 A 
ATOM     34  C   UNL     1      -2.180  -0.694  -1.784  0.00  0.00    +0.003 A 
ATOM     35  C   UNL     1      -1.976  -2.060  -1.715  0.00  0.00    +0.004 A 
ATOM     36  C   UNL     1      -2.216  -2.735  -0.533  0.00  0.00    -0.039 A 
ATOM     37  C   UNL     1      -2.658  -2.045   0.580  0.00  0.00    +0.004 A 
ATOM     38  C   UNL     1      -2.857  -0.679   0.512  0.00  0.00    +0.003 A 
ENDBRANCH  31  36
ENDBRANCH   1  31
TORSDOF 8
