REMARK  Name = ZINC20753344
REMARK  3 active torsions:
REMARK  status: ('A' for Active; 'I' for Inactive)
REMARK    1  A    between atoms: C_1  and  O_2
REMARK    2  A    between atoms: O_2  and  C_3
REMARK    3  A    between atoms: C_16  and  C_19
REMARK                            x       y       z     vdW  Elec       q    Type
REMARK                         _______ _______ _______ _____ _____    ______ ____
ROOT
ATOM      1  C   UNL     1       2.380   1.433  -0.008  0.00  0.00    +0.120 A 
ATOM      2  C   UNL     1       1.163   2.100   0.002  0.00  0.00    +0.047 A 
ATOM      3  C   UNL     1      -0.017   1.385   0.010  0.00  0.00    +0.027 A 
ATOM      4  C   UNL     1       0.002  -0.004   0.002  0.00  0.00    +0.032 A 
ATOM      5  C   UNL     1       1.231  -0.671  -0.017  0.00  0.00    -0.016 A 
ATOM      6  C   UNL     1       2.408   0.047  -0.016  0.00  0.00    +0.051 A 
ATOM      7  C   UNL     1       1.205  -2.150  -0.047  0.00  0.00    +0.049 C 
ATOM      8  C   UNL     1       2.320  -2.995   0.480  0.00  0.00    -0.023 C 
ATOM      9  C   UNL     1       1.820  -4.121   0.974  0.00  0.00    -0.030 C 
ATOM     10  C   UNL     1       0.297  -4.126   0.825  0.00  0.00    +0.033 C 
ATOM     11  C   UNL     1      -0.015  -2.623   0.798  0.00  0.00    +0.029 C 
ATOM     12  C   UNL     1      -1.242  -2.185   0.018  0.00  0.00    +0.106 C 
ATOM     13  N   UNL     1      -1.212  -0.706   0.029  0.00  0.00    -0.336 N 
ATOM     14  H   UNL     1      -2.154  -0.137   0.058  0.00  0.00    +0.147 HD
ENDROOT
BRANCH  12  15
ATOM     15  C   UNL     1      -2.494  -2.686   0.692  0.00  0.00    -0.012 A 
ATOM     16  C   UNL     1      -2.908  -2.133   1.902  0.00  0.00    -0.012 A 
ATOM     17  C   UNL     1      -2.171  -1.100   2.522  0.00  0.00    +0.009 A 
ATOM     18  C   UNL     1      -2.602  -0.584   3.701  0.00  0.00    +0.001 A 
ATOM     19  C   UNL     1      -3.761  -1.048   4.324  0.00  0.00    +0.001 A 
ATOM     20  C   UNL     1      -4.522  -2.030   3.778  0.00  0.00    +0.008 A 
ATOM     21  C   UNL     1      -4.129  -2.616   2.555  0.00  0.00    -0.017 A 
ATOM     22  C   UNL     1      -4.877  -3.639   1.974  0.00  0.00    +0.017 A 
ATOM     23  C   UNL     1      -4.460  -4.196   0.767  0.00  0.00    -0.017 A 
ATOM     24  C   UNL     1      -3.241  -3.708   0.111  0.00  0.00    -0.012 A 
ATOM     25  C   UNL     1      -2.848  -4.295  -1.111  0.00  0.00    +0.009 A 
ATOM     26  C   UNL     1      -3.600  -5.288  -1.650  0.00  0.00    +0.001 A 
ATOM     27  C   UNL     1      -4.759  -5.752  -1.026  0.00  0.00    +0.001 A 
ATOM     28  C   UNL     1      -5.193  -5.232   0.150  0.00  0.00    +0.008 A 
ENDBRANCH  12  15
BRANCH   1  30
ATOM     29  C   UNL     1       3.438   3.563  -0.001  0.00  0.00    +0.277 C 
ATOM     30  O   UNL     1       3.543   2.138  -0.010  0.00  0.00    -0.495 OA
ENDBRANCH   1  30
TORSDOF 2
