REMARK  Name = ZINC02297583
REMARK  8 active torsions:
REMARK  status: ('A' for Active; 'I' for Inactive)
REMARK    1  A    between atoms: C_1  and  O_2
REMARK    2  A    between atoms: O_2  and  C_3
REMARK    3  A    between atoms: C_6  and  C_9
REMARK    4  A    between atoms: C_15  and  S_19
REMARK    5  A    between atoms: C_16  and  C_17
REMARK    6  A    between atoms: S_19  and  C_20
REMARK    7  A    between atoms: C_20  and  C_21
REMARK    8  A    between atoms: N_23  and  C_24
REMARK                            x       y       z     vdW  Elec       q    Type
REMARK                         _______ _______ _______ _____ _____    ______ ____
ROOT
ATOM      1  C   UNL     1      -4.963  -2.617   0.042  0.00  0.00    +0.070 C 
ATOM      2  C   UNL     1      -5.755  -2.204  -1.200  0.00  0.00    +0.109 C 
ATOM      3  C   UNL     1      -6.231  -0.783  -1.045  0.00  0.00    +0.218 C 
ATOM      4  O   UNL     1      -6.302  -0.062  -2.018  0.00  0.00    -0.275 OA
ATOM      5  N   UNL     1      -6.579  -0.308   0.165  0.00  0.00    -0.279 N 
ATOM      6  C   UNL     1      -6.500  -1.108   1.286  0.00  0.00    +0.082 C 
ATOM      7  C   UNL     1      -5.734  -2.234   1.279  0.00  0.00    +0.065 C 
ATOM      8  H   UNL     1      -6.888   0.607   0.251  0.00  0.00    +0.155 HD
ENDROOT
BRANCH   1  12
ATOM      9  C   UNL     1      -1.182  -0.625   0.048  0.00  0.00    +0.120 A 
ATOM     10  C   UNL     1      -2.356   0.113   0.065  0.00  0.00    +0.046 A 
ATOM     11  C   UNL     1      -3.577  -0.533   0.058  0.00  0.00    +0.008 A 
ATOM     12  C   UNL     1      -3.630  -1.914   0.044  0.00  0.00    -0.039 A 
ATOM     13  C   UNL     1      -2.461  -2.653   0.033  0.00  0.00    +0.008 A 
ATOM     14  C   UNL     1      -1.237  -2.011   0.035  0.00  0.00    +0.046 A 
BRANCH   9  16
ATOM     15  C   UNL     1       0.001   1.437   0.064  0.00  0.00    +0.277 C 
ATOM     16  O   UNL     1       0.020   0.008   0.050  0.00  0.00    -0.495 OA
ENDBRANCH   9  16
ENDBRANCH   1  12
BRANCH   7  17
ATOM     17  C   UNL     1      -5.662  -3.057   2.449  0.00  0.00    +0.098 C 
ATOM     18  N   UNL     1      -5.605  -3.709   3.377  0.00  0.00    -0.191 NA
ENDBRANCH   7  17
BRANCH   6  19
ATOM     19  S   UNL     1      -7.398  -0.671   2.737  0.00  0.00    -0.100 S 
BRANCH  19  20
ATOM     20  C   UNL     1      -8.194   0.852   2.167  0.00  0.00    +0.171 C 
BRANCH  20  21
ATOM     21  C   UNL     1      -9.040   1.422   3.277  0.00  0.00    +0.227 C 
ATOM     22  O   UNL     1      -9.099   0.854   4.347  0.00  0.00    -0.275 OA
ATOM     23  N   UNL     1      -9.731   2.562   3.079  0.00  0.00    -0.285 N 
ATOM     24  H   UNL     1      -9.631   3.052   2.248  0.00  0.00    +0.155 HD
BRANCH  23  25
ATOM     25  C   UNL     1     -10.591   3.040   4.074  0.00  0.00    +0.033 A 
ATOM     26  C   UNL     1     -11.769   3.687   3.723  0.00  0.00    +0.024 A 
ATOM     27  C   UNL     1     -12.620   4.151   4.707  0.00  0.00    +0.016 A 
ATOM     28  C   UNL     1     -12.293   3.984   6.041  0.00  0.00    +0.013 A 
ATOM     29  C   UNL     1     -11.118   3.345   6.393  0.00  0.00    +0.016 A 
ATOM     30  C   UNL     1     -10.267   2.873   5.414  0.00  0.00    +0.024 A 
ATOM     31  I   UNL     1     -13.582   4.698   7.530  0.00  0.00    -0.044 I 
ENDBRANCH  23  25
ENDBRANCH  20  21
ENDBRANCH  19  20
ENDBRANCH   6  19
TORSDOF 7
