REMARK  Name = ZINC02130564
REMARK  9 active torsions:
REMARK  status: ('A' for Active; 'I' for Inactive)
REMARK    1  A    between atoms: C_1  and  C_2
REMARK    2  A    between atoms: C_7  and  C_8
REMARK    3  A    between atoms: C_17  and  C_19
REMARK    4  A    between atoms: C_19  and  C_20
REMARK    5  A    between atoms: C_20  and  C_21
REMARK    6  A    between atoms: N_26  and  C_29
REMARK    7  A    between atoms: C_29  and  C_30
REMARK    8  A    between atoms: C_33  and  O_36
REMARK    9  A    between atoms: O_36  and  C_37
REMARK                            x       y       z     vdW  Elec       q    Type
REMARK                         _______ _______ _______ _____ _____    ______ ____
ROOT
ATOM      1  C   UNL     1       0.928   5.660   0.022  0.00  0.00    +0.044 C 
ATOM      2  C   UNL     1       0.596   4.190   0.019  0.00  0.00    -0.046 A 
ATOM      3  C   UNL     1      -0.725   3.782   0.030  0.00  0.00    +0.004 A 
ATOM      4  C   UNL     1      -1.030   2.433   0.030  0.00  0.00    +0.005 A 
ATOM      5  C   UNL     1      -0.018   1.498   0.010  0.00  0.00    -0.027 A 
ATOM      6  C   UNL     1       1.315   1.897  -0.000  0.00  0.00    +0.039 A 
ATOM      7  C   UNL     1       1.613   3.257   0.004  0.00  0.00    -0.026 A 
ATOM      8  C   UNL     1       3.049   3.712  -0.008  0.00  0.00    +0.046 C 
ATOM      9  N   UNL     1       2.153   0.779  -0.013  0.00  0.00    -0.286 N 
ATOM     10  C   UNL     1       1.460  -0.376  -0.010  0.00  0.00    +0.211 C 
ATOM     11  O   UNL     1       1.921  -1.497  -0.016  0.00  0.00    -0.277 OA
ATOM     12  C   UNL     1       0.002  -0.004   0.002  0.00  0.00    +0.050 C 
ATOM     13  C   UNL     1      -0.715  -0.585   1.226  0.00  0.00    +0.088 C 
ATOM     14  C   UNL     1      -1.409  -1.872   0.700  0.00  0.00    +0.073 C 
ATOM     15  C   UNL     1      -1.020  -1.949  -0.792  0.00  0.00    -0.057 C 
ATOM     16  C   UNL     1      -0.706  -2.979   1.454  0.00  0.00    +0.224 C 
ATOM     17  O   UNL     1      -0.943  -4.162   1.343  0.00  0.00    -0.275 OA
ATOM     18  N   UNL     1       0.220  -2.448   2.261  0.00  0.00    -0.237 N 
ATOM     19  C   UNL     1       0.301  -1.114   2.212  0.00  0.00    +0.225 C 
ATOM     20  O   UNL     1       1.070  -0.434   2.858  0.00  0.00    -0.275 OA
ATOM     21  H   UNL     1       3.122   0.829  -0.023  0.00  0.00    +0.155 HD
ATOM     22  N   UNL     1      -0.693  -0.566  -1.143  0.00  0.00    +0.394 N 
ATOM     23  H   UNL     1      -0.086  -0.544  -1.972  0.00  0.00    -0.083 HD
ATOM     24  H   UNL     1      -1.551  -0.035  -1.333  0.00  0.00    -0.083 HD
ENDROOT
BRANCH  15  25
ATOM     25  C   UNL     1      -2.193  -2.474  -1.622  0.00  0.00    -0.006 C 
BRANCH  25  26
ATOM     26  C   UNL     1      -1.771  -2.586  -3.088  0.00  0.00    +0.094 C 
BRANCH  26  27
ATOM     27  C   UNL     1      -2.927  -3.103  -3.905  0.00  0.00    +0.210 C 
ATOM     28  O   UNL     1      -3.984  -3.357  -3.368  0.00  0.00    -0.276 OA
ATOM     29  N   UNL     1      -2.786  -3.283  -5.234  0.00  0.00    -0.329 N 
ATOM     30  H   UNL     1      -1.940  -3.080  -5.663  0.00  0.00    +0.145 HD
ATOM     31  H   UNL     1      -3.530  -3.616  -5.760  0.00  0.00    +0.145 HD
ENDBRANCH  26  27
ENDBRANCH  25  26
ENDBRANCH  15  25
BRANCH  18  32
ATOM     32  C   UNL     1       1.075  -3.263   3.128  0.00  0.00    +0.151 C 
BRANCH  32  33
ATOM     33  C   UNL     1       2.332  -3.638   2.386  0.00  0.00    -0.029 A 
ATOM     34  C   UNL     1       2.373  -4.806   1.646  0.00  0.00    +0.009 A 
ATOM     35  C   UNL     1       3.522  -5.149   0.960  0.00  0.00    +0.046 A 
ATOM     36  C   UNL     1       4.638  -4.327   1.022  0.00  0.00    +0.120 A 
ATOM     37  C   UNL     1       4.595  -3.159   1.770  0.00  0.00    +0.046 A 
ATOM     38  C   UNL     1       3.442  -2.817   2.450  0.00  0.00    +0.009 A 
BRANCH  36  39
ATOM     39  O   UNL     1       5.771  -4.666   0.352  0.00  0.00    -0.495 OA
ATOM     40  C   UNL     1       5.742  -5.882  -0.397  0.00  0.00    +0.277 C 
ENDBRANCH  36  39
ENDBRANCH  32  33
ENDBRANCH  18  32
TORSDOF 6
