REMARK  Name = ZINC06149429
REMARK  13 active torsions:
REMARK  status: ('A' for Active; 'I' for Inactive)
REMARK    1  A    between atoms: C_1  and  C_2
REMARK    2  A    between atoms: C_2  and  C_3
REMARK    3  A    between atoms: C_3  and  C_4
REMARK    4  A    between atoms: C_3  and  C_5
REMARK    5  A    between atoms: C_3  and  N_6
REMARK    6  A    between atoms: C_7  and  C_11
REMARK    7  A    between atoms: C_11  and  C_13
REMARK    8  A    between atoms: C_11  and  N_69
REMARK    9  A    between atoms: C_17  and  C_25
REMARK   10  A    between atoms: C_26  and  C_27
REMARK   11  A    between atoms: C_26  and  N_69
REMARK   12  A    between atoms: C_34  and  C_35
REMARK   13  A    between atoms: C_34  and  N_69
REMARK                            x       y       z     vdW  Elec       q    Type
REMARK                         _______ _______ _______ _____ _____    ______ ____
ROOT
ATOM      1  C   UNL     1      -1.151  -0.316  -0.474  0.00  0.00    +0.040 C 
ENDROOT
BRANCH   1   2
ATOM      2  C   UNL     1      -0.363   0.927  -0.796  0.00  0.00    +0.011 A 
ATOM      3  C   UNL     1       0.944   0.827  -1.146  0.00  0.00    +0.017 A 
ATOM      4  C   UNL     1       1.681   2.054  -1.453  0.00  0.00    -0.001 A 
ATOM      5  C   UNL     1       3.031   2.014  -1.820  0.00  0.00    +0.013 A 
ATOM      6  C   UNL     1       3.691   3.177  -2.100  0.00  0.00    -0.050 A 
ATOM      7  C   UNL     1       3.035   4.398  -2.024  0.00  0.00    +0.005 A 
ATOM      8  C   UNL     1       1.706   4.461  -1.664  0.00  0.00    +0.026 A 
ATOM      9  C   UNL     1       1.013   3.290  -1.374  0.00  0.00    +0.049 A 
ATOM     10  N   UNL     1      -0.317   3.324  -1.013  0.00  0.00    -0.322 N 
ATOM     11  H   UNL     1      -0.791   4.203  -0.958  0.00  0.00    +0.169 HD
ATOM     12  C   UNL     1      -0.987   2.192  -0.733  0.00  0.00    +0.251 A 
ATOM     13  O   UNL     1      -2.163   2.259  -0.421  0.00  0.00    -0.268 OA
ATOM     14  C   UNL     1       5.144   3.134  -2.495  0.00  0.00    +0.044 C 
ENDBRANCH   1   2
BRANCH   1  16
ATOM     15  N   UNL     1      -1.116  -1.058   1.966  0.00  0.00    -0.225 N 
ATOM     16  C   UNL     1      -1.579  -0.279   0.971  0.00  0.00    +0.143 A 
ATOM     17  N   UNL     1      -2.469   0.522   1.503  0.00  0.00    -0.115 NA
ATOM     18  N   UNL     1      -2.555   0.244   2.758  0.00  0.00    -0.023 NA
ATOM     19  N   UNL     1      -1.737  -0.709   3.042  0.00  0.00    -0.043 NA
BRANCH  15  20
ATOM     20  C   UNL     1      -0.099  -2.106   1.849  0.00  0.00    +0.061 C 
ATOM     21  C   UNL     1      -0.609  -3.212   0.924  0.00  0.00    +0.036 C 
ATOM     22  C   UNL     1       1.185  -1.508   1.270  0.00  0.00    +0.036 C 
BRANCH  20  24
ATOM     23  C   UNL     1       1.253  -3.785   3.111  0.00  0.00    +0.006 C 
ATOM     24  C   UNL     1       0.191  -2.691   3.233  0.00  0.00    +0.026 C 
ENDBRANCH  20  24
ENDBRANCH  15  20
ENDBRANCH   1  16
BRANCH   1  25
ATOM     25  N   UNL     1      -2.357  -0.358  -1.327  0.00  0.00    +0.397 N 
ATOM     26  H   UNL     1      -2.995   0.395  -1.041  0.00  0.00    -0.079 HD
BRANCH  25  27
ATOM     27  C   UNL     1      -1.982  -0.157  -2.743  0.00  0.00    -0.041 C 
BRANCH  27  28
ATOM     28  C   UNL     1      -3.222   0.185  -3.528  0.00  0.00    -0.064 A 
ATOM     29  C   UNL     1      -3.944  -0.815  -4.152  0.00  0.00    +0.003 A 
ATOM     30  C   UNL     1      -5.084  -0.502  -4.867  0.00  0.00    +0.020 A 
ATOM     31  C   UNL     1      -5.497   0.815  -4.968  0.00  0.00    +0.041 A 
ATOM     32  C   UNL     1      -4.772   1.816  -4.348  0.00  0.00    +0.020 A 
ATOM     33  C   UNL     1      -3.635   1.501  -3.628  0.00  0.00    +0.003 A 
ATOM     34 CL   UNL     1      -6.926   1.209  -5.872  0.00  0.00    -0.084 Cl
ENDBRANCH  27  28
ENDBRANCH  25  27
BRANCH  25  35
ATOM     35  C   UNL     1      -3.045  -1.656  -1.166  0.00  0.00    -0.001 C 
BRANCH  35  36
ATOM     36  C   UNL     1      -3.842  -1.624   0.113  0.00  0.00    +0.089 A 
ATOM     37  C   UNL     1      -5.065  -1.085   0.264  0.00  0.00    +0.042 A 
ATOM     38  C   UNL     1      -5.433  -1.277   1.616  0.00  0.00    +0.041 A 
ATOM     39  C   UNL     1      -4.412  -1.921   2.210  0.00  0.00    +0.195 A 
ATOM     40  O   UNL     1      -3.454  -2.134   1.293  0.00  0.00    -0.470 OA
ENDBRANCH  35  36
ENDBRANCH  25  35
ENDBRANCH   1  25
TORSDOF 9
