REMARK  Name = ZINC09345269
REMARK  6 active torsions:
REMARK  status: ('A' for Active; 'I' for Inactive)
REMARK    1  A    between atoms: C_1  and  O_2
REMARK    2  A    between atoms: O_2  and  C_3
REMARK    3  A    between atoms: C_7  and  C_11
REMARK    4  A    between atoms: C_8  and  O_9
REMARK    5  A    between atoms: O_9  and  C_10
REMARK    6  A    between atoms: C_29  and  C_31
REMARK                            x       y       z     vdW  Elec       q    Type
REMARK                         _______ _______ _______ _____ _____    ______ ____
ROOT
ATOM      1  C   UNL     1       2.310  -3.809  -2.031  0.00  0.00    +0.238 C 
ATOM      2  C   UNL     1       3.223  -4.314  -0.953  0.00  0.00    +0.028 C 
ATOM      3  C   UNL     1       4.531  -4.530  -1.206  0.00  0.00    +0.083 C 
ATOM      4  C   UNL     1       5.017  -4.259  -2.582  0.00  0.00    +0.044 A 
ATOM      5  C   UNL     1       6.371  -4.135  -2.862  0.00  0.00    +0.033 A 
ATOM      6  C   UNL     1       6.779  -3.881  -4.159  0.00  0.00    +0.042 A 
ATOM      7  C   UNL     1       5.842  -3.751  -5.171  0.00  0.00    +0.023 A 
ATOM      8  C   UNL     1       4.492  -3.874  -4.899  0.00  0.00    +0.048 A 
ATOM      9  C   UNL     1       4.070  -4.129  -3.606  0.00  0.00    +0.131 A 
ATOM     10  O   UNL     1       2.756  -4.262  -3.311  0.00  0.00    -0.479 OA
ATOM     11 CL   UNL     1       8.470  -3.724  -4.519  0.00  0.00    -0.084 Cl
ATOM     12  N   UNL     1       5.370  -4.979  -0.240  0.00  0.00    -0.216 NA
ATOM     13  C   UNL     1       5.000  -5.247   0.992  0.00  0.00    +0.209 C 
ATOM     14  N   UNL     1       5.699  -5.705   2.079  0.00  0.00    -0.275 N 
ATOM     15  C   UNL     1       4.825  -5.819   3.134  0.00  0.00    +0.208 C 
ATOM     16  N   UNL     1       3.643  -5.457   2.750  0.00  0.00    -0.169 NA
ATOM     17  N   UNL     1       3.709  -5.088   1.406  0.00  0.00    -0.182 N 
ATOM     18  C   UNL     1       2.713  -4.598   0.442  0.00  0.00    +0.163 C 
ATOM     19  H   UNL     1       6.646  -5.912   2.100  0.00  0.00    +0.156 HD
ENDROOT
BRANCH  18  20
ATOM     20  C   UNL     1       2.113  -3.329   0.990  0.00  0.00    -0.021 A 
ATOM     21  C   UNL     1       2.925  -2.245   1.268  0.00  0.00    +0.008 A 
ATOM     22  C   UNL     1       2.376  -1.080   1.770  0.00  0.00    +0.038 A 
ATOM     23  C   UNL     1       1.012  -0.999   1.995  0.00  0.00    +0.123 A 
ATOM     24  C   UNL     1       0.200  -2.086   1.716  0.00  0.00    +0.038 A 
ATOM     25  C   UNL     1       0.751  -3.247   1.209  0.00  0.00    +0.008 A 
ATOM     26  F   UNL     1       0.475   0.139   2.486  0.00  0.00    -0.205 F 
ENDBRANCH  18  20
BRANCH   1  31
ATOM     27  C   UNL     1       1.169  -0.230  -1.566  0.00  0.00    +0.162 A 
ATOM     28  C   UNL     1       2.292   0.469  -1.979  0.00  0.00    +0.049 A 
ATOM     29  C   UNL     1       3.414  -0.217  -2.405  0.00  0.00    +0.004 A 
ATOM     30  C   UNL     1       3.419  -1.599  -2.422  0.00  0.00    +0.011 A 
ATOM     31  C   UNL     1       2.301  -2.302  -2.012  0.00  0.00    +0.042 A 
ATOM     32  C   UNL     1       1.176  -1.621  -1.577  0.00  0.00    +0.168 A 
BRANCH  27  34
ATOM     33  C   UNL     1       0.130   1.871  -1.161  0.00  0.00    +0.277 C 
ATOM     34  O   UNL     1       0.065   0.444  -1.145  0.00  0.00    -0.491 OA
ENDBRANCH  27  34
BRANCH  32  35
ATOM     35  O   UNL     1       0.078  -2.311  -1.167  0.00  0.00    -0.491 OA
ATOM     36  C   UNL     1      -0.949  -2.532  -2.137  0.00  0.00    +0.277 C 
ENDBRANCH  32  35
ENDBRANCH   1  31
TORSDOF 4
