REMARK  Name = ZINC02256589
REMARK  4 active torsions:
REMARK  status: ('A' for Active; 'I' for Inactive)
REMARK    1  A    between atoms: C_1  and  S_2
REMARK    2  A    between atoms: S_2  and  C_3
REMARK    3  A    between atoms: C_9  and  C_13
REMARK    4  A    between atoms: C_20  and  C_30
REMARK                            x       y       z     vdW  Elec       q    Type
REMARK                         _______ _______ _______ _____ _____    ______ ____
ROOT
ATOM      1  C   UNL     1       0.943  -0.199   1.454  0.00  0.00    +0.174 C 
ATOM      2  N   UNL     1       1.388   0.638   2.369  0.00  0.00    -0.192 NA
ATOM      3  C   UNL     1       1.967  -0.037   3.379  0.00  0.00    +0.216 C 
ATOM      4  N   UNL     1       2.538   0.374   4.491  0.00  0.00    -0.326 N 
ATOM      5  C   UNL     1       3.080  -0.449   5.421  0.00  0.00    +0.058 C 
ATOM      6  C   UNL     1       3.079  -1.789   5.263  0.00  0.00    +0.025 C 
ATOM      7  C   UNL     1       2.443  -2.359   4.015  0.00  0.00    +0.162 C 
ATOM      8  N   UNL     1       1.881  -1.381   3.075  0.00  0.00    -0.209 N 
ATOM      9  N   UNL     1       1.220  -1.482   1.848  0.00  0.00    -0.239 N 
ATOM     10  C   UNL     1       3.701  -2.681   6.298  0.00  0.00    +0.235 C 
ATOM     11  O   UNL     1       3.585  -2.094   7.595  0.00  0.00    -0.479 OA
ATOM     12  C   UNL     1       3.925  -0.786   7.726  0.00  0.00    +0.131 A 
ATOM     13  C   UNL     1       3.692   0.093   6.661  0.00  0.00    +0.042 A 
ATOM     14  C   UNL     1       4.029   1.434   6.775  0.00  0.00    +0.033 A 
ATOM     15  C   UNL     1       4.598   1.897   7.948  0.00  0.00    +0.042 A 
ATOM     16  C   UNL     1       4.830   1.028   9.001  0.00  0.00    +0.023 A 
ATOM     17  C   UNL     1       4.496  -0.310   8.893  0.00  0.00    +0.048 A 
ATOM     18 CL   UNL     1       5.023   3.574   8.101  0.00  0.00    -0.084 Cl
ATOM     19  H   UNL     1       2.572   1.329   4.657  0.00  0.00    +0.169 HD
ATOM     20  H   UNL     1       1.002  -2.297   1.370  0.00  0.00    +0.172 HD
ENDROOT
BRANCH   7  21
ATOM     21  C   UNL     1       1.336  -3.291   4.436  0.00  0.00    +0.014 A 
ATOM     22  C   UNL     1       0.043  -2.818   4.560  0.00  0.00    +0.008 A 
ATOM     23  C   UNL     1      -0.972  -3.673   4.946  0.00  0.00    +0.001 A 
ATOM     24  C   UNL     1      -0.696  -5.002   5.208  0.00  0.00    +0.003 A 
ATOM     25  C   UNL     1       0.595  -5.477   5.085  0.00  0.00    +0.039 A 
ATOM     26  C   UNL     1       1.612  -4.623   4.693  0.00  0.00    +0.129 A 
ATOM     27  F   UNL     1       2.875  -5.088   4.567  0.00  0.00    -0.205 F 
ENDBRANCH   7  21
BRANCH  10  28
ATOM     28  C   UNL     1       5.160  -2.879   5.973  0.00  0.00    +0.015 A 
ATOM     29  C   UNL     1       5.844  -1.919   5.251  0.00  0.00    +0.009 A 
ATOM     30  C   UNL     1       7.181  -2.101   4.954  0.00  0.00    +0.000 A 
ATOM     31  C   UNL     1       7.836  -3.243   5.378  0.00  0.00    +0.001 A 
ATOM     32  C   UNL     1       7.152  -4.203   6.099  0.00  0.00    +0.020 A 
ATOM     33  C   UNL     1       5.815  -4.019   6.403  0.00  0.00    +0.048 A 
ATOM     34 CL   UNL     1       4.958  -5.222   7.315  0.00  0.00    -0.083 Cl
ENDBRANCH  10  28
BRANCH   1  36
ATOM     35  C   UNL     1       0.064   2.069   0.031  0.00  0.00    +0.093 C 
ATOM     36  S   UNL     1       0.119   0.257  -0.035  0.00  0.00    -0.092 S 
ENDBRANCH   1  36
TORSDOF 3
