REMARK  Name = ZINC63386447
REMARK  8 active torsions:
REMARK  status: ('A' for Active; 'I' for Inactive)
REMARK    1  A    between atoms: C_4  and  C_7
REMARK    2  A    between atoms: C_7  and  C_8
REMARK    3  A    between atoms: C_8  and  C_10
REMARK    4  A    between atoms: C_8  and  N_24
REMARK    5  A    between atoms: N_12  and  C_13
REMARK    6  A    between atoms: C_13  and  C_14
REMARK    7  A    between atoms: C_14  and  C_15
REMARK    8  A    between atoms: C_29  and  O_37
REMARK                            x       y       z     vdW  Elec       q    Type
REMARK                         _______ _______ _______ _____ _____    ______ ____
ROOT
ATOM      1  C   UNL     1       4.171  -0.963   1.399  0.00  0.00    +0.165 C 
ENDROOT
BRANCH   1   2
ATOM      2  N   UNL     1       4.451   0.315   2.057  0.00  0.00    -0.287 N 
ATOM      3  C   UNL     1       3.451   1.007   2.638  0.00  0.00    +0.308 C 
ATOM      4  O   UNL     1       2.316   0.570   2.616  0.00  0.00    -0.252 OA
ATOM      5  N   UNL     1       3.708   2.183   3.244  0.00  0.00    -0.245 N 
ATOM      6  C   UNL     1       5.069   2.745   3.285  0.00  0.00    +0.210 C 
ATOM      7  C   UNL     1       5.309   3.347   4.645  0.00  0.00    +0.206 C 
ATOM      8  N   UNL     1       4.337   3.803   5.368  0.00  0.00    -0.214 NA
ATOM      9  C   UNL     1       3.036   3.751   4.944  0.00  0.00    +0.089 A 
ATOM     10  C   UNL     1       2.690   2.929   3.858  0.00  0.00    +0.064 A 
ATOM     11  C   UNL     1       1.383   2.862   3.419  0.00  0.00    +0.026 A 
ATOM     12  C   UNL     1       0.408   3.618   4.047  0.00  0.00    +0.002 A 
ATOM     13  C   UNL     1       0.739   4.438   5.112  0.00  0.00    +0.002 A 
ATOM     14  C   UNL     1       2.048   4.505   5.571  0.00  0.00    +0.030 A 
ATOM     15  H   UNL     1       5.356   0.664   2.075  0.00  0.00    +0.151 HD
BRANCH   7  16
ATOM     16  O   UNL     1       6.570   3.413   5.121  0.00  0.00    -0.494 OA
ATOM     17  H   UNL     1       6.638   3.813   5.999  0.00  0.00    +0.293 HD
ENDBRANCH   7  16
ENDBRANCH   1   2
BRANCH   1  18
ATOM     18  C   UNL     1       5.422  -1.804   1.383  0.00  0.00    +0.234 C 
ATOM     19  O   UNL     1       6.446  -1.378   1.874  0.00  0.00    -0.274 OA
ATOM     20  N   UNL     1       5.402  -3.031   0.824  0.00  0.00    -0.313 N 
ATOM     21  H   UNL     1       4.583  -3.372   0.432  0.00  0.00    +0.149 HD
BRANCH  20  22
ATOM     22  C   UNL     1       6.617  -3.849   0.809  0.00  0.00    +0.108 C 
BRANCH  22  23
ATOM     23  C   UNL     1       6.325  -5.184   0.121  0.00  0.00    +0.052 C 
BRANCH  23  24
ATOM     24  C   UNL     1       7.575  -6.025   0.106  0.00  0.00    -0.040 C 
ATOM     25  C   UNL     1       7.925  -6.979   0.999  0.00  0.00    -0.001 A 
ATOM     26  C   UNL     1       7.270  -7.499   2.205  0.00  0.00    +0.010 A 
ATOM     27  C   UNL     1       7.879  -8.480   2.911  0.00  0.00    +0.001 A 
ATOM     28  C   UNL     1       9.116  -9.010   2.519  0.00  0.00    +0.002 A 
ATOM     29  C   UNL     1       9.778  -8.584   1.423  0.00  0.00    +0.026 A 
ATOM     30  C   UNL     1       9.230  -7.557   0.606  0.00  0.00    +0.043 A 
ATOM     31  N   UNL     1       9.671  -6.982  -0.486  0.00  0.00    -0.380 N 
ATOM     32  C   UNL     1       8.691  -5.977  -0.914  0.00  0.00    +0.144 C 
ATOM     33  H   UNL     1      10.504  -7.189  -0.938  0.00  0.00    +0.160 HD
ENDBRANCH  23  24
ENDBRANCH  22  23
ENDBRANCH  20  22
ENDBRANCH   1  18
BRANCH   1  34
ATOM     34  C   UNL     1       3.711  -0.707  -0.038  0.00  0.00    +0.067 C 
BRANCH  34  38
ATOM     35  C   UNL     1      -0.017   1.378   0.010  0.00  0.00    +0.000 A 
ATOM     36  C   UNL     1       1.171   2.086   0.002  0.00  0.00    +0.000 A 
ATOM     37  C   UNL     1       2.377   1.411  -0.013  0.00  0.00    +0.004 A 
ATOM     38  C   UNL     1       2.396   0.029  -0.020  0.00  0.00    -0.045 A 
ATOM     39  C   UNL     1       1.208  -0.679  -0.012  0.00  0.00    +0.004 A 
ATOM     40  C   UNL     1       0.002  -0.004   0.002  0.00  0.00    +0.000 A 
ENDBRANCH  34  38
ENDBRANCH   1  34
TORSDOF 8
