REMARK  Name = ZINC39747908
REMARK  11 active torsions:
REMARK  status: ('A' for Active; 'I' for Inactive)
REMARK    1  A    between atoms: C_1  and  C_2
REMARK    2  A    between atoms: C_2  and  C_3
REMARK    3  A    between atoms: C_3  and  C_5
REMARK    4  A    between atoms: C_3  and  S_18
REMARK    5  A    between atoms: N_7  and  C_8
REMARK    6  A    between atoms: S_18  and  C_19
REMARK    7  A    between atoms: C_22  and  C_30
REMARK    8  A    between atoms: N_23  and  C_24
REMARK    9  A    between atoms: C_30  and  C_31
REMARK   10  A    between atoms: C_31  and  N_32
REMARK   11  A    between atoms: C_33  and  C_35
REMARK                            x       y       z     vdW  Elec       q    Type
REMARK                         _______ _______ _______ _____ _____    ______ ____
ROOT
ATOM      1  C   UNL     1      -2.203   1.976  -0.771  0.00  0.00    +0.197 A 
ATOM      2  N   UNL     1      -1.353   2.503   0.080  0.00  0.00    -0.122 NA
ATOM      3  N   UNL     1      -1.462   3.783   0.072  0.00  0.00    -0.133 NA
ATOM      4  C   UNL     1      -2.381   4.150  -0.776  0.00  0.00    +0.140 A 
ATOM      5  N   UNL     1      -2.884   3.012  -1.350  0.00  0.00    -0.274 N 
ENDROOT
BRANCH   5   6
ATOM      6  C   UNL     1      -3.888   2.927  -2.325  0.00  0.00    +0.050 A 
ATOM      7  C   UNL     1      -3.671   3.443  -3.595  0.00  0.00    +0.026 A 
ATOM      8  C   UNL     1      -4.662   3.357  -4.553  0.00  0.00    +0.002 A 
ATOM      9  C   UNL     1      -5.870   2.758  -4.248  0.00  0.00    +0.000 A 
ATOM     10  C   UNL     1      -6.090   2.242  -2.983  0.00  0.00    +0.002 A 
ATOM     11  C   UNL     1      -5.100   2.320  -2.023  0.00  0.00    +0.026 A 
ENDBRANCH   5   6
BRANCH   1  12
ATOM     12  S   UNL     1      -2.421   0.261  -1.108  0.00  0.00    -0.073 S 
BRANCH  12  13
ATOM     13  C   UNL     1      -1.338  -0.564   0.091  0.00  0.00    +0.140 C 
BRANCH  13  14
ATOM     14  C   UNL     1      -1.897  -0.384   1.479  0.00  0.00    +0.231 C 
ATOM     15  O   UNL     1      -3.084  -0.187   1.634  0.00  0.00    -0.274 OA
ATOM     16  N   UNL     1      -1.078  -0.442   2.548  0.00  0.00    -0.284 N 
ATOM     17  H   UNL     1      -0.142  -0.670   2.430  0.00  0.00    +0.155 HD
BRANCH  16  18
ATOM     18  C   UNL     1      -1.576  -0.174   3.824  0.00  0.00    +0.041 A 
ATOM     19  C   UNL     1      -2.865  -0.530   4.157  0.00  0.00    +0.024 A 
ATOM     20  C   UNL     1      -3.372  -0.268   5.426  0.00  0.00    +0.002 A 
ATOM     21  C   UNL     1      -2.610   0.346   6.373  0.00  0.00    +0.008 A 
ATOM     22  C   UNL     1      -1.290   0.725   6.075  0.00  0.00    -0.016 A 
ATOM     23  C   UNL     1      -0.762   0.459   4.788  0.00  0.00    +0.003 A 
ATOM     24  C   UNL     1       0.558   0.834   4.493  0.00  0.00    +0.010 A 
ATOM     25  C   UNL     1       1.315   1.443   5.447  0.00  0.00    +0.001 A 
ATOM     26  C   UNL     1       0.798   1.700   6.716  0.00  0.00    +0.001 A 
ATOM     27  C   UNL     1      -0.481   1.360   7.033  0.00  0.00    +0.008 A 
ENDBRANCH  16  18
ENDBRANCH  13  14
BRANCH  13  29
ATOM     28  C   UNL     1      -0.563  -2.244  -1.588  0.00  0.00    +0.005 C 
ATOM     29  C   UNL     1      -1.256  -2.056  -0.237  0.00  0.00    +0.020 C 
ENDBRANCH  13  29
ENDBRANCH  12  13
ENDBRANCH   1  12
BRANCH   4  30
ATOM     30  C   UNL     1      -2.807   5.564  -1.076  0.00  0.00    +0.095 C 
BRANCH  30  31
ATOM     31  C   UNL     1      -1.958   6.122  -2.220  0.00  0.00    +0.112 C 
BRANCH  31  32
ATOM     32  N   UNL     1      -2.373   7.497  -2.510  0.00  0.00    -0.308 N 
ATOM     33  C   UNL     1      -1.759   8.193  -3.488  0.00  0.00    +0.279 C 
ATOM     34  O   UNL     1      -0.861   7.679  -4.129  0.00  0.00    -0.267 OA
ATOM     35  H   UNL     1      -3.088   7.906  -2.000  0.00  0.00    +0.149 HD
BRANCH  33  36
ATOM     36  C   UNL     1      -2.174   9.569  -3.779  0.00  0.00    +0.189 A 
ATOM     37  C   UNL     1      -1.644  10.380  -4.741  0.00  0.00    +0.054 A 
ATOM     38  C   UNL     1      -2.337  11.599  -4.668  0.00  0.00    +0.042 A 
ATOM     39  C   UNL     1      -3.248  11.479  -3.678  0.00  0.00    +0.196 A 
ATOM     40  O   UNL     1      -3.151  10.253  -3.148  0.00  0.00    -0.458 OA
ENDBRANCH  33  36
ENDBRANCH  31  32
ENDBRANCH  30  31
ENDBRANCH   4  30
TORSDOF 10
