REMARK  Name = ZINC12497160
REMARK  8 active torsions:
REMARK  status: ('A' for Active; 'I' for Inactive)
REMARK    1  A    between atoms: C_1  and  C_2
REMARK    2  A    between atoms: C_5  and  C_8
REMARK    3  A    between atoms: N_16  and  C_19
REMARK    4  A    between atoms: C_25  and  C_26
REMARK    5  A    between atoms: C_25  and  C_28
REMARK    6  A    between atoms: C_26  and  O_27
REMARK    7  A    between atoms: C_28  and  O_30
REMARK    8  A    between atoms: O_30  and  C_31
REMARK                            x       y       z     vdW  Elec       q    Type
REMARK                         _______ _______ _______ _____ _____    ______ ____
ROOT
ATOM      1  C   UNL     1       0.002  -0.004   0.002  0.00  0.00    -0.027 C 
ATOM      2  C   UNL     1      -0.101  -0.539   1.419  0.00  0.00    +0.077 C 
ATOM      3  C   UNL     1      -1.673  -0.525   1.559  0.00  0.00    +0.088 C 
ATOM      4  C   UNL     1      -1.827  -0.652   2.994  0.00  0.00    +0.229 C 
ATOM      5  O   UNL     1      -2.711  -1.234   3.585  0.00  0.00    -0.275 OA
ATOM      6  N   UNL     1      -0.756   0.014   3.537  0.00  0.00    -0.210 N 
ATOM      7  C   UNL     1       0.204   0.313   2.610  0.00  0.00    +0.229 C 
ATOM      8  O   UNL     1       1.114   1.105   2.729  0.00  0.00    -0.275 OA
ATOM      9  C   UNL     1      -2.087  -1.190   0.309  0.00  0.00    +0.067 C 
ATOM     10  N   UNL     1      -1.197  -0.535  -0.700  0.00  0.00    +0.397 N 
ATOM     11  H   UNL     1      -0.909  -1.223  -1.406  0.00  0.00    -0.083 HD
ATOM     12  H   UNL     1      -1.700   0.235  -1.157  0.00  0.00    -0.083 HD
ENDROOT
BRANCH   1  17
ATOM     13  C   UNL     1      -0.076   5.774   0.034  0.00  0.00    +0.044 C 
ATOM     14  C   UNL     1      -0.056   4.267   0.026  0.00  0.00    -0.050 A 
ATOM     15  C   UNL     1      -1.244   3.560   0.012  0.00  0.00    +0.003 A 
ATOM     16  C   UNL     1      -1.225   2.178   0.004  0.00  0.00    +0.002 A 
ATOM     17  C   UNL     1      -0.018   1.503   0.010  0.00  0.00    -0.061 A 
ATOM     18  C   UNL     1       1.169   2.210   0.030  0.00  0.00    +0.002 A 
ATOM     19  C   UNL     1       1.151   3.592   0.033  0.00  0.00    +0.003 A 
ENDBRANCH   1  17
BRANCH   6  20
ATOM     20  C   UNL     1      -0.657   0.350   4.895  0.00  0.00    +0.044 A 
ATOM     21  C   UNL     1      -1.680   0.014   5.771  0.00  0.00    +0.024 A 
ATOM     22  C   UNL     1      -1.578   0.342   7.108  0.00  0.00    +0.002 A 
ATOM     23  C   UNL     1      -0.462   1.014   7.573  0.00  0.00    +0.000 A 
ATOM     24  C   UNL     1       0.556   1.355   6.702  0.00  0.00    +0.002 A 
ATOM     25  C   UNL     1       0.461   1.025   5.364  0.00  0.00    +0.024 A 
ENDBRANCH   6  20
BRANCH   9  26
ATOM     26  C   UNL     1      -1.823  -2.672   0.377  0.00  0.00    +0.299 C 
ATOM     27  O   UNL     1      -1.772  -3.228   1.449  0.00  0.00    -0.252 OA
BRANCH  26  28
ATOM     28  O   UNL     1      -1.643  -3.374  -0.752  0.00  0.00    -0.469 OA
ATOM     29  C   UNL     1      -1.393  -4.797  -0.611  0.00  0.00    +0.280 C 
ENDBRANCH  26  28
ENDBRANCH   9  26
BRANCH   9  30
ATOM     30  C   UNL     1      -3.563  -0.916   0.011  0.00  0.00    +0.155 C 
BRANCH  30  31
ATOM     31  O   UNL     1      -3.933  -1.572  -1.204  0.00  0.00    -0.396 OA
ATOM     32  H   UNL     1      -4.857  -1.441  -1.456  0.00  0.00    +0.209 HD
ENDBRANCH  30  31
ENDBRANCH   9  30
TORSDOF 6
