REMARK  Name = ZINC40796630
REMARK  8 active torsions:
REMARK  status: ('A' for Active; 'I' for Inactive)
REMARK    1  A    between atoms: C_1  and  C_2
REMARK    2  A    between atoms: C_2  and  C_13
REMARK    3  A    between atoms: N_15  and  C_16
REMARK    4  A    between atoms: C_17  and  C_25
REMARK    5  A    between atoms: N_27  and  C_28
REMARK    6  A    between atoms: C_28  and  C_29
REMARK    7  A    between atoms: C_29  and  O_30
REMARK    8  A    between atoms: O_30  and  C_31
REMARK                            x       y       z     vdW  Elec       q    Type
REMARK                         _______ _______ _______ _____ _____    ______ ____
ROOT
ATOM      1  C   UNL     1      -1.412  -0.525   0.015  0.00  0.00    +0.270 C 
ATOM      2  O   UNL     1      -1.961  -0.815  -1.027  0.00  0.00    -0.271 OA
ATOM      3  N   UNL     1      -2.067  -0.668   1.184  0.00  0.00    -0.276 N 
ATOM      4  H   UNL     1      -1.628  -0.437   2.017  0.00  0.00    +0.155 HD
ENDROOT
BRANCH   1   6
ATOM      5  C   UNL     1      -0.019   1.526   0.010  0.00  0.00    +0.076 C 
ATOM      6  C   UNL     1       0.002  -0.004   0.002  0.00  0.00    +0.258 C 
ATOM      7  C   UNL     1       0.704  -0.490  -1.241  0.00  0.00    +0.270 C 
ATOM      8  O   UNL     1       0.065  -0.745  -2.240  0.00  0.00    -0.271 OA
ATOM      9  N   UNL     1       2.045  -0.638  -1.238  0.00  0.00    -0.279 N 
ATOM     10  C   UNL     1       2.750  -0.461  -0.040  0.00  0.00    +0.076 A 
ATOM     11  C   UNL     1       4.133  -0.380  -0.041  0.00  0.00    +0.027 A 
ATOM     12  C   UNL     1       4.813  -0.191   1.148  0.00  0.00    +0.002 A 
ATOM     13  C   UNL     1       4.116  -0.082   2.337  0.00  0.00    +0.004 A 
ATOM     14  C   UNL     1       2.736  -0.166   2.346  0.00  0.00    +0.047 A 
ATOM     15  C   UNL     1       2.049  -0.361   1.160  0.00  0.00    +0.144 A 
ATOM     16  O   UNL     1       0.694  -0.477   1.160  0.00  0.00    -0.465 OA
ATOM     17  H   UNL     1       2.516  -0.866  -2.055  0.00  0.00    +0.155 HD
ENDBRANCH   1   6
BRANCH   3  18
ATOM     18  C   UNL     1      -3.368  -1.148   1.196  0.00  0.00    +0.085 A 
ATOM     19  C   UNL     1      -4.190  -1.353   2.292  0.00  0.00    +0.069 A 
ATOM     20  C   UNL     1      -5.524  -1.869   2.035  0.00  0.00    -0.023 A 
ATOM     21  C   UNL     1      -5.790  -2.084   0.728  0.00  0.00    -0.004 A 
ATOM     22  S   UNL     1      -4.311  -1.605  -0.116  0.00  0.00    -0.077 S 
ATOM     23  C   UNL     1      -7.065  -2.609   0.145  0.00  0.00    +0.043 C 
ATOM     24  C   UNL     1      -7.898  -3.224   1.280  0.00  0.00    +0.005 C 
ATOM     25  C   UNL     1      -7.940  -2.240   2.453  0.00  0.00    +0.005 C 
ATOM     26  C   UNL     1      -6.561  -2.154   3.111  0.00  0.00    +0.037 C 
BRANCH  19  27
ATOM     27  C   UNL     1      -3.733  -1.063   3.655  0.00  0.00    +0.247 C 
ATOM     28  O   UNL     1      -3.908   0.042   4.133  0.00  0.00    -0.270 OA
ATOM     29  N   UNL     1      -3.120  -2.021   4.378  0.00  0.00    -0.309 N 
ATOM     30  H   UNL     1      -2.982  -2.902   3.997  0.00  0.00    +0.149 HD
BRANCH  29  31
ATOM     31  C   UNL     1      -2.664  -1.731   5.740  0.00  0.00    +0.132 C 
BRANCH  31  32
ATOM     32  C   UNL     1      -2.007  -2.979   6.334  0.00  0.00    +0.178 C 
BRANCH  32  33
ATOM     33  O   UNL     1      -0.823  -3.291   5.596  0.00  0.00    -0.381 OA
ATOM     34  C   UNL     1      -0.130  -4.446   6.072  0.00  0.00    +0.194 C 
ENDBRANCH  32  33
ENDBRANCH  31  32
ENDBRANCH  29  31
ENDBRANCH  19  27
ENDBRANCH   3  18
TORSDOF 6
