REMARK  Name = ZINC14457217
REMARK  8 active torsions:
REMARK  status: ('A' for Active; 'I' for Inactive)
REMARK    1  A    between atoms: C_1  and  O_2
REMARK    2  A    between atoms: O_2  and  C_3
REMARK    3  A    between atoms: C_6  and  C_10
REMARK    4  A    between atoms: C_8  and  O_9
REMARK    5  A    between atoms: C_21  and  S_26
REMARK    6  A    between atoms: S_26  and  N_29
REMARK    7  A    between atoms: N_29  and  C_30
REMARK    8  A    between atoms: C_30  and  C_31
REMARK                            x       y       z     vdW  Elec       q    Type
REMARK                         _______ _______ _______ _____ _____    ______ ____
ROOT
ATOM      1  C   UNL     1      -0.848   1.617  -1.142  0.00  0.00    +0.105 C 
ATOM      2  C   UNL     1      -0.013   1.086   0.008  0.00  0.00    +0.029 C 
ATOM      3  C   UNL     1      -0.517   1.622   1.369  0.00  0.00    +0.033 C 
ATOM      4  C   UNL     1       0.737   1.606   2.225  0.00  0.00    -0.030 C 
ATOM      5  C   UNL     1       1.807   1.620   1.470  0.00  0.00    -0.023 C 
ATOM      6  C   UNL     1       1.419   1.652  -0.003  0.00  0.00    +0.049 C 
ATOM      7  C   UNL     1       1.463   3.089  -0.450  0.00  0.00    -0.018 A 
ATOM      8  C   UNL     1       2.671   3.767  -0.348  0.00  0.00    +0.034 A 
ATOM      9  C   UNL     1       2.768   5.087  -0.739  0.00  0.00    +0.106 A 
ATOM     10  C   UNL     1       1.661   5.749  -1.238  0.00  0.00    +0.030 A 
ATOM     11  C   UNL     1       0.456   5.084  -1.346  0.00  0.00    +0.025 A 
ATOM     12  C   UNL     1       0.359   3.754  -0.953  0.00  0.00    +0.031 A 
ATOM     13  N   UNL     1      -0.868   3.093  -1.079  0.00  0.00    -0.336 N 
ATOM     14  H   UNL     1      -1.701   3.588  -1.127  0.00  0.00    +0.147 HD
ENDROOT
BRANCH   1  18
ATOM     15  C   UNL     1       0.871   0.357  -4.850  0.00  0.00    +0.161 A 
ATOM     16  C   UNL     1       1.402   1.442  -4.170  0.00  0.00    +0.050 A 
ATOM     17  C   UNL     1       0.844   1.846  -2.971  0.00  0.00    +0.009 A 
ATOM     18  C   UNL     1      -0.243   1.172  -2.449  0.00  0.00    -0.023 A 
ATOM     19  C   UNL     1      -0.775   0.086  -3.120  0.00  0.00    +0.054 A 
ATOM     20  C   UNL     1      -0.223  -0.322  -4.324  0.00  0.00    +0.159 A 
BRANCH  15  22
ATOM     21  C   UNL     1       2.540   0.703  -6.509  0.00  0.00    +0.277 C 
ATOM     22  O   UNL     1       1.419  -0.042  -6.029  0.00  0.00    -0.491 OA
ENDBRANCH  15  22
BRANCH  20  23
ATOM     23  O   UNL     1      -0.748  -1.387  -4.987  0.00  0.00    -0.503 OA
ATOM     24  H   UNL     1      -0.354  -2.236  -4.743  0.00  0.00    +0.292 HD
ENDBRANCH  20  23
ENDBRANCH   1  18
BRANCH   9  25
ATOM     25  S   UNL     1       4.308   5.931  -0.603  0.00  0.00    +0.059 S 
ATOM     26  O   UNL     1       4.006   7.317  -0.524  0.00  0.00    -0.153 OA
ATOM     27  O   UNL     1       5.054   5.255   0.400  0.00  0.00    -0.153 OA
BRANCH  25  28
ATOM     28  N   UNL     1       5.119   5.703  -2.029  0.00  0.00    -0.186 NA
ATOM     29  H   UNL     1       5.948   5.200  -2.041  0.00  0.00    +0.148 HD
BRANCH  28  30
ATOM     30  C   UNL     1       4.584   6.263  -3.273  0.00  0.00    +0.141 C 
BRANCH  30  31
ATOM     31  C   UNL     1       5.655   6.245  -4.333  0.00  0.00    -0.032 A 
ATOM     32  C   UNL     1       6.496   7.331  -4.484  0.00  0.00    +0.005 A 
ATOM     33  C   UNL     1       7.481   7.312  -5.454  0.00  0.00    +0.000 A 
ATOM     34  C   UNL     1       7.619   6.211  -6.279  0.00  0.00    +0.000 A 
ATOM     35  C   UNL     1       6.774   5.127  -6.131  0.00  0.00    +0.000 A 
ATOM     36  C   UNL     1       5.791   5.144  -5.159  0.00  0.00    +0.005 A 
ENDBRANCH  30  31
ENDBRANCH  28  30
ENDBRANCH  25  28
ENDBRANCH   9  25
TORSDOF 7
