REMARK  Name = ZINC30999038
REMARK  7 active torsions:
REMARK  status: ('A' for Active; 'I' for Inactive)
REMARK    1  A    between atoms: C_1  and  C_2
REMARK    2  A    between atoms: C_7  and  C_8
REMARK    3  A    between atoms: C_8  and  C_9
REMARK    4  A    between atoms: C_9  and  N_10
REMARK    5  A    between atoms: N_13  and  N_14
REMARK    6  A    between atoms: C_15  and  C_17
REMARK    7  A    between atoms: N_26  and  C_28
REMARK                            x       y       z     vdW  Elec       q    Type
REMARK                         _______ _______ _______ _____ _____    ______ ____
ROOT
ATOM      1  N   UNL     1       2.392  -4.296  -0.045  0.00  0.00    -0.228 N 
ATOM      2  C   UNL     1       2.442  -2.949  -0.038  0.00  0.00    +0.281 C 
ATOM      3  O   UNL     1       3.517  -2.381  -0.045  0.00  0.00    -0.267 OA
ATOM      4  H   UNL     1       1.419  -4.810  -0.039  0.00  0.00    +0.173 HD
ENDROOT
BRANCH   2   5
ATOM      5  C   UNL     1       1.192  -2.164  -0.021  0.00  0.00    +0.155 A 
ATOM      6  C   UNL     1       1.237  -0.693  -0.013  0.00  0.00    +0.020 A 
ATOM      7  C   UNL     1       2.428   0.025  -0.021  0.00  0.00    +0.011 A 
ATOM      8  C   UNL     1       2.389   1.403  -0.013  0.00  0.00    +0.001 A 
ATOM      9  C   UNL     1       1.176   2.079   0.002  0.00  0.00    +0.001 A 
ATOM     10  C   UNL     1      -0.017   1.387   0.010  0.00  0.00    +0.014 A 
ATOM     11  C   UNL     1       0.002  -0.004   0.002  0.00  0.00    +0.050 A 
ATOM     12  C   UNL     1      -1.221  -0.819   0.009  0.00  0.00    +0.275 A 
ATOM     13  O   UNL     1      -2.319  -0.294   0.022  0.00  0.00    -0.266 OA
ATOM     14  N   UNL     1      -1.098  -2.162   0.000  0.00  0.00    -0.231 N 
ATOM     15  N   UNL     1       0.029  -2.768  -0.014  0.00  0.00    -0.163 NA
ATOM     16  C   UNL     1      -2.320  -2.970   0.007  0.00  0.00    +0.176 C 
ENDBRANCH   2   5
BRANCH   1  20
ATOM     17  N   UNL     1       2.336  -7.018  -0.060  0.00  0.00    -0.298 N 
ATOM     18  C   UNL     1       3.527  -6.388  -0.068  0.00  0.00    +0.316 C 
ATOM     19  O   UNL     1       4.557  -7.035  -0.082  0.00  0.00    -0.251 OA
ATOM     20  N   UNL     1       3.578  -5.042  -0.061  0.00  0.00    -0.218 N 
ATOM     21  H   UNL     1       1.405  -6.433  -0.048  0.00  0.00    +0.150 HD
ATOM     22  H   UNL     1       4.550  -4.527  -0.068  0.00  0.00    +0.174 HD
BRANCH  17  23
ATOM     23  C   UNL     1       2.281  -8.482  -0.068  0.00  0.00    +0.110 C 
BRANCH  23  24
ATOM     24  C   UNL     1       0.820  -8.938  -0.057  0.00  0.00    +0.054 C 
BRANCH  24  31
ATOM     25  C   UNL     1       1.008 -10.404   2.426  0.00  0.00    +0.044 C 
ATOM     26  C   UNL     1       0.854 -11.145   1.123  0.00  0.00    -0.047 A 
ATOM     27  C   UNL     1       0.802 -12.527   1.116  0.00  0.00    +0.003 A 
ATOM     28  C   UNL     1       0.660 -13.206  -0.079  0.00  0.00    +0.000 A 
ATOM     29  C   UNL     1       0.570 -12.505  -1.267  0.00  0.00    +0.000 A 
ATOM     30  C   UNL     1       0.617 -11.123  -1.260  0.00  0.00    +0.004 A 
ATOM     31  C   UNL     1       0.764 -10.444  -0.065  0.00  0.00    -0.043 A 
ENDBRANCH  24  31
ENDBRANCH  23  24
ENDBRANCH  17  23
ENDBRANCH   1  20
TORSDOF 5
