REMARK  Name = ZINC31118952
REMARK  11 active torsions:
REMARK  status: ('A' for Active; 'I' for Inactive)
REMARK    1  A    between atoms: C_1  and  C_2
REMARK    2  A    between atoms: C_5  and  C_36
REMARK    3  A    between atoms: C_6  and  N_8
REMARK    4  A    between atoms: C_13  and  C_15
REMARK    5  A    between atoms: N_17  and  C_18
REMARK    6  A    between atoms: C_18  and  C_19
REMARK    7  A    between atoms: C_19  and  C_20
REMARK    8  A    between atoms: C_20  and  C_21
REMARK    9  A    between atoms: C_22  and  C_34
REMARK   10  A    between atoms: C_23  and  N_33
REMARK   11  A    between atoms: N_24  and  C_26
REMARK                            x       y       z     vdW  Elec       q    Type
REMARK                         _______ _______ _______ _____ _____    ______ ____
ROOT
ATOM      1  C   UNL     1      -0.037   1.099  -2.490  0.00  0.00    +0.105 C 
ENDROOT
BRANCH   1   4
ATOM      2  C   UNL     1      -0.292   1.272  -4.907  0.00  0.00    +0.260 C 
ATOM      3  O   UNL     1       0.706   0.587  -5.032  0.00  0.00    -0.269 OA
ATOM      4  N   UNL     1      -0.745   1.585  -3.677  0.00  0.00    -0.310 N 
ATOM      5  H   UNL     1      -1.647   2.204  -3.564  0.00  0.00    +0.149 HD
BRANCH   2  11
ATOM      6  N   UNL     1      -2.768   2.967  -7.063  0.00  0.00    -0.160 N 
ATOM      7  C   UNL     1      -2.609   2.391  -8.271  0.00  0.00    +0.240 C 
ATOM      8  O   UNL     1      -3.226   2.808  -9.229  0.00  0.00    -0.273 OA
ATOM      9  C   UNL     1      -1.664   1.228  -8.427  0.00  0.00    +0.104 C 
ATOM     10  C   UNL     1      -0.483   1.408  -7.465  0.00  0.00    +0.071 C 
ATOM     11  C   UNL     1      -1.002   1.758  -6.096  0.00  0.00    +0.122 C 
ATOM     12  N   UNL     1      -2.064   2.488  -5.953  0.00  0.00    -0.172 NA
BRANCH   6  18
ATOM     13  C   UNL     1      -4.194   7.468  -8.437  0.00  0.00    +0.044 C 
ATOM     14  C   UNL     1      -4.355   6.245  -7.571  0.00  0.00    -0.049 A 
ATOM     15  C   UNL     1      -5.369   6.194  -6.631  0.00  0.00    +0.004 A 
ATOM     16  C   UNL     1      -5.521   5.073  -5.835  0.00  0.00    +0.005 A 
ATOM     17  C   UNL     1      -4.664   4.000  -5.979  0.00  0.00    -0.027 A 
ATOM     18  C   UNL     1      -3.642   4.051  -6.918  0.00  0.00    +0.063 A 
ATOM     19  C   UNL     1      -3.492   5.178  -7.716  0.00  0.00    +0.029 A 
ATOM     20  C   UNL     1      -4.834   2.777  -5.115  0.00  0.00    +0.046 C 
ENDBRANCH   6  18
ENDBRANCH   2  11
ENDBRANCH   1   4
BRANCH   1  21
ATOM     21  C   UNL     1      -0.753   1.593  -1.232  0.00  0.00    +0.025 C 
BRANCH  21  22
ATOM     22  C   UNL     1      -0.013   1.086   0.008  0.00  0.00    +0.060 C 
BRANCH  22  23
ATOM     23  C   UNL     1      -0.718   1.572   1.248  0.00  0.00    +0.083 A 
ATOM     24  C   UNL     1      -1.755   0.894   1.931  0.00  0.00    +0.114 A 
ATOM     25  C   UNL     1      -2.116   1.690   3.015  0.00  0.00    +0.138 A 
ATOM     26  N   UNL     1      -1.331   2.790   2.979  0.00  0.00    -0.217 N 
ATOM     27  N   UNL     1      -0.474   2.687   1.879  0.00  0.00    -0.168 NA
BRANCH  26  28
ATOM     28  C   UNL     1      -1.367   3.853   3.893  0.00  0.00    +0.068 A 
ATOM     29  C   UNL     1      -2.576   4.255   4.445  0.00  0.00    +0.030 A 
ATOM     30  C   UNL     1      -2.609   5.299   5.348  0.00  0.00    +0.040 A 
ATOM     31  C   UNL     1      -1.438   5.952   5.696  0.00  0.00    +0.124 A 
ATOM     32  C   UNL     1      -0.232   5.555   5.144  0.00  0.00    +0.040 A 
ATOM     33  C   UNL     1      -0.194   4.508   4.244  0.00  0.00    +0.030 A 
ATOM     34  F   UNL     1      -1.473   6.977   6.576  0.00  0.00    -0.205 F 
ENDBRANCH  26  28
BRANCH  25  35
ATOM     35  N   UNL     1      -3.092   1.408   3.951  0.00  0.00    -0.342 N 
ATOM     36  H   UNL     1      -3.291   2.116   4.769  0.00  0.00    +0.144 HD
ATOM     37  H   UNL     1      -3.671   0.475   3.879  0.00  0.00    +0.144 HD
ENDBRANCH  25  35
BRANCH  24  38
ATOM     38  C   UNL     1      -2.325  -0.370   1.575  0.00  0.00    +0.104 C 
ATOM     39  N   UNL     1      -2.777  -1.373   1.293  0.00  0.00    -0.191 NA
ENDBRANCH  24  38
ENDBRANCH  22  23
ENDBRANCH  21  22
ENDBRANCH   1  21
TORSDOF 9
