REMARK  Name = ZINC39981265
REMARK  6 active torsions:
REMARK  status: ('A' for Active; 'I' for Inactive)
REMARK    1  A    between atoms: C_1  and  C_2
REMARK    2  A    between atoms: N_4  and  C_5
REMARK    3  A    between atoms: C_8  and  N_11
REMARK    4  A    between atoms: C_12  and  C_14
REMARK    5  A    between atoms: C_14  and  S_15
REMARK    6  A    between atoms: S_15  and  C_16
REMARK                            x       y       z     vdW  Elec       q    Type
REMARK                         _______ _______ _______ _____ _____    ______ ____
ROOT
ATOM      1  C   UNL     1       0.089  -8.478  -1.839  0.00  0.00    +0.173 C 
ENDROOT
BRANCH   1   3
ATOM      2  N   UNL     1      -0.123  -6.230  -0.829  0.00  0.00    -0.285 N 
ATOM      3  C   UNL     1       0.009  -6.977  -1.943  0.00  0.00    +0.227 C 
ATOM      4  O   UNL     1       0.062  -6.440  -3.030  0.00  0.00    -0.275 OA
ATOM      5  H   UNL     1      -0.233  -6.661   0.033  0.00  0.00    +0.155 HD
BRANCH   2   9
ATOM      6  C   UNL     1      -0.055  -2.069  -1.087  0.00  0.00    +0.033 A 
ATOM      7  C   UNL     1       0.500  -2.706   0.016  0.00  0.00    +0.025 A 
ATOM      8  C   UNL     1       0.477  -4.083   0.101  0.00  0.00    +0.025 A 
ATOM      9  C   UNL     1      -0.100  -4.833  -0.915  0.00  0.00    +0.034 A 
ATOM     10  C   UNL     1      -0.655  -4.196  -2.018  0.00  0.00    +0.025 A 
ATOM     11  C   UNL     1      -0.637  -2.818  -2.101  0.00  0.00    +0.025 A 
BRANCH   6  15
ATOM     12  C   UNL     1      -1.089   1.493  -1.737  0.00  0.00    +0.109 C 
ATOM     13  C   UNL     1      -1.065  -0.014  -1.737  0.00  0.00    +0.214 C 
ATOM     14  O   UNL     1      -1.975  -0.635  -2.244  0.00  0.00    -0.276 OA
ATOM     15  N   UNL     1      -0.032  -0.671  -1.173  0.00  0.00    -0.286 N 
ATOM     16  H   UNL     1       0.727  -0.176  -0.828  0.00  0.00    +0.155 HD
ENDBRANCH   6  15
ENDBRANCH   2   9
ENDBRANCH   1   3
BRANCH   1  17
ATOM     17  S   UNL     1       0.261  -9.190  -3.499  0.00  0.00    -0.075 S 
BRANCH  17  18
ATOM     18  C   UNL     1       0.341 -10.927  -3.211  0.00  0.00    +0.208 C 
ATOM     19  N   UNL     1       0.264 -11.353  -1.973  0.00  0.00    -0.227 NA
ATOM     20  C   UNL     1       0.251 -12.797  -1.750  0.00  0.00    +0.252 C 
ATOM     21  C   UNL     1       1.020 -13.415  -2.909  0.00  0.00    +0.117 C 
ATOM     22  C   UNL     1       1.910 -14.275  -2.339  0.00  0.00    +0.028 A 
ATOM     23  C   UNL     1       2.817 -15.210  -2.893  0.00  0.00    +0.050 A 
ATOM     24  C   UNL     1       3.593 -15.920  -2.027  0.00  0.00    +0.124 A 
ATOM     25  C   UNL     1       3.548 -15.779  -0.633  0.00  0.00    +0.040 A 
ATOM     26  C   UNL     1       2.712 -14.919   0.005  0.00  0.00    +0.029 A 
ATOM     27  C   UNL     1       1.827 -14.113  -0.854  0.00  0.00    +0.046 A 
ATOM     28  N   UNL     1       0.925 -13.236  -0.537  0.00  0.00    -0.358 N 
ATOM     29  F   UNL     1       4.463 -16.815  -2.545  0.00  0.00    -0.205 F 
ATOM     30  N   UNL     1       0.850 -12.985  -4.161  0.00  0.00    -0.147 NA
ATOM     31  N   UNL     1       0.473 -11.746  -4.282  0.00  0.00    -0.122 NA
ATOM     32  H   UNL     1       0.732 -12.924   0.361  0.00  0.00    +0.162 HD
ENDBRANCH  17  18
ENDBRANCH   1  17
TORSDOF 5
