REMARK  Name = ZINC02299923
REMARK  9 active torsions:
REMARK  status: ('A' for Active; 'I' for Inactive)
REMARK    1  A    between atoms: C_4  and  C_7
REMARK    2  A    between atoms: C_7  and  N_66
REMARK    3  A    between atoms: C_8  and  C_9
REMARK    4  A    between atoms: C_8  and  N_66
REMARK    5  A    between atoms: C_9  and  C_11
REMARK    6  A    between atoms: C_9  and  O_37
REMARK    7  A    between atoms: C_11  and  N_12
REMARK    8  A    between atoms: C_23  and  C_31
REMARK    9  A    between atoms: C_24  and  C_25
REMARK                            x       y       z     vdW  Elec       q    Type
REMARK                         _______ _______ _______ _____ _____    ______ ____
ROOT
ATOM      1  N   UNL     1       1.010   6.265   0.260  0.00  0.00    -0.336 N 
ATOM      2  C   UNL     1      -0.062   5.432   0.053  0.00  0.00    +0.058 A 
ATOM      3  C   UNL     1      -0.165   4.062  -0.279  0.00  0.00    +0.006 A 
ATOM      4  C   UNL     1       0.980   3.273  -0.464  0.00  0.00    +0.010 A 
ATOM      5  C   UNL     1       0.847   1.955  -0.784  0.00  0.00    +0.001 A 
ATOM      6  C   UNL     1      -0.412   1.379  -0.931  0.00  0.00    +0.001 A 
ATOM      7  C   UNL     1      -1.544   2.118  -0.764  0.00  0.00    +0.008 A 
ATOM      8  C   UNL     1      -1.445   3.477  -0.428  0.00  0.00    -0.016 A 
ATOM      9  C   UNL     1      -2.602   4.263  -0.244  0.00  0.00    +0.009 A 
ATOM     10  C   UNL     1      -2.494   5.575   0.074  0.00  0.00    +0.011 A 
ATOM     11  C   UNL     1      -1.232   6.178   0.226  0.00  0.00    +0.009 A 
ATOM     12  C   UNL     1      -0.804   7.544   0.559  0.00  0.00    +0.015 A 
ATOM     13  C   UNL     1       0.576   7.530   0.563  0.00  0.00    +0.058 A 
ENDROOT
BRANCH  13  14
ATOM     14  C   UNL     1       1.444   8.690   0.848  0.00  0.00    -0.001 A 
ATOM     15  C   UNL     1       1.283   9.413   2.032  0.00  0.00    +0.010 A 
ATOM     16  C   UNL     1       2.102  10.492   2.295  0.00  0.00    +0.001 A 
ATOM     17  C   UNL     1       3.073  10.865   1.383  0.00  0.00    +0.000 A 
ATOM     18  C   UNL     1       3.235  10.157   0.205  0.00  0.00    +0.001 A 
ATOM     19  C   UNL     1       2.427   9.072  -0.068  0.00  0.00    +0.010 A 
ENDBRANCH  13  14
BRANCH  12  20
ATOM     20  C   UNL     1      -1.681   8.704   0.835  0.00  0.00    -0.015 A 
ATOM     21  C   UNL     1      -1.696   9.793  -0.037  0.00  0.00    +0.008 A 
ATOM     22  C   UNL     1      -2.519  10.870   0.223  0.00  0.00    +0.001 A 
ATOM     23  C   UNL     1      -3.319  10.876   1.352  0.00  0.00    +0.000 A 
ATOM     24  C   UNL     1      -3.304   9.801   2.223  0.00  0.00    +0.001 A 
ATOM     25  C   UNL     1      -2.490   8.716   1.971  0.00  0.00    +0.008 A 
ENDBRANCH  12  20
BRANCH   1  26
ATOM     26  C   UNL     1       2.415   5.860   0.170  0.00  0.00    +0.151 C 
BRANCH  26  27
ATOM     27  C   UNL     1       2.901   5.396   1.544  0.00  0.00    +0.117 C 
BRANCH  27  28
ATOM     28  O   UNL     1       2.177   4.228   1.936  0.00  0.00    -0.392 OA
ATOM     29  H   UNL     1       2.278   3.481   1.330  0.00  0.00    +0.210 HD
ENDBRANCH  27  28
BRANCH  27  30
ATOM     30  C   UNL     1       4.394   5.071   1.474  0.00  0.00    -0.049 C 
BRANCH  30  31
ATOM     31  N   UNL     1       4.855   4.624   2.803  0.00  0.00    +0.383 N 
ATOM     32  H   UNL     1       4.693   5.373   3.487  0.00  0.00    -0.085 HD
ATOM     33  H   UNL     1       4.328   3.787   3.080  0.00  0.00    -0.085 HD
BRANCH  31  34
ATOM     34  C   UNL     1       6.294   4.303   2.765  0.00  0.00    -0.047 C 
BRANCH  34  38
ATOM     35  C   UNL     1       7.545   3.021   6.643  0.00  0.00    +0.000 A 
ATOM     36  C   UNL     1       7.083   2.097   5.725  0.00  0.00    +0.000 A 
ATOM     37  C   UNL     1       6.678   2.511   4.470  0.00  0.00    +0.002 A 
ATOM     38  C   UNL     1       6.735   3.851   4.133  0.00  0.00    -0.064 A 
ATOM     39  C   UNL     1       7.203   4.775   5.049  0.00  0.00    +0.002 A 
ATOM     40  C   UNL     1       7.603   4.361   6.306  0.00  0.00    +0.000 A 
ENDBRANCH  34  38
ENDBRANCH  31  34
ENDBRANCH  30  31
ENDBRANCH  27  30
ENDBRANCH  26  27
ENDBRANCH   1  26
TORSDOF 9
