REMARK  Name = ZINC64502506
REMARK  9 active torsions:
REMARK  status: ('A' for Active; 'I' for Inactive)
REMARK    1  A    between atoms: C_1  and  C_2
REMARK    2  A    between atoms: C_2  and  C_3
REMARK    3  A    between atoms: C_3  and  C_4
REMARK    4  A    between atoms: C_8  and  C_11
REMARK    5  A    between atoms: N_13  and  C_14
REMARK    6  A    between atoms: C_18  and  C_20
REMARK    7  A    between atoms: N_22  and  C_23
REMARK    8  A    between atoms: C_23  and  C_24
REMARK    9  A    between atoms: C_24  and  C_25
REMARK                            x       y       z     vdW  Elec       q    Type
REMARK                         _______ _______ _______ _____ _____    ______ ____
ROOT
ATOM      1  C   UNL     1      -2.388  -5.042   5.696  0.00  0.00    +0.034 A 
ATOM      2  C   UNL     1      -3.499  -4.213   5.594  0.00  0.00    +0.023 A 
ATOM      3  C   UNL     1      -4.505  -4.278   6.539  0.00  0.00    +0.003 A 
ATOM      4  C   UNL     1      -4.414  -5.167   7.591  0.00  0.00    +0.013 A 
ATOM      5  C   UNL     1      -3.302  -6.004   7.703  0.00  0.00    +0.038 A 
ATOM      6  C   UNL     1      -2.289  -5.942   6.745  0.00  0.00    +0.036 A 
ENDROOT
BRANCH   1   9
ATOM      7  C   UNL     1      -0.719  -6.090   4.363  0.00  0.00    +0.254 C 
ATOM      8  O   UNL     1      -0.954  -7.143   4.917  0.00  0.00    -0.272 OA
ATOM      9  N   UNL     1      -1.372  -4.971   4.737  0.00  0.00    -0.283 N 
ATOM     10  H   UNL     1      -1.137  -4.117   4.341  0.00  0.00    +0.155 HD
BRANCH   7  14
ATOM     11  C   UNL     1       0.969  -7.606   1.131  0.00  0.00    +0.187 C 
ATOM     12  N   UNL     1      -0.045  -6.535   0.991  0.00  0.00    -0.177 NA
ATOM     13  N   UNL     1      -0.342  -5.834   1.938  0.00  0.00    -0.167 NA
ATOM     14  C   UNL     1       0.302  -6.032   3.256  0.00  0.00    +0.272 C 
ATOM     15  S   UNL     1       1.087  -7.683   2.974  0.00  0.00    -0.095 S 
BRANCH  11  16
ATOM     16  C   UNL     1       0.467  -8.929   0.549  0.00  0.00    +0.039 C 
BRANCH  16  18
ATOM     17  C   UNL     1       0.984 -11.356   0.257  0.00  0.00    +0.004 C 
ATOM     18  C   UNL     1       1.486 -10.033   0.839  0.00  0.00    -0.000 C 
ENDBRANCH  16  18
ENDBRANCH  11  16
ENDBRANCH   7  14
ENDBRANCH   1   9
BRANCH   5  19
ATOM     19  C   UNL     1      -3.201  -6.957   8.829  0.00  0.00    +0.244 C 
ATOM     20  O   UNL     1      -2.232  -7.685   8.924  0.00  0.00    -0.270 OA
ATOM     21  N   UNL     1      -4.184  -7.019   9.749  0.00  0.00    -0.311 N 
ATOM     22  H   UNL     1      -4.957  -6.439   9.673  0.00  0.00    +0.149 HD
BRANCH  21  23
ATOM     23  C   UNL     1      -4.084  -7.964  10.865  0.00  0.00    +0.109 C 
BRANCH  23  24
ATOM     24  C   UNL     1      -5.320  -7.832  11.757  0.00  0.00    +0.052 C 
BRANCH  24  25
ATOM     25  C   UNL     1      -5.217  -8.804  12.904  0.00  0.00    -0.040 C 
ATOM     26  C   UNL     1      -4.746  -8.549  14.146  0.00  0.00    +0.000 A 
ATOM     27  C   UNL     1      -4.208  -7.337  14.775  0.00  0.00    +0.030 A 
ATOM     28  C   UNL     1      -3.805  -7.391  16.066  0.00  0.00    +0.042 A 
ATOM     29  C   UNL     1      -3.889  -8.575  16.815  0.00  0.00    +0.022 A 
ATOM     30  C   UNL     1      -4.372  -9.727  16.305  0.00  0.00    +0.027 A 
ATOM     31  C   UNL     1      -4.824  -9.784  14.958  0.00  0.00    +0.043 A 
ATOM     32  N   UNL     1      -5.324 -10.764  14.246  0.00  0.00    -0.380 N 
ATOM     33  C   UNL     1      -5.626 -10.260  12.902  0.00  0.00    +0.144 C 
ATOM     34 CL   UNL     1      -3.168  -5.960  16.814  0.00  0.00    -0.084 Cl
ATOM     35  H   UNL     1      -5.473 -11.671  14.557  0.00  0.00    +0.160 HD
ENDBRANCH  24  25
ENDBRANCH  23  24
ENDBRANCH  21  23
ENDBRANCH   5  19
TORSDOF 8
