REMARK  Name = ZINC49580924
REMARK  13 active torsions:
REMARK  status: ('A' for Active; 'I' for Inactive)
REMARK    1  A    between atoms: C_1  and  C_2
REMARK    2  A    between atoms: C_2  and  C_4
REMARK    3  A    between atoms: C_2  and  N_14
REMARK    4  A    between atoms: N_14  and  C_15
REMARK    5  A    between atoms: C_15  and  C_16
REMARK    6  A    between atoms: N_18  and  C_19
REMARK    7  A    between atoms: C_19  and  C_20
REMARK    8  A    between atoms: C_20  and  N_21
REMARK    9  A    between atoms: C_22  and  C_24
REMARK   10  A    between atoms: C_24  and  N_25
REMARK   11  A    between atoms: N_25  and  C_26
REMARK   12  A    between atoms: C_26  and  C_28
REMARK   13  A    between atoms: C_26  and  C_29
REMARK                            x       y       z     vdW  Elec       q    Type
REMARK                         _______ _______ _______ _____ _____    ______ ____
ROOT
ATOM      1  C   UNL     1       0.684  -1.717   5.894  0.00  0.00    +0.123 C 
ENDROOT
BRANCH   1   4
ATOM      2  C   UNL     1       0.572  -1.074   3.547  0.00  0.00    +0.227 C 
ATOM      3  O   UNL     1       1.752  -1.338   3.448  0.00  0.00    -0.274 OA
ATOM      4  N   UNL     1      -0.057  -1.229   4.729  0.00  0.00    -0.313 N 
ATOM      5  H   UNL     1      -1.000  -1.018   4.808  0.00  0.00    +0.149 HD
BRANCH   2   6
ATOM      6  C   UNL     1      -0.191  -0.572   2.348  0.00  0.00    +0.178 C 
BRANCH   6   7
ATOM      7  N   UNL     1       0.713  -0.491   1.192  0.00  0.00    -0.302 NA
ATOM      8  H   UNL     1       1.151  -1.381   1.012  0.00  0.00    +0.123 HD
BRANCH   7  10
ATOM      9  C   UNL     1      -0.019   1.526   0.010  0.00  0.00    +0.029 C 
ATOM     10  C   UNL     1       0.002  -0.004   0.002  0.00  0.00    +0.081 C 
BRANCH  10  11
ATOM     11  C   UNL     1       0.707  -0.490  -1.238  0.00  0.00    -0.030 A 
ATOM     12  C   UNL     1       2.101  -0.506  -1.273  0.00  0.00    +0.006 A 
ATOM     13  C   UNL     1       2.769  -0.939  -2.377  0.00  0.00    +0.009 A 
ATOM     14  C   UNL     1       2.046  -1.377  -3.500  0.00  0.00    -0.018 A 
ATOM     15  C   UNL     1       2.700  -1.831  -4.658  0.00  0.00    +0.008 A 
ATOM     16  C   UNL     1       1.967  -2.247  -5.726  0.00  0.00    +0.001 A 
ATOM     17  C   UNL     1       0.574  -2.231  -5.691  0.00  0.00    +0.001 A 
ATOM     18  C   UNL     1      -0.094  -1.798  -4.587  0.00  0.00    +0.008 A 
ATOM     19  C   UNL     1       0.629  -1.360  -3.464  0.00  0.00    -0.018 A 
ATOM     20  C   UNL     1      -0.025  -0.911  -2.304  0.00  0.00    +0.013 A 
ENDBRANCH  10  11
ENDBRANCH   7  10
ENDBRANCH   6   7
ENDBRANCH   2   6
ENDBRANCH   1   4
BRANCH   1  21
ATOM     21  C   UNL     1      -0.256  -1.802   7.098  0.00  0.00    +0.123 C 
BRANCH  21  22
ATOM     22  N   UNL     1       0.485  -2.290   8.264  0.00  0.00    -0.313 N 
ATOM     23  C   UNL     1      -0.144  -2.445   9.446  0.00  0.00    +0.227 C 
ATOM     24  O   UNL     1      -1.324  -2.182   9.544  0.00  0.00    -0.274 OA
ATOM     25  H   UNL     1       1.428  -2.501   8.185  0.00  0.00    +0.149 HD
BRANCH  23  26
ATOM     26  C   UNL     1       0.619  -2.947  10.645  0.00  0.00    +0.178 C 
BRANCH  26  27
ATOM     27  N   UNL     1      -0.285  -3.029  11.800  0.00  0.00    -0.302 NA
ATOM     28  H   UNL     1      -0.723  -2.138  11.980  0.00  0.00    +0.123 HD
BRANCH  27  29
ATOM     29  C   UNL     1       0.426  -3.515  12.990  0.00  0.00    +0.081 C 
ATOM     30  C   UNL     1       1.111  -2.340  13.691  0.00  0.00    +0.029 C 
BRANCH  29  31
ATOM     31  C   UNL     1      -0.557  -4.159  13.934  0.00  0.00    -0.030 A 
ATOM     32  C   UNL     1      -1.813  -3.583  14.116  0.00  0.00    +0.006 A 
ATOM     33  C   UNL     1      -2.723  -4.138  14.961  0.00  0.00    +0.009 A 
ATOM     34  C   UNL     1      -2.396  -5.312  15.661  0.00  0.00    -0.018 A 
ATOM     35  C   UNL     1      -3.310  -5.916  16.542  0.00  0.00    +0.008 A 
ATOM     36  C   UNL     1      -2.959  -7.052  17.203  0.00  0.00    +0.001 A 
ATOM     37  C   UNL     1      -1.703  -7.629  17.020  0.00  0.00    +0.001 A 
ATOM     38  C   UNL     1      -0.792  -7.073  16.176  0.00  0.00    +0.008 A 
ATOM     39  C   UNL     1      -1.119  -5.899  15.476  0.00  0.00    -0.018 A 
ATOM     40  C   UNL     1      -0.207  -5.299  14.591  0.00  0.00    +0.013 A 
ENDBRANCH  29  31
ENDBRANCH  27  29
ENDBRANCH  26  27
ENDBRANCH  23  26
ENDBRANCH  21  22
ENDBRANCH   1  21
TORSDOF 11
