REMARK  Name = ZINC12413287
REMARK  3 active torsions:
REMARK  status: ('A' for Active; 'I' for Inactive)
REMARK    1  A    between atoms: C_1  and  C_2
REMARK    2  A    between atoms: C_2  and  C_3
REMARK    3  A    between atoms: C_6  and  C_9
REMARK                            x       y       z     vdW  Elec       q    Type
REMARK                         _______ _______ _______ _____ _____    ______ ____
ROOT
ATOM      1  C   UNL     1       1.200   7.451  -0.102  0.00  0.00    +0.139 C 
ATOM      2  C   UNL     1       1.167   5.950   0.024  0.00  0.00    +0.070 A 
ATOM      3  C   UNL     1      -0.045   5.310   0.245  0.00  0.00    +0.007 A 
ATOM      4  C   UNL     1      -0.064   3.845   0.120  0.00  0.00    +0.026 A 
ATOM      5  C   UNL     1      -1.254   3.125   0.032  0.00  0.00    +0.012 A 
ATOM      6  C   UNL     1      -1.225   1.748  -0.009  0.00  0.00    +0.001 A 
ATOM      7  C   UNL     1      -0.013   1.075   0.008  0.00  0.00    +0.004 A 
ATOM      8  C   UNL     1       1.174   1.776   0.000  0.00  0.00    +0.047 A 
ATOM      9  C   UNL     1       1.165   3.166   0.040  0.00  0.00    +0.140 A 
ATOM     10  O   UNL     1       2.325   3.849  -0.019  0.00  0.00    -0.422 OA
ATOM     11  C   UNL     1       2.329   5.185  -0.112  0.00  0.00    +0.343 A 
ATOM     12  O   UNL     1       3.388   5.749  -0.329  0.00  0.00    -0.245 OA
ATOM     13  C   UNL     1      -1.231   6.116   0.527  0.00  0.00    +0.012 A 
ATOM     14  C   UNL     1      -2.378   5.636   1.284  0.00  0.00    -0.008 A 
ATOM     15  C   UNL     1      -2.352   4.446   2.019  0.00  0.00    +0.009 A 
ATOM     16  C   UNL     1      -3.495   3.980   2.599  0.00  0.00    +0.001 A 
ATOM     17  C   UNL     1      -4.689   4.687   2.491  0.00  0.00    +0.001 A 
ATOM     18  C   UNL     1      -4.731   5.891   1.856  0.00  0.00    +0.008 A 
ATOM     19  C   UNL     1      -3.559   6.423   1.294  0.00  0.00    -0.017 A 
ATOM     20  C   UNL     1      -3.538   7.716   0.740  0.00  0.00    +0.010 A 
ATOM     21  C   UNL     1      -2.413   8.204   0.154  0.00  0.00    +0.024 A 
ATOM     22  C   UNL     1      -1.257   7.434   0.046  0.00  0.00    +0.036 A 
ATOM     23  N   UNL     1      -0.111   7.927  -0.567  0.00  0.00    -0.332 N 
ATOM     24  H   UNL     1      -0.172   8.572  -1.285  0.00  0.00    +0.147 HD
ENDROOT
BRANCH   1  28
ATOM     25  C   UNL     1       2.082   9.198   3.696  0.00  0.00    -0.048 A 
ATOM     26  C   UNL     1       3.081   9.059   2.750  0.00  0.00    +0.004 A 
ATOM     27  C   UNL     1       2.795   8.493   1.521  0.00  0.00    +0.006 A 
ATOM     28  C   UNL     1       1.511   8.067   1.238  0.00  0.00    -0.023 A 
ATOM     29  C   UNL     1       0.511   8.211   2.182  0.00  0.00    +0.006 A 
ATOM     30  C   UNL     1       0.798   8.771   3.413  0.00  0.00    +0.004 A 
BRANCH  25  32
ATOM     31  C   UNL     1       2.181  11.328   4.961  0.00  0.00    +0.009 C 
ATOM     32  C   UNL     1       2.393   9.815   5.035  0.00  0.00    +0.032 C 
ENDBRANCH  25  32
ENDBRANCH   1  28
TORSDOF 2
