REMARK  Name = ZINC21263476
REMARK  15 active torsions:
REMARK  status: ('A' for Active; 'I' for Inactive)
REMARK    1  A    between atoms: C_1  and  C_2
REMARK    2  A    between atoms: C_2  and  C_32
REMARK    3  A    between atoms: C_4  and  N_10
REMARK    4  A    between atoms: C_6  and  C_8
REMARK    5  A    between atoms: C_6  and  C_9
REMARK    6  A    between atoms: N_10  and  C_11
REMARK    7  A    between atoms: C_11  and  N_13
REMARK    8  A    between atoms: N_13  and  C_14
REMARK    9  A    between atoms: N_13  and  C_25
REMARK   10  A    between atoms: C_14  and  C_15
REMARK   11  A    between atoms: C_18  and  O_23
REMARK   12  A    between atoms: C_20  and  O_21
REMARK   13  A    between atoms: O_21  and  C_22
REMARK   14  A    between atoms: O_23  and  C_24
REMARK   15  A    between atoms: C_25  and  C_26
REMARK                            x       y       z     vdW  Elec       q    Type
REMARK                         _______ _______ _______ _____ _____    ______ ____
ROOT
ATOM      1  N   UNL     1       3.350   3.592   0.806  0.00  0.00    -0.306 N 
ENDROOT
BRANCH   1   2
ATOM      2  C   UNL     1       4.458   3.297   1.514  0.00  0.00    +0.133 C 
ATOM      3  S   UNL     1       5.918   4.138   1.211  0.00  0.00    -0.019 S 
BRANCH   2   4
ATOM      4  N   UNL     1       4.417   2.339   2.461  0.00  0.00    -0.324 N 
ATOM      5  H   UNL     1       3.479   1.798   2.656  0.00  0.00    +0.148 HD
BRANCH   4   9
ATOM      6  C   UNL     1       7.076   2.306   5.974  0.00  0.00    -0.010 C 
ATOM      7  C   UNL     1       6.453   1.034   5.387  0.00  0.00    -0.072 C 
ATOM      8  C   UNL     1       5.216   1.400   4.571  0.00  0.00    +0.009 C 
ATOM      9  C   UNL     1       5.624   2.017   3.233  0.00  0.00    +0.069 C 
ATOM     10  C   UNL     1       6.457   0.994   2.461  0.00  0.00    +0.009 C 
ATOM     11  C   UNL     1       7.710   0.625   3.251  0.00  0.00    -0.072 C 
ATOM     12  N   UNL     1       7.427   0.277   4.628  0.00  0.00    +0.386 N 
ATOM     13  C   UNL     1       8.726   1.770   3.166  0.00  0.00    -0.010 C 
ATOM     14  C   UNL     1       8.348  -0.603   2.564  0.00  0.00    -0.010 C 
ATOM     15  C   UNL     1       5.986   0.164   6.575  0.00  0.00    -0.010 C 
ATOM     16  H   UNL     1       8.408   0.342   5.122  0.00  0.00    -0.084 HD
ATOM     17  H   UNL     1       7.113  -0.775   4.574  0.00  0.00    -0.084 HD
ENDBRANCH   4   9
ENDBRANCH   2   4
ENDBRANCH   1   2
BRANCH   1  18
ATOM     18  C   UNL     1       3.420   4.558  -0.293  0.00  0.00    +0.145 C 
BRANCH  18  19
ATOM     19  C   UNL     1       3.206   5.949   0.246  0.00  0.00    +0.012 A 
ATOM     20  C   UNL     1       4.291   6.771   0.486  0.00  0.00    +0.012 A 
ATOM     21  C   UNL     1       4.098   8.048   0.976  0.00  0.00    +0.046 A 
ATOM     22  C   UNL     1       2.814   8.505   1.238  0.00  0.00    +0.124 A 
ATOM     23  C   UNL     1       1.725   7.681   1.004  0.00  0.00    +0.091 A 
ATOM     24  C   UNL     1       1.921   6.402   0.507  0.00  0.00    +0.128 A 
BRANCH  24  25
ATOM     25  O   UNL     1       0.855   5.591   0.276  0.00  0.00    -0.495 OA
ATOM     26  C   UNL     1      -0.440   6.123   0.567  0.00  0.00    +0.277 C 
ENDBRANCH  24  25
BRANCH  22  27
ATOM     27  O   UNL     1       2.626   9.760   1.726  0.00  0.00    -0.495 OA
ATOM     28  C   UNL     1       3.794  10.554   1.943  0.00  0.00    +0.277 C 
ENDBRANCH  22  27
ENDBRANCH  18  19
ENDBRANCH   1  18
BRANCH   1  29
ATOM     29  C   UNL     1       2.077   2.947   1.134  0.00  0.00    +0.138 C 
BRANCH  29  30
ATOM     30  C   UNL     1       1.937   1.654   0.329  0.00  0.00    +0.136 C 
ATOM     31  C   UNL     1       0.548   1.021   0.565  0.00  0.00    +0.035 C 
ATOM     32  C   UNL     1       0.826  -0.499   0.582  0.00  0.00    +0.031 C 
ATOM     33  C   UNL     1       2.350  -0.604   0.354  0.00  0.00    +0.160 C 
ATOM     34  O   UNL     1       2.878   0.664   0.798  0.00  0.00    -0.375 OA
ENDBRANCH  29  30
ENDBRANCH   1  29
TORSDOF 9
