REMARK  Name = ZINC59958044
REMARK  11 active torsions:
REMARK  status: ('A' for Active; 'I' for Inactive)
REMARK    1  A    between atoms: C_1  and  O_2
REMARK    2  A    between atoms: O_2  and  C_3
REMARK    3  A    between atoms: C_5  and  C_12
REMARK    4  A    between atoms: C_8  and  O_9
REMARK    5  A    between atoms: O_9  and  C_10
REMARK    6  A    between atoms: C_12  and  N_13
REMARK    7  A    between atoms: N_13  and  C_14
REMARK    8  A    between atoms: N_13  and  C_22
REMARK    9  A    between atoms: C_14  and  C_15
REMARK   10  A    between atoms: C_15  and  C_16
REMARK   11  A    between atoms: C_22  and  C_23
REMARK                            x       y       z     vdW  Elec       q    Type
REMARK                         _______ _______ _______ _____ _____    ______ ____
ROOT
ATOM      1  N   UNL     1      -5.476   0.585  -1.563  0.00  0.00    +0.388 N 
ATOM      2  H   UNL     1      -4.786   1.181  -1.994  0.00  0.00    -0.081 HD
ENDROOT
BRANCH   1   3
ATOM      3  C   UNL     1      -5.055   0.258  -0.194  0.00  0.00    -0.042 C 
BRANCH   3   6
ATOM      4  C   UNL     1      -1.292  -0.081  -0.150  0.00  0.00    +0.163 A 
ATOM      5  C   UNL     1      -2.563   0.472  -0.124  0.00  0.00    +0.051 A 
ATOM      6  C   UNL     1      -3.674  -0.345  -0.223  0.00  0.00    -0.059 A 
ATOM      7  C   UNL     1      -3.522  -1.713  -0.349  0.00  0.00    +0.021 A 
ATOM      8  C   UNL     1      -2.256  -2.271  -0.376  0.00  0.00    +0.063 A 
ATOM      9  C   UNL     1      -1.138  -1.457  -0.283  0.00  0.00    +0.175 A 
ATOM     10 BR   UNL     1      -2.052  -4.143  -0.546  0.00  0.00    -0.046 Br
BRANCH   4  12
ATOM     11  C   UNL     1      -0.433   2.125   0.082  0.00  0.00    +0.277 C 
ATOM     12  O   UNL     1      -0.199   0.721  -0.052  0.00  0.00    -0.491 OA
ENDBRANCH   4  12
BRANCH   9  13
ATOM     13  O   UNL     1       0.107  -2.003  -0.315  0.00  0.00    -0.490 OA
ATOM     14  C   UNL     1       0.679  -2.388   0.937  0.00  0.00    +0.277 C 
ENDBRANCH   9  13
ENDBRANCH   3   6
ENDBRANCH   1   3
BRANCH   1  15
ATOM     15  C   UNL     1      -6.769   1.280  -1.525  0.00  0.00    -0.077 C 
BRANCH  15  16
ATOM     16  C   UNL     1      -6.600   2.634  -0.832  0.00  0.00    -0.015 C 
BRANCH  16  17
ATOM     17  C   UNL     1      -7.915   3.412  -0.904  0.00  0.00    -0.013 C 
ATOM     18  C   UNL     1      -8.234   3.741  -2.364  0.00  0.00    +0.003 C 
ATOM     19  C   UNL     1      -9.549   4.519  -2.436  0.00  0.00    +0.000 C 
ATOM     20  C   UNL     1      -9.418   5.818  -1.637  0.00  0.00    +0.000 C 
ATOM     21  C   UNL     1      -9.100   5.489  -0.177  0.00  0.00    +0.000 C 
ATOM     22  C   UNL     1      -7.784   4.711  -0.105  0.00  0.00    +0.003 C 
ENDBRANCH  16  17
ENDBRANCH  15  16
ENDBRANCH   1  15
BRANCH   1  23
ATOM     23  C   UNL     1      -5.609  -0.653  -2.342  0.00  0.00    +0.019 C 
BRANCH  23  24
ATOM     24  C   UNL     1      -5.880  -0.312  -3.785  0.00  0.00    +0.194 C 
ATOM     25  O   UNL     1      -5.851   0.844  -4.150  0.00  0.00    -0.278 OA
ATOM     26  N   UNL     1      -6.156  -1.292  -4.669  0.00  0.00    -0.331 N 
ATOM     27  H   UNL     1      -6.180  -2.216  -4.376  0.00  0.00    +0.145 HD
ATOM     28  H   UNL     1      -6.331  -1.072  -5.597  0.00  0.00    +0.145 HD
ENDBRANCH  23  24
ENDBRANCH   1  23
TORSDOF 9
