REMARK  Name = ZINC12711209
REMARK  10 active torsions:
REMARK  status: ('A' for Active; 'I' for Inactive)
REMARK    1  A    between atoms: C_1  and  C_2
REMARK    2  A    between atoms: C_7  and  N_8
REMARK    3  A    between atoms: N_8  and  C_9
REMARK    4  A    between atoms: C_9  and  C_11
REMARK    5  A    between atoms: C_9  and  C_16
REMARK    6  A    between atoms: N_18  and  C_19
REMARK    7  A    between atoms: C_19  and  C_20
REMARK    8  A    between atoms: C_26  and  C_28
REMARK    9  A    between atoms: C_29  and  N_36
REMARK   10  A    between atoms: C_30  and  C_33
REMARK                            x       y       z     vdW  Elec       q    Type
REMARK                         _______ _______ _______ _____ _____    ______ ____
ROOT
ATOM      1  N   UNL     1      -1.187   1.797   0.109  0.00  0.00    -0.250 N 
ATOM      2  C   UNL     1      -0.167   1.013  -0.294  0.00  0.00    +0.262 C 
ATOM      3  O   UNL     1      -0.382  -0.131  -0.650  0.00  0.00    -0.269 OA
ENDROOT
BRANCH   1  10
ATOM      4  C   UNL     1      -0.456   2.244   2.822  0.00  0.00    +0.045 C 
ATOM      5  C   UNL     1      -0.580   3.375   1.833  0.00  0.00    -0.029 A 
ATOM      6  C   UNL     1      -0.337   4.674   2.234  0.00  0.00    +0.005 A 
ATOM      7  C   UNL     1      -0.450   5.711   1.327  0.00  0.00    +0.000 A 
ATOM      8  C   UNL     1      -0.807   5.452   0.016  0.00  0.00    +0.002 A 
ATOM      9  C   UNL     1      -1.046   4.155  -0.393  0.00  0.00    +0.024 A 
ATOM     10  C   UNL     1      -0.939   3.111   0.518  0.00  0.00    +0.041 A 
ENDBRANCH   1  10
BRANCH   2  11
ATOM     11  C   UNL     1       1.199   1.540  -0.310  0.00  0.00    +0.116 A 
ATOM     12  C   UNL     1       2.386   0.910  -0.690  0.00  0.00    +0.076 A 
ATOM     13  C   UNL     1       3.497   1.745  -0.566  0.00  0.00    +0.155 A 
ATOM     14  N   UNL     1       3.332   2.974  -0.128  0.00  0.00    -0.203 NA
ATOM     15  S   UNL     1       1.791   3.157   0.144  0.00  0.00    +0.019 S 
BRANCH  13  16
ATOM     16  C   UNL     1       4.840   1.255  -0.923  0.00  0.00    +0.262 C 
ATOM     17  O   UNL     1       4.985   0.117  -1.327  0.00  0.00    -0.269 OA
ATOM     18  N   UNL     1       5.909   2.067  -0.800  0.00  0.00    -0.324 N 
ATOM     19  H   UNL     1       5.793   2.975  -0.477  0.00  0.00    +0.145 HD
ATOM     20  H   UNL     1       6.793   1.745  -1.034  0.00  0.00    +0.145 HD
ENDBRANCH  13  16
BRANCH  12  21
ATOM     21  N   UNL     1       2.453  -0.401  -1.143  0.00  0.00    -0.355 N 
ATOM     22  H   UNL     1       1.645  -0.933  -1.209  0.00  0.00    +0.142 HD
ATOM     23  H   UNL     1       3.308  -0.784  -1.394  0.00  0.00    +0.142 HD
ENDBRANCH  12  21
ENDBRANCH   2  11
BRANCH   1  24
ATOM     24  C   UNL     1      -2.554   1.272   0.118  0.00  0.00    +0.204 C 
BRANCH  24  25
ATOM     25  C   UNL     1      -3.162   1.478   1.482  0.00  0.00    +0.019 A 
ATOM     26  C   UNL     1      -3.731   0.567   2.309  0.00  0.00    +0.013 A 
ATOM     27  C   UNL     1      -4.225   0.987   3.530  0.00  0.00    +0.008 A 
ATOM     28  C   UNL     1      -4.134   2.298   3.860  0.00  0.00    +0.045 A 
ATOM     29  S   UNL     1      -3.324   2.985   2.425  0.00  0.00    -0.099 S 
ENDBRANCH  24  25
BRANCH  24  30
ATOM     30  C   UNL     1      -3.378   1.998  -0.913  0.00  0.00    +0.239 C 
ATOM     31  O   UNL     1      -2.873   2.869  -1.590  0.00  0.00    -0.273 OA
ATOM     32  N   UNL     1      -4.677   1.681  -1.083  0.00  0.00    -0.311 N 
ATOM     33  H   UNL     1      -5.081   0.984  -0.542  0.00  0.00    +0.149 HD
BRANCH  32  34
ATOM     34  C   UNL     1      -5.478   2.387  -2.086  0.00  0.00    +0.135 C 
BRANCH  34  35
ATOM     35  C   UNL     1      -6.907   1.838  -2.076  0.00  0.00    +0.135 C 
ATOM     36  C   UNL     1      -7.758   2.575  -3.128  0.00  0.00    +0.035 C 
ATOM     37  C   UNL     1      -8.260   1.450  -4.066  0.00  0.00    +0.031 C 
ATOM     38  C   UNL     1      -8.112   0.192  -3.172  0.00  0.00    +0.160 C 
ATOM     39  O   UNL     1      -6.898   0.446  -2.432  0.00  0.00    -0.375 OA
ENDBRANCH  34  35
ENDBRANCH  32  34
ENDBRANCH  24  30
ENDBRANCH   1  24
TORSDOF 9
