REMARK  Name = ZINC36599964
REMARK  11 active torsions:
REMARK  status: ('A' for Active; 'I' for Inactive)
REMARK    1  A    between atoms: C_1  and  C_2
REMARK    2  A    between atoms: C_5  and  C_7
REMARK    3  A    between atoms: C_7  and  N_8
REMARK    4  A    between atoms: N_8  and  C_9
REMARK    5  A    between atoms: C_9  and  C_11
REMARK    6  A    between atoms: C_9  and  C_20
REMARK    7  A    between atoms: C_12  and  O_19
REMARK    8  A    between atoms: C_14  and  O_18
REMARK    9  A    between atoms: C_16  and  O_17
REMARK   10  A    between atoms: N_22  and  C_23
REMARK   11  A    between atoms: C_29  and  C_31
REMARK                            x       y       z     vdW  Elec       q    Type
REMARK                         _______ _______ _______ _____ _____    ______ ____
ROOT
ATOM      1  C   UNL     1       3.009  -2.898  -2.050  0.00  0.00    +0.200 C 
ENDROOT
BRANCH   1   2
ATOM      2  C   UNL     1       3.096  -4.324  -2.529  0.00  0.00    +0.065 A 
ATOM      3  C   UNL     1       3.935  -4.652  -3.583  0.00  0.00    +0.129 A 
ATOM      4  C   UNL     1       4.015  -5.964  -4.024  0.00  0.00    +0.091 A 
ATOM      5  C   UNL     1       3.256  -6.949  -3.410  0.00  0.00    +0.124 A 
ATOM      6  C   UNL     1       2.418  -6.622  -2.355  0.00  0.00    +0.091 A 
ATOM      7  C   UNL     1       2.341  -5.310  -1.912  0.00  0.00    +0.129 A 
BRANCH   7   8
ATOM      8  O   UNL     1       1.523  -4.990  -0.875  0.00  0.00    -0.506 OA
ATOM      9  H   UNL     1       0.602  -4.845  -1.131  0.00  0.00    +0.292 HD
ENDBRANCH   7   8
BRANCH   5  10
ATOM     10  O   UNL     1       3.334  -8.235  -3.842  0.00  0.00    -0.507 OA
ATOM     11  H   UNL     1       4.014  -8.759  -3.397  0.00  0.00    +0.292 HD
ENDBRANCH   5  10
BRANCH   3  12
ATOM     12  O   UNL     1       4.679  -3.687  -4.185  0.00  0.00    -0.506 OA
ATOM     13  H   UNL     1       5.579  -3.612  -3.840  0.00  0.00    +0.292 HD
ENDBRANCH   3  12
ENDBRANCH   1   2
BRANCH   1  14
ATOM     14  C   UNL     1       2.937  -1.973  -3.238  0.00  0.00    +0.239 C 
ATOM     15  O   UNL     1       1.920  -1.911  -3.897  0.00  0.00    -0.273 OA
ATOM     16  N   UNL     1       4.001  -1.215  -3.568  0.00  0.00    -0.311 N 
ATOM     17  H   UNL     1       4.845  -1.336  -3.105  0.00  0.00    +0.149 HD
BRANCH  16  18
ATOM     18  C   UNL     1       3.883  -0.208  -4.625  0.00  0.00    +0.073 C 
ATOM     19  C   UNL     1       4.116  -0.867  -5.986  0.00  0.00    +0.022 C 
ATOM     20  C   UNL     1       3.994   0.185  -7.090  0.00  0.00    +0.002 C 
ATOM     21  C   UNL     1       5.038   1.280  -6.869  0.00  0.00    +0.000 C 
ATOM     22  C   UNL     1       4.805   1.940  -5.508  0.00  0.00    +0.002 C 
ATOM     23  C   UNL     1       4.928   0.888  -4.404  0.00  0.00    +0.022 C 
ENDBRANCH  16  18
ENDBRANCH   1  14
BRANCH   1  24
ATOM     24  N   UNL     1       1.809  -2.731  -1.227  0.00  0.00    -0.277 N 
ATOM     25  C   UNL     1       0.590  -2.940  -1.763  0.00  0.00    +0.231 C 
ATOM     26  O   UNL     1       0.488  -3.452  -2.858  0.00  0.00    -0.274 OA
BRANCH  25  27
ATOM     27  C   UNL     1      -0.647  -2.537  -1.002  0.00  0.00    +0.204 C 
ATOM     28 CL   UNL     1      -2.110  -2.942  -1.975  0.00  0.00    -0.116 Cl
ENDBRANCH  25  27
BRANCH  24  29
ATOM     29  C   UNL     1       1.933  -2.338   0.179  0.00  0.00    +0.183 C 
BRANCH  29  34
ATOM     30  C   UNL     1       3.482   2.459   0.359  0.00  0.00    +0.086 C 
ATOM     31  C   UNL     1       2.581   1.251   0.362  0.00  0.00    +0.102 A 
ATOM     32  C   UNL     1       1.242   1.268   0.493  0.00  0.00    +0.045 A 
ATOM     33  C   UNL     1       0.808  -0.076   0.442  0.00  0.00    +0.046 A 
ATOM     34  C   UNL     1       1.907  -0.835   0.284  0.00  0.00    +0.122 A 
ATOM     35  O   UNL     1       2.978  -0.025   0.230  0.00  0.00    -0.463 OA
ENDBRANCH  29  34
ENDBRANCH  24  29
ENDBRANCH   1  24
TORSDOF 10
