REMARK  Name = ZINC10078406
REMARK  10 active torsions:
REMARK  status: ('A' for Active; 'I' for Inactive)
REMARK    1  A    between atoms: C_1  and  C_2
REMARK    2  A    between atoms: C_5  and  S_8
REMARK    3  A    between atoms: S_8  and  N_11
REMARK    4  A    between atoms: C_12  and  C_13
REMARK    5  A    between atoms: C_13  and  N_72
REMARK    6  A    between atoms: N_22  and  S_28
REMARK    7  A    between atoms: C_23  and  C_25
REMARK    8  A    between atoms: C_25  and  C_26
REMARK    9  A    between atoms: C_25  and  C_27
REMARK   10  A    between atoms: S_28  and  C_31
REMARK                            x       y       z     vdW  Elec       q    Type
REMARK                         _______ _______ _______ _____ _____    ______ ____
ROOT
ATOM      1  N   UNL     1      -3.377   0.728  -2.644  0.00  0.00    -0.120 NA
ATOM      2  C   UNL     1      -2.297   0.447  -1.990  0.00  0.00    +0.104 C 
ATOM      3  N   UNL     1      -2.290   0.503  -0.621  0.00  0.00    -0.300 N 
ATOM      4  C   UNL     1      -3.376   1.011   0.234  0.00  0.00    +0.125 C 
ATOM      5  C   UNL     1      -3.071   0.459   1.640  0.00  0.00    +0.130 C 
ATOM      6  N   UNL     1      -1.601   0.306   1.653  0.00  0.00    -0.154 NA
ATOM      7  C   UNL     1      -1.199   0.068   0.260  0.00  0.00    +0.169 C 
ENDROOT
BRANCH   1   8
ATOM      8  S   UNL     1      -4.821   0.854  -1.842  0.00  0.00    +0.100 S 
ATOM      9  O   UNL     1      -5.033  -0.391  -1.190  0.00  0.00    -0.146 OA
ATOM     10  O   UNL     1      -4.788   2.087  -1.138  0.00  0.00    -0.146 OA
BRANCH   8  15
ATOM     11  C   UNL     1      -9.143   1.368  -6.021  0.00  0.00    +0.044 C 
ATOM     12  C   UNL     1      -8.063   1.240  -4.977  0.00  0.00    -0.050 A 
ATOM     13  C   UNL     1      -7.758  -0.000  -4.448  0.00  0.00    +0.005 A 
ATOM     14  C   UNL     1      -6.767  -0.118  -3.491  0.00  0.00    +0.029 A 
ATOM     15  C   UNL     1      -6.083   1.004  -3.062  0.00  0.00    +0.113 A 
ATOM     16  C   UNL     1      -6.392   2.245  -3.588  0.00  0.00    +0.029 A 
ATOM     17  C   UNL     1      -7.379   2.362  -4.548  0.00  0.00    +0.005 A 
ENDBRANCH   8  15
ENDBRANCH   1   8
BRANCH   7  18
ATOM     18  C   UNL     1       0.067   0.867  -0.055  0.00  0.00    +0.020 C 
ATOM     19  C   UNL     1      -0.126   2.321   0.380  0.00  0.00    +0.010 C 
ATOM     20  C   UNL     1       1.253   0.262   0.699  0.00  0.00    +0.010 C 
ENDBRANCH   7  18
BRANCH   6  21
ATOM     21  S   UNL     1      -0.606   0.386   2.974  0.00  0.00    +0.063 S 
ATOM     22  O   UNL     1      -1.372  -0.052   4.087  0.00  0.00    -0.153 OA
ATOM     23  O   UNL     1       0.617  -0.234   2.599  0.00  0.00    -0.153 OA
BRANCH  21  24
ATOM     24  C   UNL     1      -0.243   2.088   3.250  0.00  0.00    +0.106 A 
ATOM     25  C   UNL     1       1.040   2.563   3.048  0.00  0.00    +0.028 A 
ATOM     26  C   UNL     1       1.323   3.899   3.260  0.00  0.00    +0.002 A 
ATOM     27  C   UNL     1       0.327   4.758   3.684  0.00  0.00    +0.000 A 
ATOM     28  C   UNL     1      -0.954   4.282   3.892  0.00  0.00    +0.002 A 
ATOM     29  C   UNL     1      -1.239   2.947   3.675  0.00  0.00    +0.028 A 
ENDBRANCH  21  24
ENDBRANCH   6  21
BRANCH   2  30
ATOM     30  C   UNL     1      -1.046   0.058  -2.734  0.00  0.00    -0.004 C 
BRANCH  30  36
ATOM     31  C   UNL     1      -2.276  -1.080  -4.481  0.00  0.00    -0.078 C 
ATOM     32  C   UNL     1      -2.660  -1.018  -5.961  0.00  0.00    -0.019 C 
ATOM     33  C   UNL     1      -1.399  -1.160  -6.817  0.00  0.00    -0.004 C 
ATOM     34  C   UNL     1      -0.411  -0.052  -6.444  0.00  0.00    -0.019 C 
ATOM     35  C   UNL     1      -0.092  -0.142  -4.950  0.00  0.00    -0.078 C 
ATOM     36  N   UNL     1      -1.343   0.027  -4.181  0.00  0.00    +0.384 N 
ATOM     37  H   UNL     1      -1.782   0.915  -4.450  0.00  0.00    -0.081 HD
ENDBRANCH  30  36
ENDBRANCH   2  30
TORSDOF 7
