REMARK  Name = ZINC25762985
REMARK  12 active torsions:
REMARK  status: ('A' for Active; 'I' for Inactive)
REMARK    1  A    between atoms: C_1  and  C_2
REMARK    2  A    between atoms: C_2  and  C_3
REMARK    3  A    between atoms: C_6  and  O_9
REMARK    4  A    between atoms: O_9  and  C_10
REMARK    5  A    between atoms: C_10  and  C_11
REMARK    6  A    between atoms: N_13  and  C_14
REMARK    7  A    between atoms: C_14  and  C_16
REMARK    8  A    between atoms: C_14  and  N_20
REMARK    9  A    between atoms: N_20  and  C_21
REMARK   10  A    between atoms: C_21  and  N_23
REMARK   11  A    between atoms: N_23  and  C_24
REMARK   12  A    between atoms: C_29  and  N_30
REMARK                            x       y       z     vdW  Elec       q    Type
REMARK                         _______ _______ _______ _____ _____    ______ ____
ROOT
ATOM      1  C   UNL     1      -2.981   5.066  -0.483  0.00  0.00    +0.211 C 
ENDROOT
BRANCH   1   4
ATOM      2  C   UNL     1      -2.510   6.008  -2.681  0.00  0.00    +0.252 C 
ATOM      3  O   UNL     1      -1.377   6.232  -2.309  0.00  0.00    -0.272 OA
ATOM      4  N   UNL     1      -3.391   5.427  -1.843  0.00  0.00    -0.291 N 
ATOM      5  H   UNL     1      -4.418   5.223  -2.179  0.00  0.00    +0.151 HD
BRANCH   2   6
ATOM      6  C   UNL     1      -2.932   6.379  -4.079  0.00  0.00    +0.324 C 
BRANCH   6   7
ATOM      7  O   UNL     1      -1.830   6.976  -4.766  0.00  0.00    -0.483 OA
BRANCH   7  11
ATOM      8  C   UNL     1      -2.481   8.175  -8.660  0.00  0.00    -0.047 A 
ATOM      9  C   UNL     1      -1.239   8.358  -8.079  0.00  0.00    +0.007 A 
ATOM     10  C   UNL     1      -1.019   7.958  -6.776  0.00  0.00    +0.046 A 
ATOM     11  C   UNL     1      -2.045   7.371  -6.049  0.00  0.00    +0.121 A 
ATOM     12  C   UNL     1      -3.288   7.183  -6.636  0.00  0.00    +0.046 A 
ATOM     13  C   UNL     1      -3.505   7.591  -7.937  0.00  0.00    +0.007 A 
BRANCH   8  15
ATOM     14  C   UNL     1      -2.387   7.461 -11.033  0.00  0.00    +0.009 C 
ATOM     15  C   UNL     1      -2.718   8.613 -10.082  0.00  0.00    +0.032 C 
ENDBRANCH   8  15
ENDBRANCH   7  11
ENDBRANCH   6   7
ENDBRANCH   2   6
ENDBRANCH   1   4
BRANCH   1  16
ATOM     16  C   UNL     1      -4.064   5.497   0.508  0.00  0.00    +0.225 C 
ATOM     17 CL   UNL     1      -3.559   5.053   2.181  0.00  0.00    -0.080 Cl
ATOM     18 CL   UNL     1      -4.297   7.282   0.404  0.00  0.00    -0.080 Cl
ATOM     19 CL   UNL     1      -5.612   4.664   0.106  0.00  0.00    -0.080 Cl
ENDBRANCH   1  16
BRANCH   1  20
ATOM     20  N   UNL     1      -2.791   3.616  -0.399  0.00  0.00    -0.305 N 
ATOM     21  H   UNL     1      -3.664   2.948  -0.366  0.00  0.00    +0.150 HD
BRANCH  20  22
ATOM     22  C   UNL     1      -1.546   3.100  -0.363  0.00  0.00    +0.136 C 
ATOM     23  S   UNL     1      -0.187   4.139  -0.415  0.00  0.00    -0.019 S 
BRANCH  22  24
ATOM     24  N   UNL     1      -1.372   1.766  -0.285  0.00  0.00    -0.295 N 
ATOM     25  H   UNL     1      -2.242   1.094  -0.326  0.00  0.00    +0.154 HD
BRANCH  24  26
ATOM     26  C   UNL     1      -0.084   1.235  -0.153  0.00  0.00    +0.063 A 
ATOM     27  C   UNL     1       0.936   1.668  -0.990  0.00  0.00    +0.025 A 
ATOM     28  C   UNL     1       2.205   1.138  -0.862  0.00  0.00    +0.002 A 
ATOM     29  C   UNL     1       2.460   0.178   0.100  0.00  0.00    +0.002 A 
ATOM     30  C   UNL     1       1.447  -0.255   0.935  0.00  0.00    +0.034 A 
ATOM     31  C   UNL     1       0.175   0.271   0.811  0.00  0.00    +0.147 A 
BRANCH  31  32
ATOM     32  N   UNL     1      -0.909  -0.194   1.705  0.00  0.00    +0.058 N 
ATOM     33  O   UNL     1      -0.708  -1.111   2.481  0.00  0.00    -0.126 OA
ATOM     34  O   UNL     1      -2.002   0.342   1.665  0.00  0.00    -0.126 OA
ENDBRANCH  31  32
ENDBRANCH  24  26
ENDBRANCH  22  24
ENDBRANCH  20  22
ENDBRANCH   1  20
TORSDOF 11
