REMARK  Name = ZINC26600016
REMARK  5 active torsions:
REMARK  status: ('A' for Active; 'I' for Inactive)
REMARK    1  A    between atoms: C_1  and  O_2
REMARK    2  A    between atoms: O_2  and  C_3
REMARK    3  A    between atoms: C_6  and  C_9
REMARK    4  A    between atoms: N_19  and  C_22
REMARK    5  A    between atoms: C_22  and  C_23
REMARK                            x       y       z     vdW  Elec       q    Type
REMARK                         _______ _______ _______ _____ _____    ______ ____
ROOT
ATOM      1  C   UNL     1      -4.680  -2.957   0.124  0.00  0.00    +0.087 C 
ATOM      2  C   UNL     1      -5.010  -3.808   1.317  0.00  0.00    +0.071 C 
ATOM      3  C   UNL     1      -6.475  -3.903   1.556  0.00  0.00    +0.027 C 
ATOM      4  C   UNL     1      -6.858  -3.892   2.886  0.00  0.00    +0.116 C 
ATOM      5  C   UNL     1      -5.901  -4.201   3.963  0.00  0.00    +0.258 C 
ATOM      6  O   UNL     1      -4.743  -4.476   3.711  0.00  0.00    -0.270 OA
ATOM      7  N   UNL     1      -6.344  -4.171   5.237  0.00  0.00    -0.235 N 
ATOM      8  C   UNL     1      -7.617  -3.870   5.529  0.00  0.00    +0.316 C 
ATOM      9  O   UNL     1      -7.953  -3.860   6.697  0.00  0.00    -0.252 OA
ATOM     10  N   UNL     1      -8.540  -3.578   4.601  0.00  0.00    -0.217 N 
ATOM     11  C   UNL     1      -8.237  -3.565   3.287  0.00  0.00    +0.261 C 
ATOM     12  O   UNL     1      -9.082  -3.294   2.454  0.00  0.00    -0.269 OA
ATOM     13  N   UNL     1      -7.440  -3.994   0.709  0.00  0.00    -0.316 N 
ATOM     14  C   UNL     1      -7.710  -3.848  -0.624  0.00  0.00    +0.045 A 
ATOM     15  C   UNL     1      -9.079  -3.831  -0.943  0.00  0.00    +0.024 A 
ATOM     16  C   UNL     1      -9.520  -3.693  -2.236  0.00  0.00    +0.002 A 
ATOM     17  C   UNL     1      -8.600  -3.565  -3.262  0.00  0.00    +0.001 A 
ATOM     18  C   UNL     1      -7.257  -3.580  -2.969  0.00  0.00    +0.016 A 
ATOM     19  C   UNL     1      -6.791  -3.723  -1.654  0.00  0.00    +0.030 A 
ATOM     20  S   UNL     1      -5.056  -3.734  -1.440  0.00  0.00    -0.115 S 
ATOM     21  H   UNL     1      -5.727  -4.373   5.958  0.00  0.00    +0.159 HD
ATOM     22  H   UNL     1      -8.251  -4.254   1.174  0.00  0.00    +0.152 HD
ENDROOT
BRANCH   1  26
ATOM     23  C   UNL     1      -0.507  -2.037   0.221  0.00  0.00    +0.120 A 
ATOM     24  C   UNL     1      -1.446  -1.018   0.296  0.00  0.00    +0.046 A 
ATOM     25  C   UNL     1      -2.794  -1.318   0.264  0.00  0.00    +0.008 A 
ATOM     26  C   UNL     1      -3.208  -2.633   0.158  0.00  0.00    -0.034 A 
ATOM     27  C   UNL     1      -2.275  -3.650   0.084  0.00  0.00    +0.008 A 
ATOM     28  C   UNL     1      -0.926  -3.355   0.109  0.00  0.00    +0.046 A 
BRANCH  23  30
ATOM     29  C   UNL     1       1.177  -0.366   0.368  0.00  0.00    +0.277 C 
ATOM     30  O   UNL     1       0.819  -1.744   0.251  0.00  0.00    -0.495 OA
ENDBRANCH  23  30
ENDBRANCH   1  26
BRANCH  10  31
ATOM     31  C   UNL     1      -9.906  -3.262   5.025  0.00  0.00    +0.153 C 
BRANCH  31  32
ATOM     32  C   UNL     1     -10.028  -1.778   5.258  0.00  0.00    -0.030 A 
ATOM     33  C   UNL     1      -9.760  -1.251   6.508  0.00  0.00    +0.005 A 
ATOM     34  C   UNL     1      -9.873   0.110   6.722  0.00  0.00    +0.000 A 
ATOM     35  C   UNL     1     -10.253   0.944   5.687  0.00  0.00    +0.000 A 
ATOM     36  C   UNL     1     -10.520   0.416   4.437  0.00  0.00    +0.000 A 
ATOM     37  C   UNL     1     -10.404  -0.944   4.222  0.00  0.00    +0.005 A 
ENDBRANCH  31  32
ENDBRANCH  10  31
TORSDOF 4
