REMARK  Name = ZINC36821267
REMARK  10 active torsions:
REMARK  status: ('A' for Active; 'I' for Inactive)
REMARK    1  A    between atoms: C_1  and  C_2
REMARK    2  A    between atoms: C_3  and  C_32
REMARK    3  A    between atoms: N_9  and  C_29
REMARK    4  A    between atoms: C_10  and  S_12
REMARK    5  A    between atoms: S_12  and  C_13
REMARK    6  A    between atoms: C_13  and  C_14
REMARK    7  A    between atoms: C_16  and  O_17
REMARK    8  A    between atoms: C_26  and  C_28
REMARK    9  A    between atoms: C_29  and  C_30
REMARK   10  A    between atoms: C_29  and  C_31
REMARK                            x       y       z     vdW  Elec       q    Type
REMARK                         _______ _______ _______ _____ _____    ______ ____
ROOT
ATOM      1  C   UNL     1       0.098  -6.012   3.690  0.00  0.00    +0.113 C 
ENDROOT
BRANCH   1   2
ATOM      2  C   UNL     1      -0.031  -6.794   4.972  0.00  0.00    -0.020 A 
ATOM      3  C   UNL     1       1.008  -6.838   5.880  0.00  0.00    +0.092 A 
ATOM      4  C   UNL     1       0.871  -7.563   7.054  0.00  0.00    +0.285 A 
ATOM      5  O   UNL     1      -0.255  -8.229   7.334  0.00  0.00    -0.425 OA
ATOM      6  C   UNL     1      -1.301  -8.220   6.482  0.00  0.00    +0.141 A 
ATOM      7  C   UNL     1      -1.218  -7.493   5.273  0.00  0.00    +0.022 A 
ATOM      8  C   UNL     1      -2.309  -7.477   4.385  0.00  0.00    +0.013 A 
ATOM      9  C   UNL     1      -3.444  -8.157   4.693  0.00  0.00    +0.024 A 
ATOM     10  C   UNL     1      -3.537  -8.878   5.896  0.00  0.00    +0.037 A 
ATOM     11  C   UNL     1      -2.459  -8.913   6.783  0.00  0.00    +0.070 A 
ATOM     12  N   UNL     1      -4.680  -9.555   6.194  0.00  0.00    -0.286 N 
ATOM     13  C   UNL     1      -4.901  -9.967   7.426  0.00  0.00    +0.214 C 
ATOM     14  O   UNL     1      -4.145  -9.638   8.323  0.00  0.00    -0.276 OA
ATOM     15  C   UNL     1      -6.088 -10.847   7.726  0.00  0.00    +0.109 C 
ATOM     16  H   UNL     1      -5.332  -9.734   5.498  0.00  0.00    +0.155 HD
BRANCH   4  17
ATOM     17  O   UNL     1       1.893  -7.598   7.931  0.00  0.00    -0.480 OA
ATOM     18  H   UNL     1       1.714  -8.125   8.722  0.00  0.00    +0.295 HD
ENDBRANCH   4  17
ENDBRANCH   1   2
BRANCH   1  19
ATOM     19  S   UNL     1      -0.036  -4.238   4.048  0.00  0.00    -0.083 S 
BRANCH  19  29
ATOM     20  C   UNL     1       0.527  -0.374  -1.715  0.00  0.00    +0.045 C 
ATOM     21  C   UNL     1       0.555  -1.841  -1.370  0.00  0.00    -0.026 A 
ATOM     22  C   UNL     1       0.731  -2.760  -2.331  0.00  0.00    -0.008 A 
ATOM     23  S   UNL     1       0.688  -4.303  -1.440  0.00  0.00    -0.073 S 
ATOM     24  C   UNL     1       0.434  -3.669   0.198  0.00  0.00    +0.117 A 
ATOM     25  C   UNL     1       0.396  -2.275   0.007  0.00  0.00    +0.075 A 
ATOM     26  C   UNL     1       0.203  -1.490   1.187  0.00  0.00    +0.263 A 
ATOM     27  O   UNL     1       0.152  -0.274   1.118  0.00  0.00    -0.267 OA
ATOM     28  N   UNL     1       0.079  -2.111   2.374  0.00  0.00    -0.285 N 
ATOM     29  C   UNL     1       0.133  -3.471   2.471  0.00  0.00    +0.173 A 
ATOM     30  N   UNL     1       0.299  -4.219   1.399  0.00  0.00    -0.216 NA
ATOM     31  C   UNL     1       0.919  -2.541  -3.810  0.00  0.00    +0.052 C 
BRANCH  28  32
ATOM     32  C   UNL     1      -0.119  -1.312   3.586  0.00  0.00    +0.087 C 
ATOM     33  C   UNL     1       1.107  -0.426   3.819  0.00  0.00    +0.031 C 
ATOM     34  C   UNL     1      -1.360  -0.432   3.421  0.00  0.00    +0.031 C 
ENDBRANCH  28  32
ENDBRANCH  19  29
ENDBRANCH   1  19
TORSDOF 5
