REMARK  Name = ZINC16694911
REMARK  9 active torsions:
REMARK  status: ('A' for Active; 'I' for Inactive)
REMARK    1  A    between atoms: C_1  and  C_2
REMARK    2  A    between atoms: C_2  and  C_3
REMARK    3  A    between atoms: C_3  and  C_28
REMARK    4  A    between atoms: N_6  and  C_10
REMARK    5  A    between atoms: C_10  and  C_11
REMARK    6  A    between atoms: C_17  and  C_19
REMARK    7  A    between atoms: C_22  and  C_25
REMARK    8  A    between atoms: C_25  and  C_26
REMARK    9  A    between atoms: C_25  and  C_27
REMARK                            x       y       z     vdW  Elec       q    Type
REMARK                         _______ _______ _______ _____ _____    ______ ____
ROOT
ATOM      1  C   UNL     1      -1.187   1.624   0.017  0.00  0.00    +0.237 C 
ATOM      2  O   UNL     1      -1.204   2.837   0.023  0.00  0.00    -0.274 OA
ATOM      3  N   UNL     1      -0.011   0.966   0.007  0.00  0.00    -0.262 N 
ATOM      4  C   UNL     1       1.183   1.677  -0.000  0.00  0.00    +0.188 A 
ATOM      5  N   UNL     1       1.384   2.985  -0.001  0.00  0.00    -0.125 NA
ATOM      6  N   UNL     1       2.544   3.482  -0.004  0.00  0.00    -0.140 NA
ATOM      7  C   UNL     1       3.612   2.695  -0.019  0.00  0.00    +0.134 A 
ATOM      8  S   UNL     1       2.820   1.091  -0.019  0.00  0.00    -0.030 S 
ATOM      9  H   UNL     1       0.002  -0.004   0.002  0.00  0.00    +0.157 HD
ENDROOT
BRANCH   7  10
ATOM     10  C   UNL     1       5.048   3.043  -0.031  0.00  0.00    +0.009 A 
ATOM     11  C   UNL     1       6.014   2.036  -0.039  0.00  0.00    +0.011 A 
ATOM     12  C   UNL     1       7.353   2.369  -0.056  0.00  0.00    +0.004 A 
ATOM     13  C   UNL     1       7.739   3.697  -0.054  0.00  0.00    -0.045 A 
ATOM     14  C   UNL     1       6.787   4.701  -0.039  0.00  0.00    +0.004 A 
ATOM     15  C   UNL     1       5.444   4.382  -0.028  0.00  0.00    +0.011 A 
BRANCH  13  16
ATOM     16  C   UNL     1       9.204   4.053  -0.066  0.00  0.00    +0.013 C 
ATOM     17  C   UNL     1       9.881   3.466   1.174  0.00  0.00    +0.012 C 
ATOM     18  C   UNL     1       9.857   3.479  -1.325  0.00  0.00    +0.012 C 
ENDBRANCH  13  16
ENDBRANCH   7  10
BRANCH   1  19
ATOM     19  C   UNL     1      -2.482   0.853   0.018  0.00  0.00    +0.214 C 
BRANCH  19  23
ATOM     20  C   UNL     1      -5.299   3.195  -0.590  0.00  0.00    +0.138 C 
ATOM     21  C   UNL     1      -4.196   2.280  -1.081  0.00  0.00    +0.251 C 
ATOM     22  O   UNL     1      -3.902   2.039  -2.232  0.00  0.00    -0.272 OA
ATOM     23  N   UNL     1      -3.608   1.789   0.029  0.00  0.00    -0.215 N 
ATOM     24  C   UNL     1      -4.185   2.260   1.141  0.00  0.00    +0.310 C 
ATOM     25  O   UNL     1      -3.832   1.958   2.264  0.00  0.00    -0.252 OA
ATOM     26  N   UNL     1      -5.196   3.107   0.877  0.00  0.00    -0.281 N 
ATOM     27  H   UNL     1      -5.751   3.567   1.526  0.00  0.00    +0.152 HD
BRANCH  20  28
ATOM     28  C   UNL     1      -6.644   2.705  -1.060  0.00  0.00    -0.015 A 
ATOM     29  C   UNL     1      -7.164   3.156  -2.259  0.00  0.00    +0.006 A 
ATOM     30  C   UNL     1      -8.395   2.702  -2.693  0.00  0.00    +0.000 A 
ATOM     31  C   UNL     1      -9.112   1.805  -1.923  0.00  0.00    +0.000 A 
ATOM     32  C   UNL     1      -8.595   1.358  -0.722  0.00  0.00    +0.000 A 
ATOM     33  C   UNL     1      -7.361   1.808  -0.290  0.00  0.00    +0.006 A 
ENDBRANCH  20  28
BRANCH  20  35
ATOM     34  C   UNL     1      -3.710   5.122  -0.525  0.00  0.00    +0.007 C 
ATOM     35  C   UNL     1      -5.057   4.631  -1.060  0.00  0.00    +0.037 C 
ENDBRANCH  20  35
ENDBRANCH  19  23
ENDBRANCH   1  19
TORSDOF 6
