REMARK  Name = ZINC21224389
REMARK  8 active torsions:
REMARK  status: ('A' for Active; 'I' for Inactive)
REMARK    1  A    between atoms: C_1  and  O_2
REMARK    2  A    between atoms: O_2  and  C_3
REMARK    3  A    between atoms: C_5  and  C_13
REMARK    4  A    between atoms: C_7  and  O_11
REMARK    5  A    between atoms: C_8  and  O_9
REMARK    6  A    between atoms: O_9  and  C_10
REMARK    7  A    between atoms: O_11  and  C_12
REMARK    8  A    between atoms: C_18  and  C_28
REMARK                            x       y       z     vdW  Elec       q    Type
REMARK                         _______ _______ _______ _____ _____    ______ ____
ROOT
ATOM      1  C   UNL     1      -5.271  -0.205  -1.427  0.00  0.00    +0.032 C 
ATOM      2  C   UNL     1      -3.800  -0.263  -1.019  0.00  0.00    +0.059 C 
ATOM      3  C   UNL     1      -3.286   1.137  -0.728  0.00  0.00    +0.017 C 
ATOM      4  C   UNL     1      -3.771   2.194  -1.401  0.00  0.00    +0.036 C 
ATOM      5  C   UNL     1      -3.336   3.630  -1.229  0.00  0.00    +0.137 C 
ATOM      6  N   UNL     1      -2.505   3.871  -0.068  0.00  0.00    -0.331 N 
ATOM      7  C   UNL     1      -1.238   3.299   0.043  0.00  0.00    +0.049 A 
ATOM      8  C   UNL     1      -0.091   4.075   0.042  0.00  0.00    +0.025 A 
ATOM      9  C   UNL     1       1.147   3.458   0.096  0.00  0.00    +0.002 A 
ATOM     10  C   UNL     1       1.240   2.079   0.140  0.00  0.00    +0.002 A 
ATOM     11  C   UNL     1       0.095   1.301   0.152  0.00  0.00    +0.025 A 
ATOM     12  C   UNL     1      -1.144   1.918   0.117  0.00  0.00    +0.052 A 
ATOM     13  N   UNL     1      -2.330   1.203   0.233  0.00  0.00    -0.316 N 
ATOM     14  C   UNL     1      -4.784   2.016  -2.372  0.00  0.00    +0.163 C 
ATOM     15  O   UNL     1      -5.192   2.988  -2.978  0.00  0.00    -0.292 OA
ATOM     16  C   UNL     1      -5.372   0.672  -2.681  0.00  0.00    +0.088 C 
ATOM     17  H   UNL     1      -2.872   4.513   0.747  0.00  0.00    +0.147 HD
ATOM     18  H   UNL     1      -2.467   0.666   1.183  0.00  0.00    +0.152 HD
ENDROOT
BRANCH   1  21
ATOM     19  C   UNL     1      -7.286  -3.399  -1.285  0.00  0.00    +0.165 A 
ATOM     20  C   UNL     1      -6.822  -2.122  -1.007  0.00  0.00    +0.053 A 
ATOM     21  C   UNL     1      -5.771  -1.593  -1.733  0.00  0.00    -0.036 A 
ATOM     22  C   UNL     1      -5.183  -2.331  -2.742  0.00  0.00    +0.053 A 
ATOM     23  C   UNL     1      -5.637  -3.611  -3.022  0.00  0.00    +0.165 A 
ATOM     24  C   UNL     1      -6.693  -4.147  -2.295  0.00  0.00    +0.204 A 
BRANCH  19  26
ATOM     25  C   UNL     1      -8.880  -3.094   0.454  0.00  0.00    +0.277 C 
ATOM     26  O   UNL     1      -8.319  -3.919  -0.569  0.00  0.00    -0.491 OA
ENDBRANCH  19  26
BRANCH  24  27
ATOM     27  O   UNL     1      -7.144  -5.401  -2.570  0.00  0.00    -0.488 OA
ATOM     28  C   UNL     1      -8.185  -5.516  -3.543  0.00  0.00    +0.277 C 
ENDBRANCH  24  27
BRANCH  23  29
ATOM     29  O   UNL     1      -5.053  -4.339  -4.012  0.00  0.00    -0.491 OA
ATOM     30  C   UNL     1      -3.973  -3.725  -4.718  0.00  0.00    +0.277 C 
ENDBRANCH  23  29
ENDBRANCH   1  21
BRANCH   5  31
ATOM     31  C   UNL     1      -2.570   4.048  -2.458  0.00  0.00    -0.005 A 
ATOM     32  C   UNL     1      -1.345   3.469  -2.752  0.00  0.00    +0.009 A 
ATOM     33  C   UNL     1      -0.678   3.881  -3.896  0.00  0.00    +0.020 A 
ATOM     34  C   UNL     1      -1.248   4.856  -4.694  0.00  0.00    +0.111 A 
ATOM     35  N   UNL     1      -2.413   5.388  -4.380  0.00  0.00    -0.263 NA
ATOM     36  C   UNL     1      -3.078   5.016  -3.303  0.00  0.00    +0.116 A 
ENDBRANCH   5  31
TORSDOF 5
