REMARK  Name = ZINC58952650
REMARK  8 active torsions:
REMARK  status: ('A' for Active; 'I' for Inactive)
REMARK    1  A    between atoms: C_1  and  C_2
REMARK    2  A    between atoms: N_8  and  C_9
REMARK    3  A    between atoms: C_9  and  C_10
REMARK    4  A    between atoms: C_15  and  C_16
REMARK    5  A    between atoms: C_16  and  N_17
REMARK    6  A    between atoms: C_18  and  C_20
REMARK    7  A    between atoms: C_20  and  N_21
REMARK    8  A    between atoms: C_22  and  C_24
REMARK                            x       y       z     vdW  Elec       q    Type
REMARK                         _______ _______ _______ _____ _____    ______ ____
ROOT
ATOM      1  C   UNL     1       3.281  -2.538   1.215  0.00  0.00    +0.139 C 
ENDROOT
BRANCH   1   7
ATOM      2  C   UNL     1       2.530  -0.330   2.123  0.00  0.00    -0.059 A 
ATOM      3  C   UNL     1       2.433   0.591   3.150  0.00  0.00    +0.002 A 
ATOM      4  C   UNL     1       2.989   0.311   4.384  0.00  0.00    +0.000 A 
ATOM      5  C   UNL     1       3.642  -0.889   4.592  0.00  0.00    +0.000 A 
ATOM      6  C   UNL     1       3.739  -1.810   3.566  0.00  0.00    +0.005 A 
ATOM      7  C   UNL     1       3.179  -1.532   2.333  0.00  0.00    -0.029 A 
BRANCH   2   8
ATOM      8  C   UNL     1       1.924  -0.025   0.778  0.00  0.00    -0.042 C 
BRANCH   8  15
ATOM      9  C   UNL     1       1.767  -0.640  -1.957  0.00  0.00    -0.013 C 
ATOM     10  C   UNL     1       2.399   0.664  -1.469  0.00  0.00    -0.071 C 
ATOM     11  C   UNL     1       3.502   1.091  -2.439  0.00  0.00    -0.016 C 
ATOM     12  C   UNL     1       4.131   2.397  -1.946  0.00  0.00    -0.003 C 
ATOM     13  C   UNL     1       4.658   2.193  -0.523  0.00  0.00    -0.019 C 
ATOM     14  C   UNL     1       3.512   1.726   0.377  0.00  0.00    -0.078 C 
ATOM     15  N   UNL     1       2.971   0.460  -0.132  0.00  0.00    +0.384 N 
ATOM     16  H   UNL     1       3.711  -0.224  -0.186  0.00  0.00    -0.081 HD
ENDBRANCH   8  15
ENDBRANCH   2   8
ENDBRANCH   1   7
BRANCH   1  17
ATOM     17  N   UNL     1       4.392  -2.176   0.331  0.00  0.00    -0.310 N 
ATOM     18  C   UNL     1       4.610  -2.878  -0.799  0.00  0.00    +0.230 C 
ATOM     19  O   UNL     1       3.887  -3.808  -1.084  0.00  0.00    -0.274 OA
ATOM     20  H   UNL     1       4.970  -1.432   0.559  0.00  0.00    +0.149 HD
BRANCH  18  21
ATOM     21  C   UNL     1       5.753  -2.505  -1.708  0.00  0.00    +0.200 C 
BRANCH  21  22
ATOM     22  N   UNL     1       5.777  -3.412  -2.858  0.00  0.00    -0.303 N 
ATOM     23  C   UNL     1       6.720  -3.268  -3.810  0.00  0.00    +0.244 C 
ATOM     24  O   UNL     1       7.551  -2.385  -3.714  0.00  0.00    -0.270 OA
ATOM     25  H   UNL     1       5.114  -4.116  -2.935  0.00  0.00    +0.150 HD
BRANCH  23  26
ATOM     26  C   UNL     1       6.744  -4.182  -4.971  0.00  0.00    +0.038 A 
ATOM     27  C   UNL     1       5.788  -5.193  -5.088  0.00  0.00    +0.013 A 
ATOM     28  C   UNL     1       5.816  -6.043  -6.173  0.00  0.00    +0.002 A 
ATOM     29  C   UNL     1       6.789  -5.897  -7.146  0.00  0.00    +0.015 A 
ATOM     30  C   UNL     1       7.740  -4.898  -7.037  0.00  0.00    +0.019 A 
ATOM     31  C   UNL     1       7.719  -4.036  -5.959  0.00  0.00    +0.028 A 
ATOM     32 BR   UNL     1       9.066  -4.707  -8.372  0.00  0.00    -0.050 Br
ENDBRANCH  23  26
ENDBRANCH  21  22
ENDBRANCH  18  21
ENDBRANCH   1  17
TORSDOF 7
