REMARK  Name = ZINC39597782
REMARK  8 active torsions:
REMARK  status: ('A' for Active; 'I' for Inactive)
REMARK    1  A    between atoms: C_1  and  C_2
REMARK    2  A    between atoms: C_2  and  C_3
REMARK    3  A    between atoms: C_3  and  C_5
REMARK    4  A    between atoms: C_3  and  C_11
REMARK    5  A    between atoms: C_15  and  C_24
REMARK    6  A    between atoms: N_26  and  C_27
REMARK    7  A    between atoms: C_27  and  C_28
REMARK    8  A    between atoms: C_28  and  C_29
REMARK                            x       y       z     vdW  Elec       q    Type
REMARK                         _______ _______ _______ _____ _____    ______ ____
ROOT
ATOM      1  C   UNL     1       0.657  -2.161  -1.300  0.00  0.00    +0.223 C 
ATOM      2  O   UNL     1       1.654  -2.849  -1.365  0.00  0.00    -0.275 OA
ATOM      3  N   UNL     1      -0.562  -2.730  -1.386  0.00  0.00    -0.300 N 
ATOM      4  C   UNL     1      -1.883  -2.061  -1.333  0.00  0.00    +0.121 C 
ATOM      5  C   UNL     1      -2.738  -2.801  -2.386  0.00  0.00    +0.100 C 
ATOM      6  C   UNL     1      -2.078  -4.184  -2.525  0.00  0.00    -0.004 C 
ATOM      7  C   UNL     1      -0.883  -4.167  -1.560  0.00  0.00    +0.115 C 
ATOM      8  C   UNL     1      -1.591  -4.395  -3.955  0.00  0.00    -0.010 C 
ATOM      9  C   UNL     1      -0.991  -5.798  -4.082  0.00  0.00    -0.082 C 
ATOM     10  N   UNL     1      -2.006  -6.800  -3.736  0.00  0.00    +0.379 N 
ATOM     11  C   UNL     1      -2.402  -6.648  -2.331  0.00  0.00    -0.082 C 
ATOM     12  C   UNL     1      -3.062  -5.281  -2.130  0.00  0.00    -0.010 C 
ATOM     13  H   UNL     1      -2.814  -6.676  -4.327  0.00  0.00    -0.086 HD
ATOM     14  H   UNL     1      -1.627  -7.724  -3.880  0.00  0.00    -0.086 HD
ENDROOT
BRANCH   5  15
ATOM     15  C   UNL     1      -4.158  -2.942  -1.903  0.00  0.00    +0.218 C 
ATOM     16  O   UNL     1      -4.389  -3.034  -0.716  0.00  0.00    -0.275 OA
ATOM     17  N   UNL     1      -5.173  -2.964  -2.791  0.00  0.00    -0.315 N 
ATOM     18  H   UNL     1      -4.988  -2.890  -3.740  0.00  0.00    +0.149 HD
BRANCH  17  19
ATOM     19  C   UNL     1      -6.554  -3.100  -2.322  0.00  0.00    +0.109 C 
BRANCH  19  20
ATOM     20  C   UNL     1      -7.503  -3.098  -3.522  0.00  0.00    +0.056 C 
BRANCH  20  21
ATOM     21  C   UNL     1      -8.923  -3.238  -3.039  0.00  0.00    -0.021 A 
ATOM     22  C   UNL     1      -9.802  -2.155  -2.590  0.00  0.00    +0.003 A 
ATOM     23  C   UNL     1      -9.652  -0.773  -2.464  0.00  0.00    +0.010 A 
ATOM     24  C   UNL     1     -10.692  -0.017  -2.000  0.00  0.00    +0.001 A 
ATOM     25  C   UNL     1     -11.896  -0.613  -1.653  0.00  0.00    +0.002 A 
ATOM     26  C   UNL     1     -12.065  -1.975  -1.769  0.00  0.00    +0.026 A 
ATOM     27  C   UNL     1     -11.021  -2.764  -2.239  0.00  0.00    +0.047 A 
ATOM     28  N   UNL     1     -10.879  -4.115  -2.463  0.00  0.00    -0.360 N 
ATOM     29  C   UNL     1      -9.626  -4.378  -2.945  0.00  0.00    +0.087 A 
ATOM     30  H   UNL     1     -11.567  -4.781  -2.307  0.00  0.00    +0.165 HD
ENDBRANCH  20  21
ENDBRANCH  19  20
ENDBRANCH  17  19
ENDBRANCH   5  15
BRANCH   1  31
ATOM     31  C   UNL     1       0.781  -0.670  -1.121  0.00  0.00    +0.105 C 
BRANCH  31  32
ATOM     32  C   UNL     1       2.239  -0.292  -1.054  0.00  0.00    -0.036 A 
ATOM     33  C   UNL     1       3.045  -0.819  -0.063  0.00  0.00    +0.004 A 
ATOM     34  C   UNL     1       4.381  -0.472  -0.001  0.00  0.00    +0.000 A 
ATOM     35  C   UNL     1       4.912   0.402  -0.931  0.00  0.00    +0.000 A 
ATOM     36  C   UNL     1       4.106   0.929  -1.923  0.00  0.00    +0.000 A 
ATOM     37  C   UNL     1       2.770   0.579  -1.987  0.00  0.00    +0.004 A 
ENDBRANCH  31  32
BRANCH  31  39
ATOM     38  C   UNL     1       0.103   1.274   0.294  0.00  0.00    +0.005 C 
ATOM     39  C   UNL     1       0.085  -0.251   0.176  0.00  0.00    +0.014 C 
ENDBRANCH  31  39
ENDBRANCH   1  31
TORSDOF 7
