REMARK  Name = ZINC06720722
REMARK  9 active torsions:
REMARK  status: ('A' for Active; 'I' for Inactive)
REMARK    1  A    between atoms: C_1  and  C_2
REMARK    2  A    between atoms: C_2  and  C_3
REMARK    3  A    between atoms: C_2  and  C_4
REMARK    4  A    between atoms: C_2  and  C_5
REMARK    5  A    between atoms: C_8  and  C_11
REMARK    6  A    between atoms: C_20  and  C_22
REMARK    7  A    between atoms: C_24  and  O_29
REMARK    8  A    between atoms: C_27  and  O_28
REMARK    9  A    between atoms: O_29  and  C_30
REMARK                            x       y       z     vdW  Elec       q    Type
REMARK                         _______ _______ _______ _____ _____    ______ ____
ROOT
ATOM      1  C   UNL     1      -0.004  -0.004   0.010  0.00  0.00    +0.055 C 
ATOM      2  N   UNL     1       1.122  -0.616  -0.109  0.00  0.00    -0.249 NA
ATOM      3  C   UNL     1       1.297  -1.960  -0.094  0.00  0.00    +0.089 A 
ATOM      4  C   UNL     1       2.399  -2.455   0.624  0.00  0.00    +0.030 A 
ATOM      5  C   UNL     1       2.647  -3.807   0.683  0.00  0.00    +0.002 A 
ATOM      6  C   UNL     1       1.807  -4.699   0.034  0.00  0.00    +0.002 A 
ATOM      7  C   UNL     1       0.722  -4.239  -0.674  0.00  0.00    +0.030 A 
ATOM      8  C   UNL     1       0.448  -2.863  -0.749  0.00  0.00    +0.089 A 
ATOM      9  N   UNL     1      -0.641  -2.490  -1.466  0.00  0.00    -0.249 NA
ATOM     10  C   UNL     1      -1.483  -1.574  -1.130  0.00  0.00    +0.059 C 
ATOM     11  C   UNL     1      -1.298  -0.766   0.128  0.00  0.00    +0.112 C 
ENDROOT
BRANCH   1  15
ATOM     12  C   UNL     1      -0.074   4.237   0.050  0.00  0.00    -0.042 A 
ATOM     13  C   UNL     1      -1.263   3.529   0.057  0.00  0.00    +0.005 A 
ATOM     14  C   UNL     1      -1.248   2.150   0.044  0.00  0.00    +0.010 A 
ATOM     15  C   UNL     1      -0.028   1.468   0.024  0.00  0.00    -0.003 A 
ATOM     16  C   UNL     1       1.169   2.190   0.023  0.00  0.00    +0.010 A 
ATOM     17  C   UNL     1       1.138   3.569   0.030  0.00  0.00    +0.005 A 
BRANCH  12  19
ATOM     18  C   UNL     1      -0.814   6.230   1.326  0.00  0.00    +0.015 C 
ATOM     19  C   UNL     1      -0.099   5.744   0.064  0.00  0.00    -0.013 C 
ATOM     20  C   UNL     1       1.335   6.278   0.053  0.00  0.00    +0.015 C 
ATOM     21  C   UNL     1      -0.842   6.253  -1.172  0.00  0.00    +0.015 C 
ENDBRANCH  12  19
ENDBRANCH   1  15
BRANCH  10  22
ATOM     22  C   UNL     1      -2.644  -1.312  -1.992  0.00  0.00    +0.041 A 
ATOM     23  C   UNL     1      -3.508  -0.249  -1.704  0.00  0.00    +0.059 A 
ATOM     24  C   UNL     1      -4.598  -0.010  -2.519  0.00  0.00    +0.121 A 
ATOM     25  C   UNL     1      -4.839  -0.821  -3.622  0.00  0.00    +0.049 A 
ATOM     26  C   UNL     1      -3.992  -1.872  -3.913  0.00  0.00    +0.049 A 
ATOM     27  C   UNL     1      -2.891  -2.123  -3.110  0.00  0.00    +0.126 A 
BRANCH  27  28
ATOM     28  O   UNL     1      -2.056  -3.153  -3.401  0.00  0.00    -0.506 OA
ATOM     29  H   UNL     1      -2.305  -3.990  -2.987  0.00  0.00    +0.292 HD
ENDBRANCH  27  28
BRANCH  24  30
ATOM     30  O   UNL     1      -5.438   1.023  -2.241  0.00  0.00    -0.495 OA
ATOM     31  C   UNL     1      -6.545   1.214  -3.124  0.00  0.00    +0.277 C 
ENDBRANCH  24  30
ENDBRANCH  10  22
TORSDOF 5
