REMARK  Name = ZINC16450996
REMARK  5 active torsions:
REMARK  status: ('A' for Active; 'I' for Inactive)
REMARK    1  A    between atoms: C_4  and  C_7
REMARK    2  A    between atoms: N_8  and  N_9
REMARK    3  A    between atoms: C_10  and  C_12
REMARK    4  A    between atoms: C_16  and  N_29
REMARK    5  A    between atoms: N_20  and  C_22
REMARK                            x       y       z     vdW  Elec       q    Type
REMARK                         _______ _______ _______ _____ _____    ______ ____
ROOT
ATOM      1  C   UNL     1       2.487   0.931   0.342  0.00  0.00    +0.156 A 
ATOM      2  C   UNL     1       3.717   1.697  -0.015  0.00  0.00    +0.028 A 
ATOM      3  C   UNL     1       3.857   3.058  -0.023  0.00  0.00    +0.058 A 
ATOM      4  S   UNL     1       5.544   3.311  -0.518  0.00  0.00    -0.081 S 
ATOM      5  C   UNL     1       6.049   1.670  -0.700  0.00  0.00    +0.076 A 
ATOM      6  C   UNL     1       4.910   0.925  -0.377  0.00  0.00    +0.078 A 
ATOM      7  C   UNL     1       4.798  -0.502  -0.371  0.00  0.00    +0.282 A 
ATOM      8  O   UNL     1       5.762  -1.184  -0.670  0.00  0.00    -0.265 OA
ATOM      9  N   UNL     1       3.643  -1.094  -0.039  0.00  0.00    -0.196 N 
ATOM     10  N   UNL     1       2.504  -0.373   0.312  0.00  0.00    -0.158 NA
ENDROOT
BRANCH   9  11
ATOM     11  C   UNL     1       3.578  -2.491  -0.046  0.00  0.00    +0.069 A 
ATOM     12  C   UNL     1       4.037  -3.204  -1.147  0.00  0.00    +0.029 A 
ATOM     13  C   UNL     1       3.975  -4.583  -1.150  0.00  0.00    +0.022 A 
ATOM     14  C   UNL     1       3.448  -5.256  -0.061  0.00  0.00    +0.041 A 
ATOM     15  C   UNL     1       2.985  -4.548   1.034  0.00  0.00    +0.022 A 
ATOM     16  C   UNL     1       3.049  -3.169   1.045  0.00  0.00    +0.029 A 
ATOM     17 CL   UNL     1       3.366  -6.990  -0.071  0.00  0.00    -0.084 Cl
ENDBRANCH   9  11
BRANCH   1  19
ATOM     18  N   UNL     1       0.143   0.953   1.037  0.00  0.00    -0.202 N 
ATOM     19  C   UNL     1       1.255   1.647   0.721  0.00  0.00    +0.284 C 
ATOM     20  O   UNL     1       1.241   2.863   0.747  0.00  0.00    -0.267 OA
ATOM     21  H   UNL     1       0.154  -0.017   1.016  0.00  0.00    +0.178 HD
BRANCH  18  23
ATOM     22  C   UNL     1      -2.101   0.965   1.691  0.00  0.00    +0.138 C 
ATOM     23  N   UNL     1      -1.030   1.633   1.391  0.00  0.00    -0.187 NA
BRANCH  22  27
ATOM     24  C   UNL     1      -5.654   3.025   2.763  0.00  0.00    +0.000 A 
ATOM     25  C   UNL     1      -5.642   1.641   2.734  0.00  0.00    +0.001 A 
ATOM     26  C   UNL     1      -4.491   0.965   2.386  0.00  0.00    +0.009 A 
ATOM     27  C   UNL     1      -3.336   1.681   2.063  0.00  0.00    -0.005 A 
ATOM     28  C   UNL     1      -3.353   3.077   2.101  0.00  0.00    +0.009 A 
ATOM     29  C   UNL     1      -4.513   3.740   2.444  0.00  0.00    +0.001 A 
ENDBRANCH  22  27
ENDBRANCH  18  23
ENDBRANCH   1  19
BRANCH   5  30
ATOM     30  N   UNL     1       7.294   1.199  -1.078  0.00  0.00    -0.352 N 
ATOM     31  H   UNL     1       7.452   0.244  -1.143  0.00  0.00    +0.143 HD
ATOM     32  H   UNL     1       8.008   1.824  -1.277  0.00  0.00    +0.143 HD
ENDBRANCH   5  30
TORSDOF 5
