REMARK  Name = ZINC14720663
REMARK  12 active torsions:
REMARK  status: ('A' for Active; 'I' for Inactive)
REMARK    1  A    between atoms: C_1  and  C_2
REMARK    2  A    between atoms: C_2  and  C_3
REMARK    3  A    between atoms: C_3  and  C_4
REMARK    4  A    between atoms: C_4  and  N_5
REMARK    5  A    between atoms: N_5  and  C_6
REMARK    6  A    between atoms: C_7  and  N_19
REMARK    7  A    between atoms: N_8  and  C_15
REMARK    8  A    between atoms: C_15  and  C_16
REMARK    9  A    between atoms: C_16  and  C_17
REMARK   10  A    between atoms: C_16  and  C_18
REMARK   11  A    between atoms: C_20  and  C_22
REMARK   12  A    between atoms: C_25  and  C_28
REMARK                            x       y       z     vdW  Elec       q    Type
REMARK                         _______ _______ _______ _____ _____    ______ ____
ROOT
ATOM      1  C   UNL     1      -0.164  -2.194   1.294  0.00  0.00    +0.140 A 
ATOM      2  C   UNL     1      -1.336  -2.368   0.586  0.00  0.00    +0.127 A 
ATOM      3  N   UNL     1      -1.484  -1.746  -0.632  0.00  0.00    -0.280 N 
ATOM      4  C   UNL     1      -0.495  -0.982  -1.130  0.00  0.00    +0.331 A 
ATOM      5  O   UNL     1      -0.643  -0.444  -2.211  0.00  0.00    -0.246 OA
ATOM      6  N   UNL     1       0.652  -0.796  -0.452  0.00  0.00    -0.273 N 
ATOM      7  H   UNL     1       1.367  -0.216  -0.841  0.00  0.00    +0.173 HD
ATOM      8  C   UNL     1       0.847  -1.382   0.745  0.00  0.00    +0.277 A 
ATOM      9  O   UNL     1       1.893  -1.211   1.349  0.00  0.00    -0.266 OA
ENDROOT
BRANCH   1  10
ATOM     10  N   UNL     1       0.018  -2.818   2.545  0.00  0.00    -0.259 N 
ATOM     11  C   UNL     1       0.113  -2.071   3.663  0.00  0.00    +0.271 C 
ATOM     12  O   UNL     1      -0.056  -0.868   3.606  0.00  0.00    -0.268 OA
BRANCH  11  13
ATOM     13  C   UNL     1       0.422  -2.715   4.960  0.00  0.00    +0.144 A 
ATOM     14  C   UNL     1       0.397  -1.966   6.136  0.00  0.00    +0.144 A 
ATOM     15  N   UNL     1       0.669  -2.547   7.291  0.00  0.00    -0.256 NA
ATOM     16  C   UNL     1       0.974  -3.832   7.331  0.00  0.00    +0.056 A 
ATOM     17  C   UNL     1       1.004  -4.578   6.162  0.00  0.00    +0.134 A 
ATOM     18  N   UNL     1       0.729  -4.008   5.006  0.00  0.00    -0.247 NA
ATOM     19  C   UNL     1       1.289  -4.489   8.650  0.00  0.00    +0.067 C 
ENDBRANCH  11  13
BRANCH  10  20
ATOM     20  C   UNL     1       0.104  -4.278   2.630  0.00  0.00    +0.114 C 
BRANCH  20  21
ATOM     21  C   UNL     1       1.571  -4.707   2.571  0.00  0.00    +0.019 C 
BRANCH  21  23
ATOM     22  C   UNL     1       3.128  -6.660   2.600  0.00  0.00    +0.004 C 
ATOM     23  C   UNL     1       1.661  -6.231   2.659  0.00  0.00    -0.002 C 
ENDBRANCH  21  23
ENDBRANCH  20  21
ENDBRANCH  10  20
ENDBRANCH   1  10
BRANCH   2  24
ATOM     24  N   UNL     1      -2.344  -3.154   1.092  0.00  0.00    -0.343 N 
ATOM     25  H   UNL     1      -3.193  -3.211   0.628  0.00  0.00    +0.144 HD
ATOM     26  H   UNL     1      -2.205  -3.650   1.914  0.00  0.00    +0.144 HD
ENDBRANCH   2  24
BRANCH   3  27
ATOM     27  C   UNL     1      -2.722  -1.922  -1.394  0.00  0.00    +0.131 C 
BRANCH  27  28
ATOM     28  C   UNL     1      -3.721  -0.832  -1.002  0.00  0.00    +0.003 C 
ATOM     29  C   UNL     1      -3.177   0.534  -1.425  0.00  0.00    +0.009 C 
ATOM     30  C   UNL     1      -5.057  -1.088  -1.704  0.00  0.00    +0.009 C 
ENDBRANCH  27  28
ENDBRANCH   3  27
TORSDOF 8
