REMARK  Name = ZINC39361667
REMARK  9 active torsions:
REMARK  status: ('A' for Active; 'I' for Inactive)
REMARK    1  A    between atoms: C_1  and  C_2
REMARK    2  A    between atoms: C_2  and  C_3
REMARK    3  A    between atoms: C_3  and  C_5
REMARK    4  A    between atoms: C_3  and  S_6
REMARK    5  A    between atoms: S_6  and  C_7
REMARK    6  A    between atoms: C_11  and  C_21
REMARK    7  A    between atoms: N_13  and  C_14
REMARK    8  A    between atoms: C_18  and  C_20
REMARK    9  A    between atoms: C_21  and  C_22
REMARK                            x       y       z     vdW  Elec       q    Type
REMARK                         _______ _______ _______ _____ _____    ______ ____
ROOT
ATOM      1  C   UNL     1       0.677  -0.215  -4.075  0.00  0.00    +0.217 C 
ATOM      2  N   UNL     1       0.800  -1.686  -4.185  0.00  0.00    -0.226 NA
ATOM      3  N   UNL     1       2.161  -1.902  -4.700  0.00  0.00    -0.234 NA
ATOM      4  C   UNL     1       2.951  -0.853  -4.004  0.00  0.00    +0.163 C 
ATOM      5  N   UNL     1       2.047   0.315  -3.960  0.00  0.00    -0.287 N 
ATOM      6  H   UNL     1       0.110  -2.060  -4.819  0.00  0.00    +0.143 HD
ATOM      7  H   UNL     1       2.495  -2.824  -4.462  0.00  0.00    +0.143 HD
ENDROOT
BRANCH   5   8
ATOM      8  C   UNL     1       2.417   1.656  -3.834  0.00  0.00    +0.033 A 
ATOM      9  C   UNL     1       3.760   2.002  -3.742  0.00  0.00    +0.023 A 
ATOM     10  C   UNL     1       4.122   3.328  -3.618  0.00  0.00    +0.002 A 
ATOM     11  C   UNL     1       3.151   4.312  -3.586  0.00  0.00    +0.003 A 
ATOM     12  C   UNL     1       1.814   3.971  -3.677  0.00  0.00    -0.049 A 
ATOM     13  C   UNL     1       1.445   2.647  -3.808  0.00  0.00    +0.026 A 
ATOM     14  C   UNL     1       0.759   5.047  -3.641  0.00  0.00    +0.044 C 
ENDBRANCH   5   8
BRANCH   1  15
ATOM     15  S   UNL     1      -0.283   0.221  -2.599  0.00  0.00    -0.119 S 
BRANCH  15  16
ATOM     16  C   UNL     1      -2.004  -0.073  -3.093  0.00  0.00    +0.046 C 
ATOM     17  C   UNL     1      -2.413   0.951  -4.154  0.00  0.00    +0.019 C 
BRANCH  16  19
ATOM     18  C   UNL     1      -2.590  -1.039  -0.864  0.00  0.00    +0.005 C 
ATOM     19  C   UNL     1      -2.916   0.065  -1.872  0.00  0.00    +0.010 C 
ENDBRANCH  16  19
ENDBRANCH  15  16
ENDBRANCH   1  15
BRANCH   4  20
ATOM     20  C   UNL     1       3.313  -1.307  -2.588  0.00  0.00    +0.093 C 
BRANCH  20  21
ATOM     21  C   UNL     1       4.242  -2.491  -2.662  0.00  0.00    +0.029 A 
ATOM     22  N   UNL     1       3.736  -3.755  -2.801  0.00  0.00    -0.311 N 
ATOM     23  C   UNL     1       4.556  -4.819  -2.869  0.00  0.00    +0.327 A 
ATOM     24  O   UNL     1       4.085  -5.933  -2.992  0.00  0.00    -0.247 OA
ATOM     25  N   UNL     1       5.892  -4.668  -2.802  0.00  0.00    -0.275 N 
ATOM     26  C   UNL     1       6.431  -3.439  -2.666  0.00  0.00    +0.254 A 
ATOM     27  O   UNL     1       7.639  -3.301  -2.606  0.00  0.00    -0.268 OA
ATOM     28  C   UNL     1       5.579  -2.311  -2.598  0.00  0.00    +0.091 A 
ATOM     29  H   UNL     1       6.470  -5.445  -2.853  0.00  0.00    +0.173 HD
ATOM     30  H   UNL     1       2.776  -3.885  -2.850  0.00  0.00    +0.170 HD
ENDBRANCH  20  21
ENDBRANCH   4  20
TORSDOF 6
