REMARK  Name = ZINC43548225
REMARK  12 active torsions:
REMARK  status: ('A' for Active; 'I' for Inactive)
REMARK    1  A    between atoms: C_1  and  C_2
REMARK    2  A    between atoms: C_2  and  N_3
REMARK    3  A    between atoms: N_3  and  C_4
REMARK    4  A    between atoms: C_4  and  C_5
REMARK    5  A    between atoms: C_6  and  C_8
REMARK    6  A    between atoms: C_8  and  C_10
REMARK    7  A    between atoms: C_8  and  C_11
REMARK    8  A    between atoms: C_15  and  C_34
REMARK    9  A    between atoms: N_22  and  C_23
REMARK   10  A    between atoms: C_23  and  C_24
REMARK   11  A    between atoms: C_26  and  C_33
REMARK   12  A    between atoms: C_30  and  O_32
REMARK                            x       y       z     vdW  Elec       q    Type
REMARK                         _______ _______ _______ _____ _____    ______ ____
ROOT
ATOM      1  C   UNL     1      -5.629  -1.744   2.540  0.00  0.00    +0.029 C 
ATOM      2  C   UNL     1      -6.906  -2.075   1.766  0.00  0.00    +0.007 C 
ATOM      3  C   UNL     1      -8.097  -2.124   2.726  0.00  0.00    +0.008 C 
ATOM      4  C   UNL     1      -8.252  -0.752   3.398  0.00  0.00    -0.022 C 
ATOM      5  C   UNL     1      -8.385   0.307   2.288  0.00  0.00    +0.051 C 
ATOM      6  C   UNL     1      -8.139   1.652   2.879  0.00  0.00    +0.013 A 
ATOM      7  C   UNL     1      -7.575   1.940   4.079  0.00  0.00    +0.031 A 
ATOM      8  N   UNL     1      -7.477   3.239   4.355  0.00  0.00    -0.340 N 
ATOM      9  C   UNL     1      -7.902   4.160   3.518  0.00  0.00    +0.137 A 
ATOM     10  S   UNL     1      -8.496   3.258   2.224  0.00  0.00    -0.059 S 
ATOM     11  N   UNL     1      -7.869   5.538   3.664  0.00  0.00    -0.321 N 
ATOM     12  C   UNL     1      -7.110   0.823   5.001  0.00  0.00    +0.039 C 
ATOM     13  C   UNL     1      -6.978  -0.468   4.200  0.00  0.00    +0.033 C 
ATOM     14  C   UNL     1      -5.787  -0.394   3.245  0.00  0.00    +0.123 C 
ATOM     15  C   UNL     1      -8.131   0.628   6.123  0.00  0.00    +0.014 C 
ATOM     16  C   UNL     1      -9.476  -0.739   4.315  0.00  0.00    +0.012 C 
ATOM     17  H   UNL     1      -7.495   5.932   4.468  0.00  0.00    +0.148 HD
ATOM     18  H   UNL     1      -7.082   3.513   5.197  0.00  0.00    +0.167 HD
ENDROOT
BRANCH   1  19
ATOM     19  C   UNL     1      -4.449  -1.675   1.568  0.00  0.00    +0.078 C 
ATOM     20  C   UNL     1      -4.288  -3.024   0.864  0.00  0.00    +0.017 C 
BRANCH  19  22
ATOM     21  N   UNL     1      -2.095  -0.923   1.670  0.00  0.00    -0.302 N 
ATOM     22  C   UNL     1      -3.189  -1.351   2.329  0.00  0.00    +0.219 C 
ATOM     23  O   UNL     1      -3.160  -1.477   3.535  0.00  0.00    -0.275 OA
BRANCH  21  25
ATOM     24  C   UNL     1      -0.858   0.831   2.843  0.00  0.00    +0.024 C 
ATOM     25  C   UNL     1      -0.861  -0.636   2.406  0.00  0.00    +0.104 C 
ENDBRANCH  21  25
BRANCH  21  26
ATOM     26  C   UNL     1      -2.138  -0.745   0.216  0.00  0.00    +0.104 C 
ATOM     27  C   UNL     1      -1.515  -1.964  -0.466  0.00  0.00    +0.024 C 
ENDBRANCH  21  26
ENDBRANCH  19  22
ENDBRANCH   1  19
BRANCH  14  28
ATOM     28  O   UNL     1      -6.014   0.629   2.274  0.00  0.00    -0.391 OA
ATOM     29  H   UNL     1      -5.299   0.727   1.631  0.00  0.00    +0.210 HD
ENDBRANCH  14  28
BRANCH  11  30
ATOM     30  C   UNL     1      -8.398   6.400   2.604  0.00  0.00    +0.130 C 
BRANCH  30  31
ATOM     31  C   UNL     1      -8.244   7.844   3.007  0.00  0.00    -0.016 C 
ATOM     32  C   UNL     1      -7.612   8.680   2.222  0.00  0.00    +0.005 C 
ENDBRANCH  30  31
ENDBRANCH  11  30
TORSDOF 7
