REMARK  Name = ZINC12476680
REMARK  15 active torsions:
REMARK  status: ('A' for Active; 'I' for Inactive)
REMARK    1  A    between atoms: C_1  and  C_2
REMARK    2  A    between atoms: C_5  and  N_8
REMARK    3  A    between atoms: N_8  and  C_9
REMARK    4  A    between atoms: C_9  and  C_11
REMARK    5  A    between atoms: C_9  and  C_15
REMARK    6  A    between atoms: C_11  and  C_12
REMARK    7  A    between atoms: C_12  and  C_13
REMARK    8  A    between atoms: C_12  and  C_14
REMARK    9  A    between atoms: N_17  and  C_18
REMARK   10  A    between atoms: C_18  and  C_19
REMARK   11  A    between atoms: C_18  and  C_20
REMARK   12  A    between atoms: C_18  and  C_21
REMARK   13  A    between atoms: C_22  and  C_24
REMARK   14  A    between atoms: C_25  and  N_32
REMARK   15  A    between atoms: C_26  and  C_29
REMARK                            x       y       z     vdW  Elec       q    Type
REMARK                         _______ _______ _______ _____ _____    ______ ____
ROOT
ATOM      1  N   UNL     1      -0.471   2.113  -1.454  0.00  0.00    -0.255 N 
ATOM      2  C   UNL     1      -1.315   1.255  -2.060  0.00  0.00    +0.261 C 
ATOM      3  O   UNL     1      -2.379   1.654  -2.497  0.00  0.00    -0.269 OA
ENDROOT
BRANCH   1   8
ATOM      4  C   UNL     1      -2.047   7.489  -0.564  0.00  0.00    +0.044 C 
ATOM      5  C   UNL     1      -1.628   6.061  -0.800  0.00  0.00    -0.050 A 
ATOM      6  C   UNL     1      -2.551   5.138  -1.259  0.00  0.00    +0.005 A 
ATOM      7  C   UNL     1      -2.170   3.829  -1.477  0.00  0.00    +0.024 A 
ATOM      8  C   UNL     1      -0.859   3.439  -1.235  0.00  0.00    +0.037 A 
ATOM      9  C   UNL     1       0.063   4.366  -0.769  0.00  0.00    +0.024 A 
ATOM     10  C   UNL     1      -0.323   5.676  -0.558  0.00  0.00    +0.005 A 
ENDBRANCH   1   8
BRANCH   2  11
ATOM     11  C   UNL     1      -0.951  -0.157  -2.195  0.00  0.00    +0.116 A 
ATOM     12  C   UNL     1      -1.162  -1.027  -3.266  0.00  0.00    +0.076 A 
ATOM     13  C   UNL     1      -0.667  -2.307  -3.020  0.00  0.00    +0.155 A 
ATOM     14  N   UNL     1      -0.091  -2.563  -1.866  0.00  0.00    -0.203 NA
ATOM     15  S   UNL     1      -0.130  -1.226  -1.032  0.00  0.00    +0.019 S 
BRANCH  13  16
ATOM     16  C   UNL     1      -0.794  -3.364  -4.040  0.00  0.00    +0.262 C 
ATOM     17  O   UNL     1      -1.327  -3.120  -5.105  0.00  0.00    -0.269 OA
ATOM     18  N   UNL     1      -0.318  -4.600  -3.792  0.00  0.00    -0.324 N 
ATOM     19  H   UNL     1       0.108  -4.795  -2.943  0.00  0.00    +0.145 HD
ATOM     20  H   UNL     1      -0.401  -5.296  -4.463  0.00  0.00    +0.145 HD
ENDBRANCH  13  16
BRANCH  12  21
ATOM     21  N   UNL     1      -1.791  -0.657  -4.448  0.00  0.00    -0.355 N 
ATOM     22  H   UNL     1      -2.112   0.251  -4.563  0.00  0.00    +0.142 HD
ATOM     23  H   UNL     1      -1.909  -1.307  -5.158  0.00  0.00    +0.142 HD
ENDBRANCH  12  21
ENDBRANCH   2  11
BRANCH   1  24
ATOM     24  C   UNL     1       0.854   1.658  -1.024  0.00  0.00    +0.168 C 
BRANCH  24  25
ATOM     25  C   UNL     1       1.915   2.402  -1.792  0.00  0.00    +0.234 C 
ATOM     26  O   UNL     1       1.603   3.310  -2.533  0.00  0.00    -0.274 OA
ATOM     27  N   UNL     1       3.211   2.060  -1.655  0.00  0.00    -0.309 N 
ATOM     28  H   UNL     1       3.461   1.333  -1.063  0.00  0.00    +0.149 HD
BRANCH  27  29
ATOM     29  C   UNL     1       4.243   2.784  -2.402  0.00  0.00    +0.026 C 
ATOM     30  C   UNL     1       4.209   4.263  -2.014  0.00  0.00    +0.031 C 
ATOM     31  C   UNL     1       5.617   2.200  -2.069  0.00  0.00    +0.031 C 
ATOM     32  C   UNL     1       3.979   2.643  -3.903  0.00  0.00    +0.031 C 
ENDBRANCH  27  29
ENDBRANCH  24  25
BRANCH  24  33
ATOM     33  C   UNL     1       1.024   1.926   0.473  0.00  0.00    +0.035 C 
BRANCH  33  34
ATOM     34  C   UNL     1       0.076   1.023   1.264  0.00  0.00    -0.015 C 
ATOM     35  C   UNL     1       0.382   1.146   2.758  0.00  0.00    +0.007 C 
ATOM     36  C   UNL     1      -1.370   1.449   1.003  0.00  0.00    +0.007 C 
ENDBRANCH  33  34
ENDBRANCH  24  33
ENDBRANCH   1  24
TORSDOF 9
