REMARK  Name = ZINC44879649
REMARK  10 active torsions:
REMARK  status: ('A' for Active; 'I' for Inactive)
REMARK    1  A    between atoms: C_1  and  C_2
REMARK    2  A    between atoms: C_5  and  S_8
REMARK    3  A    between atoms: S_8  and  N_11
REMARK    4  A    between atoms: N_11  and  C_12
REMARK    5  A    between atoms: C_15  and  C_19
REMARK    6  A    between atoms: N_21  and  C_22
REMARK    7  A    between atoms: C_22  and  C_23
REMARK    8  A    between atoms: C_26  and  C_29
REMARK    9  A    between atoms: C_29  and  N_30
REMARK   10  A    between atoms: C_34  and  C_37
REMARK                            x       y       z     vdW  Elec       q    Type
REMARK                         _______ _______ _______ _____ _____    ______ ____
ROOT
ATOM      1  C   UNL     1       2.970 -10.481  -0.071  0.00  0.00    +0.244 C 
ATOM      2  O   UNL     1       2.088 -11.318  -0.075  0.00  0.00    -0.270 OA
ATOM      3  N   UNL     1       4.262 -10.864  -0.075  0.00  0.00    -0.307 N 
ATOM      4  H   UNL     1       4.966 -10.196  -0.072  0.00  0.00    +0.149 HD
ENDROOT
BRANCH   1   8
ATOM      5  C   UNL     1       1.977  -6.352  -0.043  0.00  0.00    +0.093 A 
ATOM      6  C   UNL     1       0.967  -7.309  -0.049  0.00  0.00    +0.029 A 
ATOM      7  C   UNL     1       1.285  -8.648  -0.058  0.00  0.00    +0.015 A 
ATOM      8  C   UNL     1       2.625  -9.047  -0.062  0.00  0.00    +0.038 A 
ATOM      9  C   UNL     1       3.638  -8.083  -0.057  0.00  0.00    +0.035 A 
ATOM     10  C   UNL     1       3.313  -6.745  -0.053  0.00  0.00    +0.066 A 
ATOM     11 CL   UNL     1       4.569  -5.547  -0.053  0.00  0.00    -0.081 Cl
BRANCH   5  12
ATOM     12  N   UNL     1       1.651  -4.999  -0.034  0.00  0.00    -0.096 NA
BRANCH  12  13
ATOM     13  S   UNL     1       0.063  -4.530  -0.023  0.00  0.00    +0.092 S 
ATOM     14  O   UNL     1      -0.476  -4.950   1.223  0.00  0.00    -0.148 OA
ATOM     15  O   UNL     1      -0.490  -4.937  -1.267  0.00  0.00    -0.148 OA
BRANCH  13  20
ATOM     16  C   UNL     1      -0.018   1.503   0.010  0.00  0.00    +0.044 C 
ATOM     17  C   UNL     1       0.002  -0.004   0.002  0.00  0.00    -0.050 A 
ATOM     18  C   UNL     1       0.006  -0.689  -1.199  0.00  0.00    +0.005 A 
ATOM     19  C   UNL     1       0.025  -2.071  -1.206  0.00  0.00    +0.029 A 
ATOM     20  C   UNL     1       0.040  -2.768  -0.013  0.00  0.00    +0.110 A 
ATOM     21  C   UNL     1       0.037  -2.084   1.188  0.00  0.00    +0.029 A 
ATOM     22  C   UNL     1       0.023  -0.702   1.195  0.00  0.00    +0.005 A 
ENDBRANCH  13  20
ENDBRANCH  12  13
ENDBRANCH   5  12
ENDBRANCH   1   8
BRANCH   3  23
ATOM     23  C   UNL     1       4.604 -12.288  -0.085  0.00  0.00    +0.139 C 
BRANCH  23  24
ATOM     24  C   UNL     1       6.103 -12.445  -0.087  0.00  0.00    -0.030 A 
ATOM     25  C   UNL     1       6.790 -12.504  -1.286  0.00  0.00    +0.005 A 
ATOM     26  C   UNL     1       8.164 -12.647  -1.289  0.00  0.00    +0.002 A 
ATOM     27  C   UNL     1       8.853 -12.732  -0.093  0.00  0.00    -0.064 A 
ATOM     28  C   UNL     1       8.166 -12.672   1.105  0.00  0.00    +0.002 A 
ATOM     29  C   UNL     1       6.792 -12.524   1.108  0.00  0.00    +0.005 A 
BRANCH  27  30
ATOM     30  C   UNL     1      10.352 -12.889  -0.096  0.00  0.00    -0.043 C 
BRANCH  30  31
ATOM     31  N   UNL     1      10.983 -11.563  -0.083  0.00  0.00    +0.383 N 
ATOM     32  C   UNL     1      10.656 -10.855  -1.327  0.00  0.00    -0.078 C 
ATOM     33  C   UNL     1      11.245  -9.443  -1.284  0.00  0.00    -0.018 C 
ATOM     34  C   UNL     1      12.766  -9.534  -1.131  0.00  0.00    -0.001 C 
ATOM     35  C   UNL     1      13.095 -10.338   0.130  0.00  0.00    -0.031 C 
ATOM     36  C   UNL     1      12.438 -11.717   0.035  0.00  0.00    -0.075 C 
ATOM     37  C   UNL     1      14.611 -10.501   0.251  0.00  0.00    +0.005 C 
ATOM     38  H   UNL     1      10.637 -11.034   0.704  0.00  0.00    -0.081 HD
ENDBRANCH  30  31
ENDBRANCH  27  30
ENDBRANCH  23  24
ENDBRANCH   3  23
TORSDOF 8
