REMARK  Name = ZINC16922205
REMARK  10 active torsions:
REMARK  status: ('A' for Active; 'I' for Inactive)
REMARK    1  A    between atoms: C_1  and  C_2
REMARK    2  A    between atoms: C_2  and  C_4
REMARK    3  A    between atoms: C_2  and  S_17
REMARK    4  A    between atoms: N_9  and  C_10
REMARK    5  A    between atoms: C_10  and  C_11
REMARK    6  A    between atoms: S_17  and  C_18
REMARK    7  A    between atoms: C_21  and  C_30
REMARK    8  A    between atoms: N_22  and  C_23
REMARK    9  A    between atoms: C_23  and  C_24
REMARK   10  A    between atoms: C_30  and  N_67
REMARK                            x       y       z     vdW  Elec       q    Type
REMARK                         _______ _______ _______ _____ _____    ______ ____
ROOT
ATOM      1  C   UNL     1       1.427   2.217  -0.037  0.00  0.00    +0.193 A 
ATOM      2  N   UNL     1       2.382   1.324  -0.154  0.00  0.00    -0.123 NA
ATOM      3  N   UNL     1       3.527   1.906  -0.146  0.00  0.00    -0.135 NA
ATOM      4  C   UNL     1       3.374   3.193  -0.016  0.00  0.00    +0.118 A 
ATOM      5  N   UNL     1       2.030   3.438   0.059  0.00  0.00    -0.303 N 
ENDROOT
BRANCH   1   6
ATOM      6  S   UNL     1      -0.306   1.899  -0.002  0.00  0.00    -0.074 S 
BRANCH   6   8
ATOM      7  C   UNL     1       0.362  -0.532   1.051  0.00  0.00    +0.029 C 
ATOM      8  C   UNL     1      -0.299   0.098  -0.177  0.00  0.00    +0.137 C 
BRANCH   8   9
ATOM      9  C   UNL     1      -1.716  -0.401  -0.295  0.00  0.00    +0.233 C 
ATOM     10  O   UNL     1      -2.636   0.290   0.088  0.00  0.00    -0.274 OA
ATOM     11  N   UNL     1      -1.961  -1.615  -0.827  0.00  0.00    -0.239 N 
ATOM     12  C   UNL     1      -3.229  -2.061  -0.933  0.00  0.00    +0.306 C 
ATOM     13  O   UNL     1      -4.151  -1.368  -0.549  0.00  0.00    -0.252 OA
ATOM     14  N   UNL     1      -3.474  -3.275  -1.466  0.00  0.00    -0.295 N 
ATOM     15  H   UNL     1      -1.226  -2.167  -1.134  0.00  0.00    +0.159 HD
ATOM     16  H   UNL     1      -2.738  -3.827  -1.772  0.00  0.00    +0.151 HD
BRANCH  14  17
ATOM     17  C   UNL     1      -4.851  -3.759  -1.581  0.00  0.00    +0.141 C 
BRANCH  17  18
ATOM     18  C   UNL     1      -4.851  -5.132  -2.203  0.00  0.00    -0.030 A 
ATOM     19  C   UNL     1      -4.938  -5.268  -3.576  0.00  0.00    +0.005 A 
ATOM     20  C   UNL     1      -4.933  -6.527  -4.147  0.00  0.00    +0.000 A 
ATOM     21  C   UNL     1      -4.849  -7.649  -3.345  0.00  0.00    +0.000 A 
ATOM     22  C   UNL     1      -4.767  -7.513  -1.972  0.00  0.00    +0.000 A 
ATOM     23  C   UNL     1      -4.768  -6.255  -1.401  0.00  0.00    +0.005 A 
ENDBRANCH  17  18
ENDBRANCH  14  17
ENDBRANCH   8   9
ENDBRANCH   6   8
ENDBRANCH   1   6
BRANCH   5  24
ATOM     24  C   UNL     1       1.375   4.739   0.209  0.00  0.00    +0.160 C 
BRANCH  24  25
ATOM     25  C   UNL     1       1.109   5.001   1.669  0.00  0.00    -0.028 A 
ATOM     26  C   UNL     1      -0.044   4.518   2.259  0.00  0.00    +0.005 A 
ATOM     27  C   UNL     1      -0.286   4.754   3.599  0.00  0.00    +0.000 A 
ATOM     28  C   UNL     1       0.620   5.483   4.347  0.00  0.00    +0.000 A 
ATOM     29  C   UNL     1       1.770   5.971   3.756  0.00  0.00    +0.000 A 
ATOM     30  C   UNL     1       2.014   5.730   2.417  0.00  0.00    +0.005 A 
ENDBRANCH  24  25
ENDBRANCH   5  24
BRANCH   4  31
ATOM     31  C   UNL     1       4.473   4.222   0.042  0.00  0.00    -0.001 C 
BRANCH  31  37
ATOM     32  C   UNL     1       5.343   3.801  -2.177  0.00  0.00    -0.078 C 
ATOM     33  C   UNL     1       5.423   4.362  -3.599  0.00  0.00    -0.019 C 
ATOM     34  C   UNL     1       6.221   5.669  -3.582  0.00  0.00    -0.004 C 
ATOM     35  C   UNL     1       5.550   6.655  -2.622  0.00  0.00    -0.019 C 
ATOM     36  C   UNL     1       5.466   6.027  -1.229  0.00  0.00    -0.078 C 
ATOM     37  N   UNL     1       4.665   4.787  -1.309  0.00  0.00    +0.384 N 
ATOM     38  H   UNL     1       3.747   5.010  -1.711  0.00  0.00    -0.081 HD
ENDBRANCH  31  37
ENDBRANCH   4  31
TORSDOF 9
