REMARK  Name = ZINC12558447
REMARK  9 active torsions:
REMARK  status: ('A' for Active; 'I' for Inactive)
REMARK    1  A    between atoms: C_1  and  N_2
REMARK    2  A    between atoms: N_2  and  C_3
REMARK    3  A    between atoms: N_2  and  P_4
REMARK    4  A    between atoms: P_4  and  N_24
REMARK    5  A    between atoms: C_8  and  N_17
REMARK    6  A    between atoms: N_9  and  C_11
REMARK    7  A    between atoms: C_18  and  C_20
REMARK    8  A    between atoms: N_24  and  C_25
REMARK    9  A    between atoms: N_24  and  C_26
REMARK                            x       y       z     vdW  Elec       q    Type
REMARK                         _______ _______ _______ _____ _____    ______ ____
ROOT
ATOM      1  P   UNL     1      -2.751   2.167   2.957  0.00  0.00    +0.220 P 
ATOM      2  N   UNL     1      -2.384   3.619   3.397  0.00  0.00    -0.194 NA
ATOM      3  C   UNL     1      -1.582   4.328   2.617  0.00  0.00    +0.188 A 
ATOM      4  C   UNL     1      -1.032   3.786   1.366  0.00  0.00    +0.086 A 
ATOM      5  C   UNL     1      -0.238   4.791   0.821  0.00  0.00    +0.131 A 
ATOM      6  N   UNL     1      -0.283   5.866   1.662  0.00  0.00    -0.216 N 
ATOM      7  N   UNL     1      -1.112   5.577   2.749  0.00  0.00    -0.144 NA
ATOM      8  C   UNL     1      -1.330   2.444   0.881  0.00  0.00    +0.109 C 
ATOM      9  N   UNL     1      -2.102   1.631   1.540  0.00  0.00    -0.216 NA
ENDROOT
BRANCH   6  10
ATOM     10  C   UNL     1       0.387   7.073   1.460  0.00  0.00    +0.067 A 
ATOM     11  C   UNL     1       1.643   7.082   0.864  0.00  0.00    +0.028 A 
ATOM     12  C   UNL     1       2.300   8.279   0.662  0.00  0.00    +0.002 A 
ATOM     13  C   UNL     1       1.715   9.467   1.061  0.00  0.00    +0.000 A 
ATOM     14  C   UNL     1       0.468   9.462   1.658  0.00  0.00    +0.002 A 
ATOM     15  C   UNL     1      -0.198   8.270   1.860  0.00  0.00    +0.028 A 
ENDBRANCH   6  10
BRANCH   8  16
ATOM     16  C   UNL     1      -0.722   1.983  -0.418  0.00  0.00    +0.233 C 
ATOM     17 CL   UNL     1      -1.336   0.336  -0.819  0.00  0.00    -0.077 Cl
ATOM     18 CL   UNL     1       1.073   1.932  -0.256  0.00  0.00    -0.077 Cl
ATOM     19 CL   UNL     1      -1.174   3.130  -1.734  0.00  0.00    -0.077 Cl
ENDBRANCH   8  16
BRANCH   1  21
ATOM     20  C   UNL     1      -4.918   2.900   1.720  0.00  0.00    +0.113 C 
ATOM     21  N   UNL     1      -4.426   2.071   2.829  0.00  0.00    -0.245 NA
ATOM     22  C   UNL     1      -4.864   0.677   2.679  0.00  0.00    +0.113 C 
ENDBRANCH   1  21
BRANCH   5  23
ATOM     23  N   UNL     1       0.468   4.715  -0.359  0.00  0.00    -0.342 N 
ATOM     24  H   UNL     1       0.574   3.861  -0.806  0.00  0.00    +0.144 HD
ATOM     25  H   UNL     1       0.859   5.515  -0.742  0.00  0.00    +0.144 HD
ENDBRANCH   5  23
BRANCH   1  26
ATOM     26  N   UNL     1      -2.268   1.116   4.179  0.00  0.00    -0.245 NA
ATOM     27  C   UNL     1      -0.804   1.079   4.294  0.00  0.00    +0.113 C 
ATOM     28  C   UNL     1      -2.888   1.480   5.461  0.00  0.00    +0.113 C 
ENDBRANCH   1  26
TORSDOF 5
