REMARK  Name = ZINC12569558
REMARK  8 active torsions:
REMARK  status: ('A' for Active; 'I' for Inactive)
REMARK    1  A    between atoms: C_1  and  C_2
REMARK    2  A    between atoms: C_16  and  C_18
REMARK    3  A    between atoms: C_21  and  O_33
REMARK    4  A    between atoms: C_22  and  S_24
REMARK    5  A    between atoms: S_24  and  N_27
REMARK    6  A    between atoms: N_27  and  C_28
REMARK    7  A    between atoms: O_33  and  C_34
REMARK    8  A    between atoms: C_35  and  N_67
REMARK                            x       y       z     vdW  Elec       q    Type
REMARK                         _______ _______ _______ _____ _____    ______ ____
ROOT
ATOM      1  C   UNL     1       5.306  -3.292  10.453  0.00  0.00    +0.044 C 
ATOM      2  C   UNL     1       4.540  -2.606   9.351  0.00  0.00    -0.050 A 
ATOM      3  C   UNL     1       3.545  -1.697   9.661  0.00  0.00    +0.005 A 
ATOM      4  C   UNL     1       2.845  -1.064   8.656  0.00  0.00    +0.024 A 
ATOM      5  C   UNL     1       3.138  -1.332   7.318  0.00  0.00    +0.040 A 
ATOM      6  C   UNL     1       4.128  -2.256   7.020  0.00  0.00    -0.023 A 
ATOM      7  C   UNL     1       4.830  -2.885   8.028  0.00  0.00    +0.009 A 
ATOM      8  C   UNL     1       4.220  -2.388   5.508  0.00  0.00    +0.025 C 
ATOM      9  C   UNL     1       3.848  -3.810   5.133  0.00  0.00    -0.069 C 
ATOM     10  C   UNL     1       1.999  -3.114   3.780  0.00  0.00    -0.077 C 
ATOM     11  C   UNL     1       2.400  -1.643   3.827  0.00  0.00    +0.005 C 
ATOM     12  C   UNL     1       3.282  -1.320   4.995  0.00  0.00    +0.086 C 
ATOM     13  N   UNL     1       2.563  -0.803   6.155  0.00  0.00    -0.264 N 
ATOM     14  C   UNL     1       1.514   0.042   6.115  0.00  0.00    +0.251 C 
ATOM     15  O   UNL     1       0.990   0.411   7.148  0.00  0.00    -0.270 OA
ATOM     16  C   UNL     1       2.961  -5.318   3.472  0.00  0.00    -0.096 C 
ATOM     17  N   UNL     1       3.247  -3.904   3.806  0.00  0.00    +0.378 N 
ATOM     18  H   UNL     1       3.901  -3.522   3.113  0.00  0.00    -0.082 HD
ENDROOT
BRANCH  14  19
ATOM     19  C   UNL     1       1.001   0.519   4.816  0.00  0.00    +0.039 A 
ATOM     20  C   UNL     1       1.879   1.055   3.869  0.00  0.00    +0.017 A 
ATOM     21  C   UNL     1       1.396   1.493   2.657  0.00  0.00    +0.048 A 
ATOM     22  C   UNL     1       0.037   1.413   2.377  0.00  0.00    +0.146 A 
ATOM     23  C   UNL     1      -0.839   0.881   3.316  0.00  0.00    +0.147 A 
ATOM     24  C   UNL     1      -0.364   0.435   4.529  0.00  0.00    +0.045 A 
BRANCH  23  25
ATOM     25  S   UNL     1      -2.560   0.776   2.952  0.00  0.00    +0.062 S 
ATOM     26  O   UNL     1      -2.668   0.182   1.665  0.00  0.00    -0.153 OA
ATOM     27  O   UNL     1      -3.185   0.221   4.101  0.00  0.00    -0.153 OA
BRANCH  25  28
ATOM     28  N   UNL     1      -3.126   2.325   2.807  0.00  0.00    -0.187 NA
ATOM     29  H   UNL     1      -3.775   2.666   3.442  0.00  0.00    +0.148 HD
BRANCH  28  30
ATOM     30  C   UNL     1      -2.646   3.182   1.720  0.00  0.00    +0.077 C 
ATOM     31  C   UNL     1      -1.508   4.092   2.227  0.00  0.00    +0.020 C 
ATOM     32  C   UNL     1      -1.742   5.436   1.491  0.00  0.00    +0.002 C 
ATOM     33  C   UNL     1      -3.286   5.556   1.478  0.00  0.00    +0.002 C 
ATOM     34  C   UNL     1      -3.775   4.112   1.243  0.00  0.00    +0.020 C 
ENDBRANCH  28  30
ENDBRANCH  25  28
ENDBRANCH  23  25
BRANCH  22  35
ATOM     35  O   UNL     1      -0.435   1.851   1.182  0.00  0.00    -0.493 OA
ATOM     36  C   UNL     1       0.520   2.387   0.264  0.00  0.00    +0.277 C 
ENDBRANCH  22  35
ENDBRANCH  14  19
TORSDOF 5
