REMARK  Name = ZINC64409707
REMARK  7 active torsions:
REMARK  status: ('A' for Active; 'I' for Inactive)
REMARK    1  A    between atoms: C_4  and  N_7
REMARK    2  A    between atoms: C_8  and  C_10
REMARK    3  A    between atoms: C_10  and  S_11
REMARK    4  A    between atoms: S_11  and  C_12
REMARK    5  A    between atoms: C_16  and  N_19
REMARK    6  A    between atoms: C_25  and  C_27
REMARK    7  A    between atoms: C_27  and  C_28
REMARK                            x       y       z     vdW  Elec       q    Type
REMARK                         _______ _______ _______ _____ _____    ______ ____
ROOT
ATOM      1  C   UNL     1       6.323  -5.225   0.374  0.00  0.00    +0.187 C 
ATOM      2  N   UNL     1       7.115  -4.615   1.487  0.00  0.00    -0.232 NA
ATOM      3  N   UNL     1       8.542  -4.744   1.279  0.00  0.00    -0.229 NA
ATOM      4  C   UNL     1       8.990  -4.708  -0.134  0.00  0.00    +0.201 C 
ATOM      5  S   UNL     1       7.385  -4.697  -1.045  0.00  0.00    -0.094 S 
ATOM      6  H   UNL     1       6.856  -3.651   1.629  0.00  0.00    +0.143 HD
ATOM      7  H   UNL     1       8.904  -5.558   1.753  0.00  0.00    +0.143 HD
ENDROOT
BRANCH   4   8
ATOM      8  N   UNL     1       9.760  -3.488  -0.410  0.00  0.00    -0.275 NA
ATOM      9  C   UNL     1       8.956  -2.287  -0.145  0.00  0.00    +0.105 C 
ATOM     10  C   UNL     1       9.726  -1.048  -0.614  0.00  0.00    +0.123 C 
ATOM     11  N   UNL     1      11.056  -1.058   0.016  0.00  0.00    -0.299 N 
ATOM     12  C   UNL     1      11.866  -2.281  -0.090  0.00  0.00    +0.123 C 
ATOM     13  C   UNL     1      11.012  -3.472   0.358  0.00  0.00    +0.105 C 
ATOM     14  C   UNL     1      11.519   0.024   0.671  0.00  0.00    +0.220 C 
ATOM     15  O   UNL     1      10.837   1.024   0.748  0.00  0.00    -0.275 OA
BRANCH  14  16
ATOM     16  C   UNL     1      12.884  -0.008   1.309  0.00  0.00    +0.129 C 
BRANCH  16  17
ATOM     17  C   UNL     1      13.160   1.317   1.973  0.00  0.00    -0.033 C 
ATOM     18  C   UNL     1      12.963   1.631   3.273  0.00  0.00    -0.001 A 
ATOM     19  C   UNL     1      12.451   0.864   4.415  0.00  0.00    +0.010 A 
ATOM     20  C   UNL     1      12.367   1.464   5.624  0.00  0.00    +0.001 A 
ATOM     21  C   UNL     1      12.755   2.798   5.813  0.00  0.00    +0.002 A 
ATOM     22  C   UNL     1      13.234   3.567   4.813  0.00  0.00    +0.026 A 
ATOM     23  C   UNL     1      13.366   3.038   3.499  0.00  0.00    +0.043 A 
ATOM     24  N   UNL     1      13.795   3.572   2.382  0.00  0.00    -0.380 N 
ATOM     25  C   UNL     1      13.719   2.562   1.321  0.00  0.00    +0.145 C 
ATOM     26  H   UNL     1      14.114   4.482   2.275  0.00  0.00    +0.160 HD
ENDBRANCH  16  17
ENDBRANCH  14  16
ENDBRANCH   4   8
BRANCH   1  27
ATOM     27  S   UNL     1       4.661  -4.506   0.267  0.00  0.00    -0.121 S 
BRANCH  27  28
ATOM     28  C   UNL     1       4.962  -2.721   0.153  0.00  0.00    +0.167 C 
BRANCH  28  30
ATOM     29  N   UNL     1       3.622  -0.651  -0.037  0.00  0.00    -0.285 N 
ATOM     30  C   UNL     1       3.645  -1.995   0.057  0.00  0.00    +0.227 C 
ATOM     31  O   UNL     1       2.606  -2.620   0.064  0.00  0.00    -0.275 OA
ATOM     32  H   UNL     1       4.452  -0.156  -0.121  0.00  0.00    +0.155 HD
BRANCH  29  36
ATOM     33  C   UNL     1      -0.015   1.381   0.029  0.00  0.00    +0.000 A 
ATOM     34  C   UNL     1       0.140   0.218   0.763  0.00  0.00    +0.002 A 
ATOM     35  C   UNL     1       1.344  -0.457   0.743  0.00  0.00    +0.023 A 
ATOM     36  C   UNL     1       2.400   0.031  -0.015  0.00  0.00    +0.033 A 
ATOM     37  C   UNL     1       2.241   1.198  -0.751  0.00  0.00    +0.023 A 
ATOM     38  C   UNL     1       1.034   1.870  -0.727  0.00  0.00    +0.002 A 
ENDBRANCH  29  36
ENDBRANCH  28  30
ENDBRANCH  27  28
ENDBRANCH   1  27
TORSDOF 7
