REMARK  Name = ZINC09086763
REMARK  4 active torsions:
REMARK  status: ('A' for Active; 'I' for Inactive)
REMARK    1  A    between atoms: C_1  and  C_2
REMARK    2  A    between atoms: C_4  and  C_15
REMARK    3  A    between atoms: C_5  and  C_14
REMARK    4  A    between atoms: N_6  and  C_7
REMARK                            x       y       z     vdW  Elec       q    Type
REMARK                         _______ _______ _______ _____ _____    ______ ____
ROOT
ATOM      1  C   UNL     1       0.336  -3.324  -1.542  0.00  0.00    +0.211 C 
ATOM      2  N   UNL     1       1.755  -3.720  -1.572  0.00  0.00    -0.293 N 
ATOM      3  C   UNL     1       2.626  -3.075  -2.409  0.00  0.00    +0.183 C 
ATOM      4  N   UNL     1       2.220  -2.558  -3.556  0.00  0.00    -0.183 NA
ATOM      5  C   UNL     1       0.905  -2.624  -3.865  0.00  0.00    +0.236 A 
ATOM      6  N   UNL     1      -0.043  -2.998  -2.923  0.00  0.00    -0.285 N 
ATOM      7  C   UNL     1      -1.260  -2.983  -3.534  0.00  0.00    +0.072 A 
ATOM      8  C   UNL     1      -2.544  -3.281  -3.095  0.00  0.00    +0.028 A 
ATOM      9  C   UNL     1      -3.574  -3.152  -4.013  0.00  0.00    +0.002 A 
ATOM     10  C   UNL     1      -3.348  -2.743  -5.316  0.00  0.00    +0.002 A 
ATOM     11  C   UNL     1      -2.080  -2.441  -5.779  0.00  0.00    +0.030 A 
ATOM     12  C   UNL     1      -1.024  -2.565  -4.869  0.00  0.00    +0.091 A 
ATOM     13  N   UNL     1       0.306  -2.354  -5.001  0.00  0.00    -0.210 NA
ATOM     14  N   UNL     1       3.942  -2.964  -2.051  0.00  0.00    -0.331 N 
ATOM     15  H   UNL     1       4.249  -3.340  -1.212  0.00  0.00    +0.145 HD
ATOM     16  H   UNL     1       4.567  -2.509  -2.637  0.00  0.00    +0.145 HD
ATOM     17  H   UNL     1       2.071  -4.436  -0.999  0.00  0.00    +0.151 HD
ENDROOT
BRANCH   1  21
ATOM     18  C   UNL     1      -0.330   1.480   0.021  0.00  0.00    +0.064 C 
ATOM     19  C   UNL     1      -0.135  -0.014   0.007  0.00  0.00    +0.021 A 
ATOM     20  C   UNL     1      -0.006  -0.784  -1.093  0.00  0.00    +0.030 A 
ATOM     21  C   UNL     1       0.156  -2.115  -0.660  0.00  0.00    +0.014 A 
ATOM     22  C   UNL     1       0.120  -2.110   0.688  0.00  0.00    +0.028 A 
ATOM     23  N   UNL     1      -0.053  -0.821   1.105  0.00  0.00    -0.317 N 
ATOM     24  C   UNL     1       0.254  -3.317   1.580  0.00  0.00    +0.064 C 
BRANCH  23  25
ATOM     25  C   UNL     1      -0.136  -0.398   2.439  0.00  0.00    +0.047 A 
ATOM     26  C   UNL     1       0.964  -0.521   3.278  0.00  0.00    +0.027 A 
ATOM     27  C   UNL     1       0.880  -0.104   4.591  0.00  0.00    +0.017 A 
ATOM     28  C   UNL     1      -0.299   0.437   5.072  0.00  0.00    +0.018 A 
ATOM     29  C   UNL     1      -1.397   0.561   4.239  0.00  0.00    +0.017 A 
ATOM     30  C   UNL     1      -1.316   0.151   2.923  0.00  0.00    +0.027 A 
ATOM     31 BR   UNL     1      -0.411   1.008   6.872  0.00  0.00    -0.050 Br
ENDBRANCH  23  25
ENDBRANCH   1  21
TORSDOF 2
