REMARK  Name = ZINC08876661
REMARK  3 active torsions:
REMARK  status: ('A' for Active; 'I' for Inactive)
REMARK    1  A    between atoms: C_4  and  N_7
REMARK    2  A    between atoms: C_12  and  C_28
REMARK    3  A    between atoms: C_28  and  C_29
REMARK                            x       y       z     vdW  Elec       q    Type
REMARK                         _______ _______ _______ _____ _____    ______ ____
ROOT
ATOM      1  N   UNL     1      -2.704   0.246   1.186  0.00  0.00    -0.210 N 
ATOM      2  C   UNL     1      -3.599   1.238   1.109  0.00  0.00    +0.228 C 
ATOM      3  O   UNL     1      -4.791   1.122   1.299  0.00  0.00    -0.275 OA
ATOM      4  C   UNL     1      -2.893   2.526   0.751  0.00  0.00    +0.074 C 
ATOM      5  C   UNL     1      -3.312   2.959  -0.670  0.00  0.00    -0.053 C 
ATOM      6  C   UNL     1      -1.081   2.291  -0.871  0.00  0.00    +0.050 C 
ATOM      7  C   UNL     1      -1.406   2.094   0.615  0.00  0.00    +0.088 C 
ATOM      8  C   UNL     1      -1.444   0.615   0.932  0.00  0.00    +0.229 C 
ATOM      9  O   UNL     1      -0.481  -0.121   0.952  0.00  0.00    -0.275 OA
ATOM     10  C   UNL     1      -0.142   1.232  -1.374  0.00  0.00    -0.028 A 
ATOM     11  C   UNL     1      -0.208  -0.141  -1.437  0.00  0.00    +0.004 A 
ATOM     12  C   UNL     1       0.850  -0.862  -1.961  0.00  0.00    +0.000 A 
ATOM     13  C   UNL     1       1.973  -0.200  -2.423  0.00  0.00    +0.002 A 
ATOM     14  C   UNL     1       2.043   1.177  -2.362  0.00  0.00    +0.023 A 
ATOM     15  C   UNL     1       0.983   1.910  -1.836  0.00  0.00    +0.036 A 
ATOM     16  N   UNL     1       0.819   3.287  -1.669  0.00  0.00    -0.286 N 
ATOM     17  C   UNL     1      -0.368   3.594  -1.111  0.00  0.00    +0.211 C 
ATOM     18  O   UNL     1      -0.780   4.704  -0.850  0.00  0.00    -0.277 OA
ATOM     19  H   UNL     1       1.482   3.946  -1.927  0.00  0.00    +0.155 HD
ATOM     20  N   UNL     1      -2.367   2.262  -1.546  0.00  0.00    +0.394 N 
ATOM     21  H   UNL     1      -2.304   2.741  -2.452  0.00  0.00    -0.083 HD
ATOM     22  H   UNL     1      -2.669   1.292  -1.692  0.00  0.00    -0.083 HD
ENDROOT
BRANCH   1  26
ATOM     23  C   UNL     1      -3.759  -3.674   2.135  0.00  0.00    +0.000 A 
ATOM     24  C   UNL     1      -4.179  -3.116   0.942  0.00  0.00    +0.002 A 
ATOM     25  C   UNL     1      -3.831  -1.817   0.624  0.00  0.00    +0.024 A 
ATOM     26  C   UNL     1      -3.059  -1.072   1.505  0.00  0.00    +0.044 A 
ATOM     27  C   UNL     1      -2.634  -1.636   2.700  0.00  0.00    +0.024 A 
ATOM     28  C   UNL     1      -2.989  -2.934   3.014  0.00  0.00    +0.002 A 
ENDBRANCH   1  26
BRANCH   5  29
ATOM     29  C   UNL     1      -3.161   4.474  -0.830  0.00  0.00    +0.022 C 
BRANCH  29  30
ATOM     30  C   UNL     1      -4.462   5.148  -0.478  0.00  0.00    -0.024 A 
ATOM     31  C   UNL     1      -5.430   5.512  -1.334  0.00  0.00    +0.087 A 
ATOM     32  N   UNL     1      -6.461   6.096  -0.651  0.00  0.00    -0.360 N 
ATOM     33  H   UNL     1      -7.273   6.440  -1.055  0.00  0.00    +0.165 HD
ATOM     34  C   UNL     1      -6.175   6.123   0.696  0.00  0.00    +0.047 A 
ATOM     35  C   UNL     1      -4.913   5.525   0.864  0.00  0.00    +0.003 A 
ATOM     36  C   UNL     1      -4.357   5.418   2.140  0.00  0.00    +0.010 A 
ATOM     37  C   UNL     1      -5.048   5.886   3.222  0.00  0.00    +0.001 A 
ATOM     38  C   UNL     1      -6.296   6.472   3.062  0.00  0.00    +0.002 A 
ATOM     39  C   UNL     1      -6.861   6.592   1.811  0.00  0.00    +0.026 A 
ENDBRANCH  29  30
ENDBRANCH   5  29
TORSDOF 3
