REMARK  Name = ZINC39545714
REMARK  8 active torsions:
REMARK  status: ('A' for Active; 'I' for Inactive)
REMARK    1  A    between atoms: C_1  and  S_2
REMARK    2  A    between atoms: S_2  and  N_3
REMARK    3  A    between atoms: N_3  and  S_27
REMARK    4  A    between atoms: C_4  and  C_6
REMARK    5  A    between atoms: C_9  and  C_20
REMARK    6  A    between atoms: C_25  and  O_26
REMARK    7  A    between atoms: S_27  and  O_30
REMARK    8  A    between atoms: O_30  and  C_31
REMARK                            x       y       z     vdW  Elec       q    Type
REMARK                         _______ _______ _______ _____ _____    ______ ____
ROOT
ATOM      1  C   UNL     1       2.912  -0.345  -0.116  0.00  0.00    +0.151 C 
ATOM      2  C   UNL     1       2.498  -1.405   0.923  0.00  0.00    +0.069 C 
ATOM      3  C   UNL     1       3.777  -2.155   1.219  0.00  0.00    -0.000 C 
ATOM      4  C   UNL     1       4.759  -1.646   0.489  0.00  0.00    +0.079 C 
ATOM      5  N   UNL     1       6.101  -2.051   0.510  0.00  0.00    -0.303 N 
ATOM      6  C   UNL     1       7.035  -1.012   0.361  0.00  0.00    +0.037 A 
ATOM      7  C   UNL     1       8.391  -1.280   0.482  0.00  0.00    +0.023 A 
ATOM      8  C   UNL     1       9.309  -0.260   0.326  0.00  0.00    +0.002 A 
ATOM      9  C   UNL     1       8.871   1.023   0.048  0.00  0.00    +0.000 A 
ATOM     10  C   UNL     1       7.521   1.291  -0.068  0.00  0.00    +0.007 A 
ATOM     11  C   UNL     1       6.592   0.276   0.092  0.00  0.00    -0.010 A 
ATOM     12  C   UNL     1       5.126   0.602  -0.016  0.00  0.00    +0.124 C 
ATOM     13  N   UNL     1       4.345  -0.593  -0.342  0.00  0.00    -0.369 NA
ATOM     14  H   UNL     1       6.365  -2.978   0.620  0.00  0.00    +0.153 HD
ATOM     15  H   UNL     1       4.498  -0.840  -1.308  0.00  0.00    +0.128 HD
ENDROOT
BRANCH   3  16
ATOM     16  C   UNL     1       3.910  -3.275   2.170  0.00  0.00    +0.023 A 
ATOM     17  C   UNL     1       4.517  -3.073   3.410  0.00  0.00    +0.012 A 
ATOM     18  C   UNL     1       4.639  -4.125   4.295  0.00  0.00    +0.001 A 
ATOM     19  C   UNL     1       4.162  -5.379   3.958  0.00  0.00    +0.004 A 
ATOM     20  C   UNL     1       3.560  -5.591   2.731  0.00  0.00    +0.046 A 
ATOM     21  C   UNL     1       3.424  -4.545   1.835  0.00  0.00    +0.124 A 
BRANCH  21  22
ATOM     22  O   UNL     1       2.826  -4.751   0.631  0.00  0.00    -0.506 OA
ATOM     23  H   UNL     1       3.436  -5.017  -0.070  0.00  0.00    +0.292 HD
ENDBRANCH  21  22
ENDBRANCH   3  16
BRANCH   1  25
ATOM     24  N   UNL     1       0.797  -0.386  -1.399  0.00  0.00    -0.081 N 
ATOM     25  C   UNL     1       2.138  -0.531  -1.395  0.00  0.00    +0.266 C 
ATOM     26  O   UNL     1       2.720  -0.811  -2.422  0.00  0.00    -0.271 OA
BRANCH  24  27
ATOM     27  S   UNL     1      -0.053  -0.590  -2.805  0.00  0.00    +0.222 S 
ATOM     28  O   UNL     1       0.740  -1.420  -3.643  0.00  0.00    -0.114 OA
ATOM     29  O   UNL     1      -1.381  -0.933  -2.430  0.00  0.00    -0.114 OA
BRANCH  27  30
ATOM     30  O   UNL     1      -0.131   0.769  -3.486  0.00  0.00    -0.330 OA
BRANCH  30  31
ATOM     31  C   UNL     1       1.030   1.159  -4.076  0.00  0.00    +0.158 A 
ATOM     32  C   UNL     1       1.967   1.884  -3.354  0.00  0.00    +0.048 A 
ATOM     33  C   UNL     1       3.146   2.278  -3.956  0.00  0.00    +0.004 A 
ATOM     34  C   UNL     1       3.392   1.951  -5.277  0.00  0.00    +0.000 A 
ATOM     35  C   UNL     1       2.460   1.229  -5.998  0.00  0.00    +0.004 A 
ATOM     36  C   UNL     1       1.282   0.827  -5.399  0.00  0.00    +0.048 A 
ENDBRANCH  30  31
ENDBRANCH  27  30
ENDBRANCH  24  27
BRANCH  24  38
ATOM     37  C   UNL     1      -0.022   1.810   0.012  0.00  0.00    +0.108 C 
ATOM     38  S   UNL     1       0.002  -0.004   0.002  0.00  0.00    -0.033 S 
ENDBRANCH  24  38
ENDBRANCH   1  25
TORSDOF 7
