REMARK  Name = ZINC22912059
REMARK  11 active torsions:
REMARK  status: ('A' for Active; 'I' for Inactive)
REMARK    1  A    between atoms: C_1  and  C_2
REMARK    2  A    between atoms: C_2  and  C_4
REMARK    3  A    between atoms: C_2  and  N_19
REMARK    4  A    between atoms: N_6  and  C_7
REMARK    5  A    between atoms: C_7  and  C_8
REMARK    6  A    between atoms: C_8  and  C_9
REMARK    7  A    between atoms: C_12  and  S_15
REMARK    8  A    between atoms: S_15  and  N_18
REMARK    9  A    between atoms: N_22  and  C_25
REMARK   10  A    between atoms: C_25  and  C_26
REMARK   11  A    between atoms: N_28  and  C_29
REMARK                            x       y       z     vdW  Elec       q    Type
REMARK                         _______ _______ _______ _____ _____    ______ ____
ROOT
ATOM      1  C   UNL     1      -2.153   5.271  -1.672  0.00  0.00    +0.230 C 
ATOM      2  O   UNL     1      -1.996   5.655  -0.532  0.00  0.00    -0.274 OA
ATOM      3  N   UNL     1      -2.699   6.093  -2.590  0.00  0.00    -0.314 N 
ATOM      4  H   UNL     1      -2.842   5.745  -3.624  0.00  0.00    +0.149 HD
ENDROOT
BRANCH   1   6
ATOM      5  C   UNL     1      -2.939   2.934  -1.936  0.00  0.00    +0.034 C 
ATOM      6  C   UNL     1      -1.740   3.875  -2.061  0.00  0.00    +0.140 C 
BRANCH   6   7
ATOM      7  N   UNL     1      -0.663   3.418  -1.173  0.00  0.00    -0.295 NA
ATOM      8  C   UNL     1       0.535   4.256  -1.322  0.00  0.00    +0.066 C 
ATOM      9  C   UNL     1       1.602   3.798  -0.326  0.00  0.00    -0.063 C 
ATOM     10  N   UNL     1       1.919   2.383  -0.567  0.00  0.00    +0.387 N 
ATOM     11  C   UNL     1       0.721   1.545  -0.418  0.00  0.00    -0.063 C 
ATOM     12  C   UNL     1      -0.346   2.003  -1.415  0.00  0.00    +0.066 C 
ATOM     13  H   UNL     1       2.275   2.286  -1.603  0.00  0.00    -0.081 HD
BRANCH  10  14
ATOM     14  C   UNL     1       2.996   1.926   0.322  0.00  0.00    +0.019 C 
BRANCH  14  15
ATOM     15  C   UNL     1       4.274   2.644  -0.026  0.00  0.00    +0.197 C 
ATOM     16  O   UNL     1       4.296   3.427  -0.952  0.00  0.00    -0.278 OA
ATOM     17  N   UNL     1       5.392   2.416   0.691  0.00  0.00    -0.314 N 
ATOM     18  H   UNL     1       5.372   1.706   1.531  0.00  0.00    +0.149 HD
BRANCH  17  19
ATOM     19  C   UNL     1       6.635   3.114   0.352  0.00  0.00    +0.073 C 
ATOM     20  C   UNL     1       7.925   2.293   0.339  0.00  0.00    +0.024 C 
ATOM     21  C   UNL     1       7.668   3.296   1.465  0.00  0.00    +0.024 C 
ENDBRANCH  17  19
ENDBRANCH  14  15
ENDBRANCH  10  14
ENDBRANCH   6   7
ENDBRANCH   1   6
BRANCH   3  22
ATOM     22  C   UNL     1      -3.101   7.450  -2.212  0.00  0.00    +0.109 C 
BRANCH  22  23
ATOM     23  C   UNL     1      -3.686   8.167  -3.430  0.00  0.00    +0.054 C 
BRANCH  23  24
ATOM     24  C   UNL     1      -4.100   9.563  -3.041  0.00  0.00    -0.046 A 
ATOM     25  C   UNL     1      -5.382   9.801  -2.581  0.00  0.00    +0.005 A 
ATOM     26  C   UNL     1      -5.760  11.081  -2.219  0.00  0.00    +0.029 A 
ATOM     27  C   UNL     1      -4.859  12.124  -2.326  0.00  0.00    +0.105 A 
ATOM     28  C   UNL     1      -3.579  11.886  -2.791  0.00  0.00    +0.029 A 
ATOM     29  C   UNL     1      -3.200  10.606  -3.148  0.00  0.00    +0.005 A 
BRANCH  27  30
ATOM     30  S   UNL     1      -5.342  13.755  -1.870  0.00  0.00    +0.056 S 
ATOM     31  O   UNL     1      -6.418  13.618  -0.952  0.00  0.00    -0.153 OA
ATOM     32  O   UNL     1      -4.150  14.457  -1.546  0.00  0.00    -0.153 OA
BRANCH  30  33
ATOM     33  N   UNL     1      -5.964  14.479  -3.224  0.00  0.00    -0.204 NA
ATOM     34  H   UNL     1      -6.279  15.504  -2.980  0.00  0.00    +0.144 HD
ATOM     35  H   UNL     1      -6.832  13.904  -3.581  0.00  0.00    +0.144 HD
ENDBRANCH  30  33
ENDBRANCH  27  30
ENDBRANCH  23  24
ENDBRANCH  22  23
ENDBRANCH   3  22
TORSDOF 10
