REMARK  Name = ZINC17146977
REMARK  3 active torsions:
REMARK  status: ('A' for Active; 'I' for Inactive)
REMARK    1  A    between atoms: C_10  and  C_11
REMARK    2  A    between atoms: C_13  and  C_17
REMARK    3  A    between atoms: N_19  and  N_20
REMARK                            x       y       z     vdW  Elec       q    Type
REMARK                         _______ _______ _______ _____ _____    ______ ____
ROOT
ATOM      1  C   UNL     1       8.570   0.637   0.039  0.00  0.00    +0.281 C 
ATOM      2  O   UNL     1       9.148  -0.429   0.128  0.00  0.00    -0.267 OA
ATOM      3  N   UNL     1       9.275   1.784  -0.014  0.00  0.00    -0.201 N 
ATOM      4  H   UNL     1       8.814   2.634  -0.086  0.00  0.00    +0.178 HD
ENDROOT
BRANCH   3   5
ATOM      5  N   UNL     1      10.675   1.748   0.034  0.00  0.00    -0.174 NA
ATOM      6  C   UNL     1      11.361   2.865  -0.018  0.00  0.00    +0.153 C 
ATOM      7  C   UNL     1      12.834   3.020   0.014  0.00  0.00    +0.029 A 
ATOM      8  C   UNL     1      13.886   2.114   0.101  0.00  0.00    +0.027 A 
ATOM      9  C   UNL     1      15.188   2.575   0.109  0.00  0.00    +0.019 A 
ATOM     10  C   UNL     1      15.443   3.934   0.030  0.00  0.00    +0.017 A 
ATOM     11  C   UNL     1      14.406   4.840  -0.057  0.00  0.00    +0.025 A 
ATOM     12  C   UNL     1      13.089   4.395  -0.067  0.00  0.00    +0.043 A 
ATOM     13  N   UNL     1      11.882   5.082  -0.145  0.00  0.00    -0.280 N 
ATOM     14  C   UNL     1      10.835   4.240  -0.127  0.00  0.00    +0.269 C 
ATOM     15  O   UNL     1       9.661   4.555  -0.187  0.00  0.00    -0.268 OA
ATOM     16 BR   UNL     1      16.623   1.349   0.229  0.00  0.00    -0.050 Br
ATOM     17  H   UNL     1      11.806   6.047  -0.208  0.00  0.00    +0.155 HD
ENDBRANCH   3   5
BRANCH   1  20
ATOM     18  C   UNL     1       4.949   0.138  -0.046  0.00  0.00    +0.094 A 
ATOM     19  C   UNL     1       6.243  -0.409   0.032  0.00  0.00    +0.062 A 
ATOM     20  C   UNL     1       7.100   0.674  -0.012  0.00  0.00    +0.122 A 
ATOM     21  N   UNL     1       6.313   1.788  -0.111  0.00  0.00    -0.272 N 
ATOM     22  H   UNL     1       6.641   2.699  -0.160  0.00  0.00    +0.189 HD
ATOM     23  N   UNL     1       5.075   1.447  -0.134  0.00  0.00    -0.173 NA
BRANCH  18  33
ATOM     24  C   UNL     1       0.667   0.175  -2.840  0.00  0.00    +0.001 A 
ATOM     25  C   UNL     1       1.856   0.900  -2.866  0.00  0.00    +0.001 A 
ATOM     26  C   UNL     1       2.846   0.656  -1.963  0.00  0.00    +0.009 A 
ATOM     27  C   UNL     1       2.669  -0.339  -0.991  0.00  0.00    -0.009 A 
ATOM     28  C   UNL     1       1.461  -1.077  -0.962  0.00  0.00    -0.017 A 
ATOM     29  C   UNL     1       0.461  -0.798  -1.911  0.00  0.00    +0.008 A 
ATOM     30  C   UNL     1       1.282  -2.074   0.012  0.00  0.00    +0.008 A 
ATOM     31  C   UNL     1       2.266  -2.325   0.920  0.00  0.00    +0.001 A 
ATOM     32  C   UNL     1       3.457  -1.609   0.905  0.00  0.00    +0.011 A 
ATOM     33  C   UNL     1       3.675  -0.620  -0.037  0.00  0.00    +0.010 A 
ENDBRANCH  18  33
ENDBRANCH   1  20
TORSDOF 3
