REMARK  Name = ZINC00930836
REMARK  8 active torsions:
REMARK  status: ('A' for Active; 'I' for Inactive)
REMARK    1  A    between atoms: C_1  and  C_2
REMARK    2  A    between atoms: N_4  and  C_5
REMARK    3  A    between atoms: C_8  and  N_11
REMARK    4  A    between atoms: N_11  and  C_12
REMARK    5  A    between atoms: C_12  and  C_14
REMARK    6  A    between atoms: C_12  and  C_21
REMARK    7  A    between atoms: N_23  and  C_24
REMARK    8  A    between atoms: C_30  and  C_32
REMARK                            x       y       z     vdW  Elec       q    Type
REMARK                         _______ _______ _______ _____ _____    ______ ____
ROOT
ATOM      1  N   UNL     1      -7.568   0.176  -3.323  0.00  0.00    -0.252 N 
ATOM      2  C   UNL     1      -6.441  -0.026  -2.613  0.00  0.00    +0.265 C 
ATOM      3  O   UNL     1      -6.211   0.651  -1.633  0.00  0.00    -0.271 OA
ENDROOT
BRANCH   2   4
ATOM      4  C   UNL     1      -5.466  -1.095  -3.035  0.00  0.00    +0.296 C 
ATOM      5  C   UNL     1      -5.288  -2.111  -1.899  0.00  0.00    +0.283 C 
ATOM      6  O   UNL     1      -4.347  -3.102  -2.327  0.00  0.00    -0.484 OA
ATOM      7  C   UNL     1      -3.209  -2.649  -2.921  0.00  0.00    +0.162 A 
ATOM      8  C   UNL     1      -2.116  -3.496  -3.033  0.00  0.00    +0.049 A 
ATOM      9  C   UNL     1      -0.956  -3.051  -3.638  0.00  0.00    +0.004 A 
ATOM     10  C   UNL     1      -0.880  -1.762  -4.132  0.00  0.00    +0.004 A 
ATOM     11  C   UNL     1      -1.965  -0.913  -4.022  0.00  0.00    +0.049 A 
ATOM     12  C   UNL     1      -3.133  -1.352  -3.416  0.00  0.00    +0.163 A 
ATOM     13  O   UNL     1      -4.192  -0.504  -3.312  0.00  0.00    -0.472 OA
ENDBRANCH   2   4
BRANCH   1  17
ATOM     14  C   UNL     1      -8.242  -1.985  -6.825  0.00  0.00    +0.033 A 
ATOM     15  C   UNL     1      -8.184  -0.598  -6.865  0.00  0.00    +0.025 A 
ATOM     16  C   UNL     1      -7.966   0.118  -5.705  0.00  0.00    +0.025 A 
ATOM     17  C   UNL     1      -7.794  -0.549  -4.500  0.00  0.00    +0.038 A 
ATOM     18  C   UNL     1      -7.847  -1.937  -4.460  0.00  0.00    +0.025 A 
ATOM     19  C   UNL     1      -8.069  -2.652  -5.620  0.00  0.00    +0.025 A 
BRANCH  14  23
ATOM     20  C   UNL     1      -9.511  -2.985 -10.227  0.00  0.00    +0.109 C 
ATOM     21  C   UNL     1      -9.217  -2.180  -8.988  0.00  0.00    +0.214 C 
ATOM     22  O   UNL     1      -9.652  -1.053  -8.880  0.00  0.00    -0.276 OA
ATOM     23  N   UNL     1      -8.467  -2.711  -8.002  0.00  0.00    -0.286 N 
ATOM     24  H   UNL     1      -8.083  -3.595  -8.107  0.00  0.00    +0.155 HD
ENDBRANCH  14  23
ENDBRANCH   1  17
BRANCH   1  25
ATOM     25  C   UNL     1      -8.556   1.156  -2.866  0.00  0.00    +0.197 C 
BRANCH  25  26
ATOM     26  C   UNL     1      -7.976   2.543  -2.974  0.00  0.00    -0.018 A 
ATOM     27  C   UNL     1      -6.607   2.714  -3.060  0.00  0.00    +0.009 A 
ATOM     28  C   UNL     1      -6.074   3.985  -3.165  0.00  0.00    +0.038 A 
ATOM     29  C   UNL     1      -6.912   5.088  -3.173  0.00  0.00    +0.123 A 
ATOM     30  C   UNL     1      -8.282   4.915  -3.081  0.00  0.00    +0.038 A 
ATOM     31  C   UNL     1      -8.813   3.643  -2.981  0.00  0.00    +0.009 A 
ATOM     32  F   UNL     1      -6.392   6.331  -3.270  0.00  0.00    -0.205 F 
ENDBRANCH  25  26
BRANCH  25  33
ATOM     33  C   UNL     1      -8.916   0.873  -1.430  0.00  0.00    +0.239 C 
ATOM     34  O   UNL     1      -8.395  -0.052  -0.845  0.00  0.00    -0.273 OA
ATOM     35  N   UNL     1      -9.819   1.648  -0.796  0.00  0.00    -0.311 N 
ATOM     36  H   UNL     1     -10.236   2.389  -1.264  0.00  0.00    +0.149 HD
BRANCH  35  37
ATOM     37  C   UNL     1     -10.169   1.373   0.599  0.00  0.00    +0.073 C 
ATOM     38  C   UNL     1     -11.267   0.309   0.649  0.00  0.00    +0.022 C 
ATOM     39  C   UNL     1     -11.633   0.021   2.107  0.00  0.00    +0.002 C 
ATOM     40  C   UNL     1     -12.137   1.305   2.769  0.00  0.00    +0.000 C 
ATOM     41  C   UNL     1     -11.039   2.369   2.719  0.00  0.00    +0.002 C 
ATOM     42  C   UNL     1     -10.673   2.657   1.262  0.00  0.00    +0.022 C 
ENDBRANCH  35  37
ENDBRANCH  25  33
ENDBRANCH   1  25
TORSDOF 7
