REMARK  Name = ZINC36514483
REMARK  17 active torsions:
REMARK  status: ('A' for Active; 'I' for Inactive)
REMARK    1  A    between atoms: C_1  and  C_2
REMARK    2  A    between atoms: C_2  and  C_3
REMARK    3  A    between atoms: C_3  and  C_4
REMARK    4  A    between atoms: C_4  and  C_5
REMARK    5  A    between atoms: C_5  and  C_6
REMARK    6  A    between atoms: C_6  and  N_7
REMARK    7  A    between atoms: N_7  and  C_8
REMARK    8  A    between atoms: C_8  and  C_10
REMARK    9  A    between atoms: C_8  and  C_17
REMARK   10  A    between atoms: C_13  and  O_16
REMARK   11  A    between atoms: N_19  and  C_20
REMARK   12  A    between atoms: C_20  and  C_21
REMARK   13  A    between atoms: C_20  and  C_22
REMARK   14  A    between atoms: C_20  and  C_23
REMARK   15  A    between atoms: C_24  and  C_26
REMARK   16  A    between atoms: C_27  and  O_33
REMARK   17  A    between atoms: C_31  and  O_32
REMARK                            x       y       z     vdW  Elec       q    Type
REMARK                         _______ _______ _______ _____ _____    ______ ____
ROOT
ATOM      1  N   UNL     1       2.188  -4.364  -3.601  0.00  0.00    -0.282 N 
ATOM      2  C   UNL     1       1.353  -4.425  -4.657  0.00  0.00    +0.255 C 
ATOM      3  O   UNL     1       1.742  -4.885  -5.714  0.00  0.00    -0.270 OA
ENDROOT
BRANCH   2   4
ATOM      4  C   UNL     1      -0.029  -3.933  -4.533  0.00  0.00    +0.119 A 
ATOM      5  C   UNL     1      -0.333  -2.596  -4.827  0.00  0.00    +0.133 A 
ATOM      6  C   UNL     1      -1.637  -2.144  -4.706  0.00  0.00    +0.046 A 
ATOM      7  C   UNL     1      -2.638  -3.007  -4.299  0.00  0.00    +0.007 A 
ATOM      8  C   UNL     1      -2.349  -4.327  -4.007  0.00  0.00    +0.046 A 
ATOM      9  C   UNL     1      -1.053  -4.801  -4.126  0.00  0.00    +0.133 A 
BRANCH   9  10
ATOM     10  O   UNL     1      -0.774  -6.098  -3.844  0.00  0.00    -0.506 OA
ATOM     11  H   UNL     1      -0.541  -6.259  -2.920  0.00  0.00    +0.292 HD
ENDBRANCH   9  10
BRANCH   5  12
ATOM     12  O   UNL     1       0.647  -1.747  -5.226  0.00  0.00    -0.506 OA
ATOM     13  H   UNL     1       0.778  -1.721  -6.184  0.00  0.00    +0.292 HD
ENDBRANCH   5  12
ENDBRANCH   2   4
BRANCH   1  14
ATOM     14  C   UNL     1       1.691  -3.906  -2.301  0.00  0.00    +0.109 C 
BRANCH  14  15
ATOM     15  C   UNL     1       1.861  -2.389  -2.196  0.00  0.00    +0.019 C 
BRANCH  15  16
ATOM     16  C   UNL     1       1.342  -1.911  -0.838  0.00  0.00    +0.002 C 
BRANCH  16  17
ATOM     17  C   UNL     1       1.512  -0.394  -0.733  0.00  0.00    -0.000 C 
BRANCH  17  19
ATOM     18  C   UNL     1       1.163   1.602   0.729  0.00  0.00    +0.004 C 
ATOM     19  C   UNL     1       0.994   0.085   0.624  0.00  0.00    -0.003 C 
ENDBRANCH  17  19
ENDBRANCH  16  17
ENDBRANCH  15  16
ENDBRANCH  14  15
ENDBRANCH   1  14
BRANCH   1  20
ATOM     20  C   UNL     1       3.591  -4.757  -3.752  0.00  0.00    +0.192 C 
BRANCH  20  21
ATOM     21  C   UNL     1       4.213  -3.973  -4.878  0.00  0.00    -0.018 A 
ATOM     22  C   UNL     1       4.236  -4.500  -6.156  0.00  0.00    +0.009 A 
ATOM     23  C   UNL     1       4.806  -3.783  -7.190  0.00  0.00    +0.046 A 
ATOM     24  C   UNL     1       5.357  -2.534  -6.946  0.00  0.00    +0.117 A 
ATOM     25  C   UNL     1       5.332  -2.007  -5.662  0.00  0.00    +0.046 A 
ATOM     26  C   UNL     1       4.756  -2.725  -4.633  0.00  0.00    +0.009 A 
BRANCH  24  27
ATOM     27  O   UNL     1       5.919  -1.827  -7.961  0.00  0.00    -0.507 OA
ATOM     28  H   UNL     1       5.301  -1.245  -8.425  0.00  0.00    +0.292 HD
ENDBRANCH  24  27
ENDBRANCH  20  21
BRANCH  20  29
ATOM     29  C   UNL     1       3.670  -6.230  -4.062  0.00  0.00    +0.238 C 
ATOM     30  O   UNL     1       2.654  -6.887  -4.148  0.00  0.00    -0.273 OA
ATOM     31  N   UNL     1       4.869  -6.817  -4.243  0.00  0.00    -0.309 N 
ATOM     32  H   UNL     1       5.681  -6.292  -4.174  0.00  0.00    +0.149 HD
BRANCH  31  33
ATOM     33  C   UNL     1       4.946  -8.249  -4.544  0.00  0.00    +0.026 C 
ATOM     34  C   UNL     1       4.192  -8.538  -5.844  0.00  0.00    +0.031 C 
ATOM     35  C   UNL     1       6.411  -8.659  -4.702  0.00  0.00    +0.031 C 
ATOM     36  C   UNL     1       4.314  -9.045  -3.401  0.00  0.00    +0.031 C 
ENDBRANCH  31  33
ENDBRANCH  20  29
ENDBRANCH   1  20
TORSDOF 13
