REMARK  Name = ZINC35129380
REMARK  11 active torsions:
REMARK  status: ('A' for Active; 'I' for Inactive)
REMARK    1  A    between atoms: C_1  and  C_2
REMARK    2  A    between atoms: C_5  and  N_9
REMARK    3  A    between atoms: C_6  and  C_8
REMARK    4  A    between atoms: C_10  and  N_18
REMARK    5  A    between atoms: C_12  and  C_14
REMARK    6  A    between atoms: C_14  and  C_15
REMARK    7  A    between atoms: C_14  and  C_16
REMARK    8  A    between atoms: C_14  and  C_17
REMARK    9  A    between atoms: C_19  and  C_21
REMARK   10  A    between atoms: C_21  and  N_22
REMARK   11  A    between atoms: N_25  and  C_26
REMARK                            x       y       z     vdW  Elec       q    Type
REMARK                         _______ _______ _______ _____ _____    ______ ____
ROOT
ATOM      1  N   UNL     1      -0.195  -4.614  -2.367  0.00  0.00    -0.269 N 
ATOM      2  C   UNL     1      -0.401  -5.540  -3.324  0.00  0.00    +0.235 C 
ATOM      3  O   UNL     1      -0.426  -6.718  -3.034  0.00  0.00    -0.274 OA
ATOM      4  H   UNL     1      -0.175  -3.673  -2.599  0.00  0.00    +0.156 HD
ENDROOT
BRANCH   1   6
ATOM      5  N   UNL     1       0.104  -4.188   0.035  0.00  0.00    -0.218 N 
ATOM      6  C   UNL     1      -0.010  -5.010  -1.043  0.00  0.00    +0.129 A 
ATOM      7  C   UNL     1       0.089  -6.291  -0.591  0.00  0.00    +0.069 A 
ATOM      8  C   UNL     1       0.267  -6.244   0.794  0.00  0.00    +0.071 A 
ATOM      9  N   UNL     1       0.283  -4.990   1.169  0.00  0.00    -0.169 NA
BRANCH   5  14
ATOM     10  C   UNL     1      -0.084   1.484  -0.051  0.00  0.00    +0.044 C 
ATOM     11  C   UNL     1      -0.034  -0.022  -0.029  0.00  0.00    -0.050 A 
ATOM     12  C   UNL     1       0.790  -0.699  -0.909  0.00  0.00    +0.005 A 
ATOM     13  C   UNL     1       0.839  -2.079  -0.890  0.00  0.00    +0.028 A 
ATOM     14  C   UNL     1       0.058  -2.787   0.014  0.00  0.00    +0.070 A 
ATOM     15  C   UNL     1      -0.769  -2.105   0.896  0.00  0.00    -0.025 A 
ATOM     16  C   UNL     1      -0.809  -0.724   0.876  0.00  0.00    +0.008 A 
ATOM     17  C   UNL     1      -1.617  -2.870   1.879  0.00  0.00    +0.046 C 
ENDBRANCH   5  14
BRANCH   8  18
ATOM     18  C   UNL     1       0.422  -7.437   1.703  0.00  0.00    +0.006 C 
ATOM     19  C   UNL     1       1.824  -8.026   1.537  0.00  0.00    +0.017 C 
ATOM     20  C   UNL     1       0.221  -7.001   3.155  0.00  0.00    +0.017 C 
ATOM     21  C   UNL     1      -0.622  -8.494   1.338  0.00  0.00    +0.017 C 
ENDBRANCH   8  18
ENDBRANCH   1   6
BRANCH   2  22
ATOM     22  C   UNL     1      -0.601  -5.112  -4.756  0.00  0.00    +0.202 C 
BRANCH  22  23
ATOM     23  N   UNL     1      -0.803  -6.296  -5.595  0.00  0.00    -0.291 N 
ATOM     24  C   UNL     1      -1.004  -6.155  -6.921  0.00  0.00    +0.304 C 
ATOM     25  O   UNL     1      -1.016  -5.046  -7.419  0.00  0.00    -0.252 OA
ATOM     26  N   UNL     1      -1.190  -7.244  -7.693  0.00  0.00    -0.269 N 
ATOM     27  H   UNL     1      -0.794  -7.180  -5.197  0.00  0.00    +0.151 HD
ATOM     28  H   UNL     1      -1.118  -8.131  -7.307  0.00  0.00    +0.156 HD
BRANCH  26  29
ATOM     29  C   UNL     1      -1.490  -7.095  -9.052  0.00  0.00    +0.035 A 
ATOM     30  C   UNL     1      -2.354  -7.984  -9.676  0.00  0.00    +0.024 A 
ATOM     31  C   UNL     1      -2.647  -7.835 -11.017  0.00  0.00    +0.017 A 
ATOM     32  C   UNL     1      -2.081  -6.800 -11.739  0.00  0.00    +0.018 A 
ATOM     33  C   UNL     1      -1.219  -5.912 -11.120  0.00  0.00    +0.017 A 
ATOM     34  C   UNL     1      -0.927  -6.053  -9.778  0.00  0.00    +0.024 A 
ATOM     35 BR   UNL     1      -2.484  -6.598 -13.576  0.00  0.00    -0.050 Br
ENDBRANCH  26  29
ENDBRANCH  22  23
ENDBRANCH   2  22
TORSDOF 6
