REMARK  Name = ZINC36384564
REMARK  7 active torsions:
REMARK  status: ('A' for Active; 'I' for Inactive)
REMARK    1  A    between atoms: C_1  and  C_2
REMARK    2  A    between atoms: C_7  and  N_12
REMARK    3  A    between atoms: C_9  and  C_11
REMARK    4  A    between atoms: C_16  and  C_18
REMARK    5  A    between atoms: C_18  and  N_19
REMARK    6  A    between atoms: C_22  and  C_26
REMARK    7  A    between atoms: C_22  and  C_27
REMARK                            x       y       z     vdW  Elec       q    Type
REMARK                         _______ _______ _______ _____ _____    ______ ____
ROOT
ATOM      1  C   UNL     1      -3.813  -5.993   2.242  0.00  0.00    +0.214 C 
ENDROOT
BRANCH   1   2
ATOM      2  N   UNL     1      -3.832  -7.339   2.819  0.00  0.00    -0.215 N 
ATOM      3  C   UNL     1      -3.683  -8.472   2.103  0.00  0.00    +0.251 C 
ATOM      4  O   UNL     1      -3.515  -8.564   0.906  0.00  0.00    -0.272 OA
ATOM      5  C   UNL     1      -3.770  -9.605   3.107  0.00  0.00    +0.136 C 
ATOM      6  N   UNL     1      -3.977  -8.914   4.391  0.00  0.00    -0.281 N 
ATOM      7  C   UNL     1      -3.994  -7.596   4.122  0.00  0.00    +0.310 C 
ATOM      8  O   UNL     1      -4.143  -6.736   4.967  0.00  0.00    -0.252 OA
ATOM      9  C   UNL     1      -4.957 -10.516   2.788  0.00  0.00    +0.047 C 
ATOM     10  H   UNL     1      -4.078  -9.329   5.262  0.00  0.00    +0.152 HD
BRANCH   5  11
ATOM     11  C   UNL     1      -2.485 -10.392   3.128  0.00  0.00    +0.003 A 
ATOM     12  C   UNL     1      -1.756 -10.493   4.299  0.00  0.00    +0.009 A 
ATOM     13  C   UNL     1      -0.578 -11.215   4.320  0.00  0.00    +0.020 A 
ATOM     14  C   UNL     1      -0.128 -11.839   3.169  0.00  0.00    +0.042 A 
ATOM     15  C   UNL     1      -0.857 -11.739   1.998  0.00  0.00    +0.040 A 
ATOM     16  C   UNL     1      -2.039 -11.019   1.979  0.00  0.00    +0.048 A 
ATOM     17 CL   UNL     1      -2.958 -10.898   0.511  0.00  0.00    -0.083 Cl
ATOM     18 CL   UNL     1       1.352 -12.745   3.196  0.00  0.00    -0.083 Cl
ENDBRANCH   5  11
ENDBRANCH   1   2
BRANCH   1  23
ATOM     19  N   UNL     1      -0.612  -2.548   1.244  0.00  0.00    -0.296 N 
ATOM     20  C   UNL     1      -0.873  -3.776   1.733  0.00  0.00    +0.306 C 
ATOM     21  O   UNL     1       0.032  -4.463   2.165  0.00  0.00    -0.252 OA
ATOM     22  N   UNL     1      -2.137  -4.243   1.742  0.00  0.00    -0.239 N 
ATOM     23  C   UNL     1      -2.399  -5.471   2.232  0.00  0.00    +0.238 C 
ATOM     24  O   UNL     1      -1.497  -6.156   2.663  0.00  0.00    -0.274 OA
ATOM     25  H   UNL     1      -1.333  -2.000   0.898  0.00  0.00    +0.151 HD
ATOM     26  H   UNL     1      -2.859  -3.694   1.397  0.00  0.00    +0.159 HD
BRANCH  19  32
ATOM     27  C   UNL     1      -0.019   1.526   0.010  0.00  0.00    +0.008 C 
ATOM     28  C   UNL     1       0.002  -0.004   0.002  0.00  0.00    -0.009 C 
ATOM     29  C   UNL     1       0.718  -0.497  -1.257  0.00  0.00    +0.003 C 
ATOM     30  C   UNL     1       0.739  -2.027  -1.265  0.00  0.00    +0.002 C 
ATOM     31  C   UNL     1       1.479  -2.534  -0.026  0.00  0.00    +0.022 C 
ATOM     32  C   UNL     1       0.763  -2.041   1.233  0.00  0.00    +0.078 C 
ATOM     33  C   UNL     1       0.742  -0.511   1.242  0.00  0.00    +0.009 C 
ATOM     34  C   UNL     1       0.026  -0.018   2.500  0.00  0.00    +0.009 C 
ENDBRANCH  19  32
ENDBRANCH   1  23
TORSDOF 4
