REMARK  Name = ZINC39696178
REMARK  10 active torsions:
REMARK  status: ('A' for Active; 'I' for Inactive)
REMARK    1  A    between atoms: C_1  and  C_2
REMARK    2  A    between atoms: C_2  and  C_3
REMARK    3  A    between atoms: C_6  and  C_9
REMARK    4  A    between atoms: C_9  and  C_11
REMARK    5  A    between atoms: C_9  and  N_12
REMARK    6  A    between atoms: C_13  and  C_15
REMARK    7  A    between atoms: C_26  and  C_28
REMARK    8  A    between atoms: C_28  and  C_29
REMARK    9  A    between atoms: C_29  and  C_30
REMARK   10  A    between atoms: C_30  and  C_31
REMARK                            x       y       z     vdW  Elec       q    Type
REMARK                         _______ _______ _______ _____ _____    ______ ____
ROOT
ATOM      1  C   UNL     1       5.157  -4.806  -4.894  0.00  0.00    +0.100 C 
ATOM      2  C   UNL     1       6.528  -4.125  -4.686  0.00  0.00    +0.121 C 
ATOM      3  N   UNL     1       7.512  -5.092  -5.225  0.00  0.00    -0.300 N 
ATOM      4  C   UNL     1       6.863  -5.641  -6.439  0.00  0.00    +0.115 C 
ATOM      5  C   UNL     1       5.381  -5.800  -6.046  0.00  0.00    -0.004 C 
ATOM      6  C   UNL     1       4.482  -5.450  -7.228  0.00  0.00    -0.010 C 
ATOM      7  C   UNL     1       4.680  -6.486  -8.339  0.00  0.00    -0.082 C 
ATOM      8  N   UNL     1       4.352  -7.822  -7.828  0.00  0.00    +0.379 N 
ATOM      9  C   UNL     1       5.281  -8.189  -6.753  0.00  0.00    -0.082 C 
ATOM     10  C   UNL     1       5.109  -7.225  -5.575  0.00  0.00    -0.010 C 
ATOM     11  C   UNL     1       8.724  -5.403  -4.724  0.00  0.00    +0.216 C 
ATOM     12  O   UNL     1       9.421  -6.222  -5.285  0.00  0.00    -0.276 OA
ATOM     13  H   UNL     1       3.409  -7.822  -7.470  0.00  0.00    -0.086 HD
ATOM     14  H   UNL     1       4.424  -8.494  -8.577  0.00  0.00    -0.086 HD
ENDROOT
BRANCH   1  16
ATOM     15  N   UNL     1       2.822  -3.991  -4.960  0.00  0.00    -0.308 N 
ATOM     16  C   UNL     1       4.116  -3.785  -5.277  0.00  0.00    +0.219 C 
ATOM     17  O   UNL     1       4.443  -2.779  -5.869  0.00  0.00    -0.275 OA
ATOM     18  H   UNL     1       2.561  -4.796  -4.486  0.00  0.00    +0.149 HD
BRANCH  15  19
ATOM     19  C   UNL     1       1.811  -2.999  -5.332  0.00  0.00    +0.100 C 
ATOM     20  C   UNL     1       1.747  -1.909  -4.260  0.00  0.00    +0.033 C 
BRANCH  19  24
ATOM     21  C   UNL     1      -1.999  -4.904  -5.655  0.00  0.00    -0.048 A 
ATOM     22  C   UNL     1      -1.632  -3.933  -6.569  0.00  0.00    +0.004 A 
ATOM     23  C   UNL     1      -0.399  -3.317  -6.464  0.00  0.00    +0.006 A 
ATOM     24  C   UNL     1       0.466  -3.670  -5.445  0.00  0.00    -0.027 A 
ATOM     25  C   UNL     1       0.098  -4.639  -4.531  0.00  0.00    +0.006 A 
ATOM     26  C   UNL     1      -1.136  -5.253  -4.633  0.00  0.00    +0.004 A 
BRANCH  21  28
ATOM     27  C   UNL     1      -4.379  -4.784  -4.969  0.00  0.00    +0.009 C 
ATOM     28  C   UNL     1      -3.343  -5.576  -5.769  0.00  0.00    +0.032 C 
ENDBRANCH  21  28
ENDBRANCH  19  24
ENDBRANCH  15  19
ENDBRANCH   1  16
BRANCH  11  29
ATOM     29  C   UNL     1       9.215  -4.732  -3.467  0.00  0.00    +0.096 C 
BRANCH  29  30
ATOM     30  C   UNL     1      10.608  -5.260  -3.117  0.00  0.00    +0.014 C 
BRANCH  30  31
ATOM     31  C   UNL     1      11.105  -4.579  -1.841  0.00  0.00    +0.035 C 
BRANCH  31  32
ATOM     32  C   UNL     1      12.477  -5.099  -1.496  0.00  0.00    -0.047 A 
ATOM     33  C   UNL     1      12.612  -6.211  -0.686  0.00  0.00    +0.003 A 
ATOM     34  C   UNL     1      13.870  -6.688  -0.370  0.00  0.00    +0.000 A 
ATOM     35  C   UNL     1      14.994  -6.053  -0.865  0.00  0.00    +0.000 A 
ATOM     36  C   UNL     1      14.860  -4.942  -1.676  0.00  0.00    +0.000 A 
ATOM     37  C   UNL     1      13.601  -4.467  -1.995  0.00  0.00    +0.003 A 
ENDBRANCH  31  32
ENDBRANCH  30  31
ENDBRANCH  29  30
ENDBRANCH  11  29
TORSDOF 8
