REMARK  Name = ZINC21740512
REMARK  15 active torsions:
REMARK  status: ('A' for Active; 'I' for Inactive)
REMARK    1  A    between atoms: C_1  and  C_2
REMARK    2  A    between atoms: C_2  and  C_3
REMARK    3  A    between atoms: C_6  and  O_9
REMARK    4  A    between atoms: O_9  and  C_10
REMARK    5  A    between atoms: C_10  and  C_11
REMARK    6  A    between atoms: C_14  and  S_20
REMARK    7  A    between atoms: N_15  and  C_16
REMARK    8  A    between atoms: C_16  and  C_17
REMARK    9  A    between atoms: C_17  and  C_18
REMARK   10  A    between atoms: C_17  and  C_19
REMARK   11  A    between atoms: S_20  and  C_21
REMARK   12  A    between atoms: C_21  and  C_22
REMARK   13  A    between atoms: C_22  and  C_24
REMARK   14  A    between atoms: C_25  and  N_36
REMARK   15  A    between atoms: N_26  and  C_33
REMARK                            x       y       z     vdW  Elec       q    Type
REMARK                         _______ _______ _______ _____ _____    ______ ____
ROOT
ATOM      1  C   UNL     1       2.867  -0.841  -0.602  0.00  0.00    +0.172 A 
ATOM      2  N   UNL     1       2.693  -2.068  -0.200  0.00  0.00    -0.130 NA
ATOM      3  N   UNL     1       2.253  -2.078   1.008  0.00  0.00    -0.122 NA
ATOM      4  C   UNL     1       2.127  -0.847   1.447  0.00  0.00    +0.192 A 
ATOM      5  N   UNL     1       2.518  -0.019   0.434  0.00  0.00    -0.303 N 
ENDROOT
BRANCH   1   6
ATOM      6  C   UNL     1       3.364  -0.407  -1.957  0.00  0.00    +0.305 C 
BRANCH   6   7
ATOM      7  O   UNL     1       4.789  -0.305  -1.932  0.00  0.00    -0.484 OA
BRANCH   7  11
ATOM      8  C   UNL     1       6.645   0.858  -5.428  0.00  0.00    -0.047 A 
ATOM      9  C   UNL     1       7.401   0.588  -4.302  0.00  0.00    +0.007 A 
ATOM     10  C   UNL     1       6.782   0.199  -3.130  0.00  0.00    +0.046 A 
ATOM     11  C   UNL     1       5.400   0.078  -3.084  0.00  0.00    +0.121 A 
ATOM     12  C   UNL     1       4.645   0.344  -4.216  0.00  0.00    +0.046 A 
ATOM     13  C   UNL     1       5.268   0.739  -5.384  0.00  0.00    +0.007 A 
BRANCH   8  15
ATOM     14  C   UNL     1       7.660   0.045  -7.540  0.00  0.00    +0.009 C 
ATOM     15  C   UNL     1       7.323   1.282  -6.705  0.00  0.00    +0.032 C 
ENDBRANCH   8  15
ENDBRANCH   7  11
ENDBRANCH   6   7
ENDBRANCH   1   6
BRANCH   5  16
ATOM     16  C   UNL     1       2.552   1.446   0.451  0.00  0.00    +0.128 C 
BRANCH  16  17
ATOM     17  C   UNL     1       3.919   1.919   0.950  0.00  0.00    +0.003 C 
ATOM     18  C   UNL     1       4.999   1.501  -0.050  0.00  0.00    +0.009 C 
ATOM     19  C   UNL     1       3.912   3.443   1.087  0.00  0.00    +0.009 C 
ENDBRANCH  16  17
ENDBRANCH   5  16
BRANCH   4  20
ATOM     20  S   UNL     1       1.562  -0.356   3.042  0.00  0.00    -0.078 S 
BRANCH  20  21
ATOM     21  C   UNL     1       1.249  -1.980   3.778  0.00  0.00    +0.157 C 
BRANCH  21  22
ATOM     22  C   UNL     1       0.743  -1.803   5.186  0.00  0.00    +0.182 C 
ATOM     23  O   UNL     1       0.606  -0.688   5.648  0.00  0.00    -0.291 OA
BRANCH  22  24
ATOM     24  C   UNL     1       0.426  -2.934   5.969  0.00  0.00    +0.120 A 
ATOM     25  C   UNL     1       0.088  -2.805   7.327  0.00  0.00    +0.116 A 
ATOM     26  N   UNL     1      -0.216  -3.928   8.042  0.00  0.00    -0.278 N 
ATOM     27  C   UNL     1      -0.185  -5.145   7.476  0.00  0.00    +0.331 A 
ATOM     28  O   UNL     1      -0.459  -6.114   8.157  0.00  0.00    -0.246 OA
ATOM     29  N   UNL     1       0.136  -5.331   6.186  0.00  0.00    -0.274 N 
ATOM     30  H   UNL     1       0.149  -6.346   5.763  0.00  0.00    +0.173 HD
ATOM     31  C   UNL     1       0.447  -4.285   5.393  0.00  0.00    +0.266 A 
ATOM     32  O   UNL     1       0.738  -4.457   4.223  0.00  0.00    -0.267 OA
BRANCH  26  33
ATOM     33  C   UNL     1      -0.576  -3.803   9.457  0.00  0.00    +0.094 C 
ATOM     34  C   UNL     1      -1.816  -4.559   9.940  0.00  0.00    +0.027 C 
ATOM     35  C   UNL     1      -1.856  -3.035   9.795  0.00  0.00    +0.027 C 
ENDBRANCH  26  33
BRANCH  25  36
ATOM     36  N   UNL     1       0.057  -1.580   7.918  0.00  0.00    -0.344 N 
ATOM     37  H   UNL     1      -0.209  -1.489   8.982  0.00  0.00    +0.144 HD
ATOM     38  H   UNL     1       0.299  -0.680   7.333  0.00  0.00    +0.144 HD
ENDBRANCH  25  36
ENDBRANCH  22  24
ENDBRANCH  21  22
ENDBRANCH  20  21
ENDBRANCH   4  20
TORSDOF 12
