REMARK  Name = ZINC08969853
REMARK  6 active torsions:
REMARK  status: ('A' for Active; 'I' for Inactive)
REMARK    1  A    between atoms: C_1  and  O_2
REMARK    2  A    between atoms: O_2  and  C_3
REMARK    3  A    between atoms: C_6  and  N_9
REMARK    4  A    between atoms: C_10  and  C_12
REMARK    5  A    between atoms: C_13  and  N_29
REMARK    6  A    between atoms: C_30  and  C_32
REMARK                            x       y       z     vdW  Elec       q    Type
REMARK                         _______ _______ _______ _____ _____    ______ ____
ROOT
ATOM      1  C   UNL     1      -4.938   3.636   0.091  0.00  0.00    +0.046 C 
ATOM      2  C   UNL     1      -6.046   2.856   0.143  0.00  0.00    +0.076 C 
ATOM      3  S   UNL     1      -7.431   3.968   0.224  0.00  0.00    -0.106 S 
ATOM      4  C   UNL     1      -6.543   5.573   0.217  0.00  0.00    +0.060 C 
ATOM      5  C   UNL     1      -5.089   5.119   0.050  0.00  0.00    +0.040 C 
ATOM      6  C   UNL     1      -4.457   5.653  -1.226  0.00  0.00    +0.009 C 
ATOM      7  C   UNL     1      -3.164   6.399  -0.881  0.00  0.00    +0.001 C 
ATOM      8  C   UNL     1      -2.807   7.366  -2.009  0.00  0.00    +0.000 C 
ATOM      9  C   UNL     1      -3.019   8.807  -1.541  0.00  0.00    +0.000 C 
ATOM     10  C   UNL     1      -3.982   9.521  -2.492  0.00  0.00    +0.000 C 
ATOM     11  C   UNL     1      -5.168  10.088  -1.705  0.00  0.00    +0.000 C 
ATOM     12  C   UNL     1      -6.464   9.753  -2.439  0.00  0.00    +0.000 C 
ATOM     13  C   UNL     1      -7.355   8.849  -1.595  0.00  0.00    +0.000 C 
ATOM     14  C   UNL     1      -6.528   7.900  -0.727  0.00  0.00    +0.001 C 
ATOM     15  C   UNL     1      -7.066   6.475  -0.897  0.00  0.00    +0.015 C 
ENDROOT
BRANCH   1  17
ATOM     16  N   UNL     1      -3.187   2.526  -1.083  0.00  0.00    -0.282 N 
ATOM     17  C   UNL     1      -3.666   3.045   0.065  0.00  0.00    +0.247 C 
ATOM     18  O   UNL     1      -2.993   3.001   1.081  0.00  0.00    -0.270 OA
ATOM     19  H   UNL     1      -3.689   2.626  -1.907  0.00  0.00    +0.155 HD
BRANCH  16  23
ATOM     20  C   UNL     1       0.450   0.487  -1.093  0.00  0.00    +0.120 A 
ATOM     21  C   UNL     1       0.309   1.650  -0.350  0.00  0.00    +0.047 A 
ATOM     22  C   UNL     1      -0.897   2.323  -0.342  0.00  0.00    +0.027 A 
ATOM     23  C   UNL     1      -1.966   1.841  -1.086  0.00  0.00    +0.034 A 
ATOM     24  C   UNL     1      -1.825   0.676  -1.828  0.00  0.00    +0.027 A 
ATOM     25  C   UNL     1      -0.620   0.001  -1.831  0.00  0.00    +0.047 A 
BRANCH  20  27
ATOM     26  C   UNL     1       1.710  -1.369  -1.883  0.00  0.00    +0.277 C 
ATOM     27  O   UNL     1       1.636  -0.178  -1.096  0.00  0.00    -0.495 OA
ENDBRANCH  20  27
ENDBRANCH  16  23
ENDBRANCH   1  17
BRANCH   2  28
ATOM     28  N   UNL     1      -6.090   1.477   0.132  0.00  0.00    -0.276 N 
ATOM     29  C   UNL     1      -7.276   0.840   0.189  0.00  0.00    +0.250 C 
ATOM     30  O   UNL     1      -8.307   1.480   0.251  0.00  0.00    -0.270 OA
ATOM     31  H   UNL     1      -5.266   0.966   0.082  0.00  0.00    +0.156 HD
BRANCH  29  32
ATOM     32  C   UNL     1      -7.322  -0.637   0.176  0.00  0.00    +0.055 A 
ATOM     33  C   UNL     1      -6.139  -1.375   0.105  0.00  0.00    +0.014 A 
ATOM     34  C   UNL     1      -6.189  -2.753   0.095  0.00  0.00    +0.001 A 
ATOM     35  C   UNL     1      -7.409  -3.406   0.155  0.00  0.00    +0.001 A 
ATOM     36  C   UNL     1      -8.585  -2.682   0.226  0.00  0.00    +0.021 A 
ATOM     37  C   UNL     1      -8.550  -1.301   0.242  0.00  0.00    +0.053 A 
ATOM     38 CL   UNL     1     -10.026  -0.394   0.337  0.00  0.00    -0.083 Cl
ENDBRANCH  29  32
ENDBRANCH   2  28
TORSDOF 5
