REMARK  Name = ZINC06193736
REMARK  10 active torsions:
REMARK  status: ('A' for Active; 'I' for Inactive)
REMARK    1  A    between atoms: C_1  and  C_2
REMARK    2  A    between atoms: C_4  and  C_41
REMARK    3  A    between atoms: C_7  and  C_14
REMARK    4  A    between atoms: C_14  and  C_16
REMARK    5  A    between atoms: C_14  and  N_75
REMARK    6  A    between atoms: N_20  and  C_21
REMARK    7  A    between atoms: C_27  and  C_28
REMARK    8  A    between atoms: C_27  and  N_75
REMARK    9  A    between atoms: C_34  and  C_35
REMARK   10  A    between atoms: C_34  and  N_75
REMARK                            x       y       z     vdW  Elec       q    Type
REMARK                         _______ _______ _______ _____ _____    ______ ____
ROOT
ATOM      1  C   UNL     1       4.804   4.078  -1.353  0.00  0.00    +0.040 C 
ENDROOT
BRANCH   1   8
ATOM      2  C   UNL     1      -0.254  -1.643  -3.657  0.00  0.00    +0.044 C 
ATOM      3  C   UNL     1       0.871  -0.713  -3.279  0.00  0.00    -0.048 A 
ATOM      4  C   UNL     1       2.186  -1.131  -3.425  0.00  0.00    +0.007 A 
ATOM      5  C   UNL     1       3.220  -0.304  -3.088  0.00  0.00    -0.041 A 
ATOM      6  C   UNL     1       2.951   0.976  -2.592  0.00  0.00    +0.002 A 
ATOM      7  C   UNL     1       4.034   1.888  -2.222  0.00  0.00    +0.018 A 
ATOM      8  C   UNL     1       3.713   3.116  -1.745  0.00  0.00    +0.011 A 
ATOM      9  C   UNL     1       2.360   3.496  -1.615  0.00  0.00    +0.251 A 
ATOM     10  O   UNL     1       2.093   4.605  -1.185  0.00  0.00    -0.268 OA
ATOM     11  N   UNL     1       1.358   2.665  -1.952  0.00  0.00    -0.322 N 
ATOM     12  H   UNL     1       0.439   2.958  -1.850  0.00  0.00    +0.169 HD
ATOM     13  C   UNL     1       1.618   1.403  -2.442  0.00  0.00    +0.050 A 
ATOM     14  C   UNL     1       0.582   0.543  -2.792  0.00  0.00    +0.029 A 
ATOM     15  C   UNL     1       4.644  -0.768  -3.251  0.00  0.00    +0.044 C 
ENDBRANCH   1   8
BRANCH   1  16
ATOM     16  C   UNL     1       4.686   4.402   0.114  0.00  0.00    +0.143 A 
ATOM     17  N   UNL     1       3.744   5.112   0.685  0.00  0.00    -0.115 NA
ATOM     18  N   UNL     1       3.993   5.160   1.948  0.00  0.00    -0.023 NA
ATOM     19  N   UNL     1       5.074   4.506   2.196  0.00  0.00    -0.044 NA
ATOM     20  N   UNL     1       5.531   4.024   1.091  0.00  0.00    -0.227 N 
BRANCH  20  21
ATOM     21  C   UNL     1       6.742   3.216   0.929  0.00  0.00    +0.111 C 
ATOM     22  C   UNL     1       6.726   2.065   1.937  0.00  0.00    +0.027 C 
ATOM     23  C   UNL     1       7.992   1.221   1.768  0.00  0.00    +0.002 C 
ATOM     24  C   UNL     1       9.224   2.095   2.011  0.00  0.00    +0.000 C 
ATOM     25  C   UNL     1       9.240   3.246   1.003  0.00  0.00    +0.002 C 
ATOM     26  C   UNL     1       7.975   4.090   1.172  0.00  0.00    +0.027 C 
ENDBRANCH  20  21
ENDBRANCH   1  16
BRANCH   1  27
ATOM     27  N   UNL     1       4.647   5.323  -2.135  0.00  0.00    +0.395 N 
ATOM     28  H   UNL     1       3.704   5.698  -1.979  0.00  0.00    -0.079 HD
BRANCH  27  29
ATOM     29  C   UNL     1       5.641   6.325  -1.694  0.00  0.00    -0.041 C 
BRANCH  29  30
ATOM     30  C   UNL     1       5.086   7.059  -0.501  0.00  0.00    -0.064 A 
ATOM     31  C   UNL     1       3.979   7.874  -0.644  0.00  0.00    +0.002 A 
ATOM     32  C   UNL     1       3.467   8.544   0.452  0.00  0.00    +0.000 A 
ATOM     33  C   UNL     1       4.069   8.406   1.689  0.00  0.00    +0.000 A 
ATOM     34  C   UNL     1       5.179   7.595   1.831  0.00  0.00    +0.000 A 
ATOM     35  C   UNL     1       5.688   6.922   0.736  0.00  0.00    +0.002 A 
ENDBRANCH  29  30
ENDBRANCH  27  29
BRANCH  27  36
ATOM     36  C   UNL     1       4.820   5.040  -3.575  0.00  0.00    -0.040 C 
BRANCH  36  37
ATOM     37  C   UNL     1       3.457   4.880  -4.197  0.00  0.00    -0.046 A 
ATOM     38  C   UNL     1       2.923   3.616  -4.403  0.00  0.00    +0.005 A 
ATOM     39  C   UNL     1       1.664   3.516  -4.974  0.00  0.00    +0.020 A 
ATOM     40  C   UNL     1       0.991   4.671  -5.326  0.00  0.00    +0.111 A 
ATOM     41  N   UNL     1       1.531   5.856  -5.121  0.00  0.00    -0.263 NA
ATOM     42  C   UNL     1       2.725   5.989  -4.576  0.00  0.00    +0.112 A 
ENDBRANCH  36  37
ENDBRANCH  27  36
ENDBRANCH   1  27
TORSDOF 8
