REMARK  Name = ZINC43553747
REMARK  13 active torsions:
REMARK  status: ('A' for Active; 'I' for Inactive)
REMARK    1  A    between atoms: C_1  and  C_2
REMARK    2  A    between atoms: C_2  and  N_3
REMARK    3  A    between atoms: C_4  and  O_6
REMARK    4  A    between atoms: O_6  and  C_7
REMARK    5  A    between atoms: C_11  and  C_37
REMARK    6  A    between atoms: C_14  and  C_15
REMARK    7  A    between atoms: C_14  and  C_16
REMARK    8  A    between atoms: C_16  and  O_17
REMARK    9  A    between atoms: C_20  and  O_36
REMARK   10  A    between atoms: C_22  and  C_24
REMARK   11  A    between atoms: C_24  and  C_25
REMARK   12  A    between atoms: N_27  and  C_28
REMARK   13  A    between atoms: C_28  and  C_29
REMARK                            x       y       z     vdW  Elec       q    Type
REMARK                         _______ _______ _______ _____ _____    ______ ____
ROOT
ATOM      1  C   UNL     1       2.289  -3.700  -1.919  0.00  0.00    +0.186 C 
ATOM      2  C   UNL     1       3.688  -4.223  -1.617  0.00  0.00    +0.046 C 
ATOM      3  C   UNL     1       4.697  -3.575  -2.568  0.00  0.00    +0.011 C 
ATOM      4  C   UNL     1       4.364  -3.969  -4.008  0.00  0.00    -0.023 C 
ATOM      5  C   UNL     1       2.949  -3.541  -4.357  0.00  0.00    +0.007 C 
ATOM      6  C   UNL     1       1.878  -3.957  -3.368  0.00  0.00    +0.031 C 
ATOM      7  C   UNL     1       1.453  -5.415  -3.537  0.00  0.00    +0.017 C 
ATOM      8  C   UNL     1       2.608  -3.969  -5.785  0.00  0.00    +0.007 C 
ATOM      9  C   UNL     1       3.569  -3.256  -6.745  0.00  0.00    +0.032 C 
ATOM     10  C   UNL     1       5.012  -3.629  -6.421  0.00  0.00    +0.119 C 
ATOM     11  C   UNL     1       5.361  -3.312  -4.969  0.00  0.00    +0.032 C 
ATOM     12  C   UNL     1       4.549  -5.488  -4.143  0.00  0.00    +0.012 C 
ENDROOT
BRANCH  10  13
ATOM     13  O   UNL     1       5.888  -2.886  -7.281  0.00  0.00    -0.391 OA
ATOM     14  H   UNL     1       5.750  -3.054  -8.223  0.00  0.00    +0.210 HD
ENDBRANCH  10  13
BRANCH   1  15
ATOM     15  O   UNL     1       2.236  -2.293  -1.656  0.00  0.00    -0.446 OA
BRANCH  15  17
ATOM     16  N   UNL     1       1.846  -0.609  -0.089  0.00  0.00    -0.281 N 
ATOM     17  C   UNL     1       1.913  -1.918  -0.404  0.00  0.00    +0.401 C 
ATOM     18  O   UNL     1       1.683  -2.759   0.442  0.00  0.00    -0.226 OA
ATOM     19  H   UNL     1       2.030   0.062  -0.765  0.00  0.00    +0.152 HD
BRANCH  16  21
ATOM     20  C   UNL     1       1.489   1.327   1.361  0.00  0.00    +0.024 C 
ATOM     21  C   UNL     1       1.495  -0.200   1.273  0.00  0.00    +0.104 C 
ENDBRANCH  16  21
ENDBRANCH  15  17
ENDBRANCH   1  15
BRANCH   6  22
ATOM     22  C   UNL     1       0.624  -3.086  -3.629  0.00  0.00    +0.166 C 
BRANCH  22  23
ATOM     23  O   UNL     1      -0.417  -3.467  -2.727  0.00  0.00    -0.394 OA
ATOM     24  H   UNL     1      -1.234  -2.962  -2.834  0.00  0.00    +0.209 HD
ENDBRANCH  22  23
ENDBRANCH   6  22
BRANCH  11  25
ATOM     25  C   UNL     1       5.429  -1.801  -4.767  0.00  0.00    +0.102 C 
BRANCH  25  26
ATOM     26  C   UNL     1       6.650  -1.256  -5.461  0.00  0.00    +0.214 C 
ATOM     27  O   UNL     1       7.474  -2.015  -5.924  0.00  0.00    -0.276 OA
ATOM     28  N   UNL     1       6.826   0.076  -5.567  0.00  0.00    -0.311 N 
ATOM     29  H   UNL     1       6.167   0.684  -5.197  0.00  0.00    +0.149 HD
BRANCH  28  30
ATOM     30  C   UNL     1       8.014   0.607  -6.242  0.00  0.00    +0.139 C 
BRANCH  30  31
ATOM     31  C   UNL     1       7.971   2.113  -6.225  0.00  0.00    -0.030 A 
ATOM     32  C   UNL     1       7.356   2.798  -7.256  0.00  0.00    +0.008 A 
ATOM     33  C   UNL     1       7.315   4.180  -7.241  0.00  0.00    +0.038 A 
ATOM     34  C   UNL     1       7.891   4.877  -6.193  0.00  0.00    +0.123 A 
ATOM     35  C   UNL     1       8.506   4.190  -5.160  0.00  0.00    +0.038 A 
ATOM     36  C   UNL     1       8.541   2.808  -5.175  0.00  0.00    +0.008 A 
ATOM     37  F   UNL     1       7.852   6.228  -6.177  0.00  0.00    -0.205 F 
ENDBRANCH  30  31
ENDBRANCH  28  30
ENDBRANCH  25  26
ENDBRANCH  11  25
TORSDOF 10
