REMARK  Name = ZINC03170927
REMARK  5 active torsions:
REMARK  status: ('A' for Active; 'I' for Inactive)
REMARK    1  A    between atoms: C_1  and  C_2
REMARK    2  A    between atoms: C_2  and  O_3
REMARK    3  A    between atoms: O_3  and  C_4
REMARK    4  A    between atoms: C_4  and  C_6
REMARK    5  A    between atoms: C_8  and  C_23
REMARK                            x       y       z     vdW  Elec       q    Type
REMARK                         _______ _______ _______ _____ _____    ______ ____
ROOT
ATOM      1  C   UNL     1      -1.273  -0.826   0.016  0.00  0.00    +0.153 C 
ATOM      2  C   UNL     1      -1.231  -1.765  -1.198  0.00  0.00    +0.077 C 
ATOM      3  C   UNL     1       0.119  -2.420  -1.312  0.00  0.00    +0.063 A 
ATOM      4  C   UNL     1       1.241  -1.891  -0.751  0.00  0.00    +0.111 A 
ATOM      5  N   UNL     1       2.450  -2.526  -0.921  0.00  0.00    -0.323 N 
ATOM      6  H   UNL     1       3.253  -2.145  -0.532  0.00  0.00    +0.169 HD
ATOM      7  C   UNL     1       2.526  -3.672  -1.621  0.00  0.00    +0.159 A 
ATOM      8  S   UNL     1       4.042  -4.445  -1.815  0.00  0.00    -0.013 S 
ATOM      9  N   UNL     1       1.427  -4.219  -2.170  0.00  0.00    -0.302 N 
ATOM     10  H   UNL     1       1.499  -5.049  -2.666  0.00  0.00    +0.171 HD
ATOM     11  C   UNL     1       0.227  -3.623  -2.038  0.00  0.00    +0.258 A 
ATOM     12  O   UNL     1      -0.763  -4.122  -2.545  0.00  0.00    -0.267 OA
ATOM     13  N   UNL     1       1.200  -0.730  -0.013  0.00  0.00    -0.304 N 
ATOM     14  C   UNL     1       0.002  -0.004   0.002  0.00  0.00    +0.017 C 
ATOM     15  C   UNL     1      -0.016   1.315   0.009  0.00  0.00    +0.029 C 
ATOM     16  H   UNL     1       1.976  -0.424   0.481  0.00  0.00    +0.153 HD
ENDROOT
BRANCH   2  17
ATOM     17  C   UNL     1      -1.507  -0.975  -2.451  0.00  0.00    -0.038 A 
ATOM     18  C   UNL     1      -0.665   0.059  -2.816  0.00  0.00    +0.005 A 
ATOM     19  C   UNL     1      -0.916   0.780  -3.968  0.00  0.00    +0.015 A 
ATOM     20  C   UNL     1      -2.015   0.475  -4.750  0.00  0.00    +0.018 A 
ATOM     21  C   UNL     1      -2.861  -0.556  -4.381  0.00  0.00    +0.015 A 
ATOM     22  C   UNL     1      -2.606  -1.280  -3.232  0.00  0.00    +0.005 A 
ATOM     23 BR   UNL     1      -2.362   1.466  -6.322  0.00  0.00    -0.050 Br
ENDBRANCH   2  17
BRANCH   1  24
ATOM     24  C   UNL     1      -1.347  -1.632   1.288  0.00  0.00    +0.317 C 
ATOM     25  O   UNL     1      -1.400  -2.838   1.236  0.00  0.00    -0.250 OA
BRANCH  24  26
ATOM     26  O   UNL     1      -1.355  -1.010   2.477  0.00  0.00    -0.464 OA
BRANCH  26  28
ATOM     27  C   UNL     1      -1.425  -0.969   4.911  0.00  0.00    +0.048 C 
ATOM     28  C   UNL     1      -1.428  -1.849   3.659  0.00  0.00    +0.229 C 
ENDBRANCH  26  28
ENDBRANCH  24  26
ENDBRANCH   1  24
TORSDOF 4
