REMARK  Name = ZINC35993470
REMARK  10 active torsions:
REMARK  status: ('A' for Active; 'I' for Inactive)
REMARK    1  A    between atoms: C_1  and  C_2
REMARK    2  A    between atoms: C_2  and  O_3
REMARK    3  A    between atoms: O_3  and  C_4
REMARK    4  A    between atoms: C_4  and  C_6
REMARK    5  A    between atoms: C_7  and  C_22
REMARK    6  A    between atoms: N_8  and  C_21
REMARK    7  A    between atoms: C_12  and  C_14
REMARK    8  A    between atoms: C_19  and  C_20
REMARK    9  A    between atoms: C_22  and  N_23
REMARK   10  A    between atoms: N_32  and  C_33
REMARK                            x       y       z     vdW  Elec       q    Type
REMARK                         _______ _______ _______ _____ _____    ______ ____
ROOT
ATOM      1  C   UNL     1       0.538  -2.626  -1.966  0.00  0.00    +0.076 C 
ATOM      2  C   UNL     1       0.672  -3.966  -1.865  0.00  0.00    +0.010 C 
ATOM      3  N   UNL     1       1.852  -4.582  -2.172  0.00  0.00    -0.264 N 
ATOM      4  C   UNL     1       2.945  -3.928  -2.585  0.00  0.00    +0.307 C 
ATOM      5  O   UNL     1       3.951  -4.563  -2.835  0.00  0.00    -0.252 OA
ATOM      6  N   UNL     1       2.966  -2.589  -2.734  0.00  0.00    -0.288 N 
ATOM      7  C   UNL     1       1.740  -1.831  -2.435  0.00  0.00    +0.144 C 
ATOM      8  C   UNL     1       1.927  -6.039  -2.040  0.00  0.00    +0.139 C 
ATOM      9  H   UNL     1       3.769  -2.135  -3.035  0.00  0.00    +0.151 HD
ENDROOT
BRANCH   7  10
ATOM     10  C   UNL     1       1.340  -1.075  -3.676  0.00  0.00    -0.020 A 
ATOM     11  C   UNL     1       1.539  -1.639  -4.923  0.00  0.00    +0.006 A 
ATOM     12  C   UNL     1       1.173  -0.946  -6.061  0.00  0.00    +0.000 A 
ATOM     13  C   UNL     1       0.607   0.311  -5.954  0.00  0.00    +0.000 A 
ATOM     14  C   UNL     1       0.407   0.874  -4.707  0.00  0.00    +0.004 A 
ATOM     15  C   UNL     1       0.770   0.179  -3.568  0.00  0.00    -0.045 A 
ATOM     16  C   UNL     1       0.547   0.791  -2.209  0.00  0.00    +0.044 C 
ENDBRANCH   7  10
BRANCH   1  17
ATOM     17  C   UNL     1      -0.683  -1.988  -1.649  0.00  0.00    +0.339 C 
ATOM     18  O   UNL     1      -1.429  -1.625  -2.540  0.00  0.00    -0.245 OA
BRANCH  17  19
ATOM     19  O   UNL     1      -1.022  -1.780  -0.359  0.00  0.00    -0.462 OA
BRANCH  19  21
ATOM     20  C   UNL     1      -2.476  -0.961   1.388  0.00  0.00    +0.048 C 
ATOM     21  C   UNL     1      -2.318  -1.233  -0.109  0.00  0.00    +0.229 C 
ENDBRANCH  19  21
ENDBRANCH  17  19
ENDBRANCH   1  17
BRANCH   2  22
ATOM     22  C   UNL     1      -0.499  -4.796  -1.407  0.00  0.00    -0.026 C 
BRANCH  22  23
ATOM     23  N   UNL     1      -1.400  -5.040  -2.542  0.00  0.00    +0.384 N 
ATOM     24  C   UNL     1      -2.613  -5.681  -2.038  0.00  0.00    -0.077 C 
ATOM     25  C   UNL     1      -3.780  -5.308  -2.925  0.00  0.00    +0.000 C 
ATOM     26  C   UNL     1      -3.964  -6.386  -4.009  0.00  0.00    +0.107 C 
ATOM     27  N   UNL     1      -2.660  -6.853  -4.521  0.00  0.00    -0.287 N 
ATOM     28  C   UNL     1      -1.562  -5.946  -4.788  0.00  0.00    +0.091 C 
ATOM     29  C   UNL     1      -0.697  -5.780  -3.518  0.00  0.00    -0.059 C 
ATOM     30  C   UNL     1      -2.484  -8.170  -4.746  0.00  0.00    +0.306 C 
ATOM     31  O   UNL     1      -3.414  -8.941  -4.605  0.00  0.00    -0.252 OA
ATOM     32  N   UNL     1      -1.277  -8.633  -5.127  0.00  0.00    -0.269 N 
ATOM     33  H   UNL     1      -0.523  -8.027  -5.194  0.00  0.00    +0.156 HD
ATOM     34  H   UNL     1      -1.656  -4.149  -2.940  0.00  0.00    -0.081 HD
BRANCH  32  35
ATOM     35  C   UNL     1      -1.111  -9.990  -5.428  0.00  0.00    +0.035 A 
ATOM     36  C   UNL     1      -1.958 -10.936  -4.865  0.00  0.00    +0.023 A 
ATOM     37  C   UNL     1      -1.792 -12.274  -5.163  0.00  0.00    +0.002 A 
ATOM     38  C   UNL     1      -0.784 -12.673  -6.022  0.00  0.00    +0.000 A 
ATOM     39  C   UNL     1       0.061 -11.733  -6.584  0.00  0.00    +0.002 A 
ATOM     40  C   UNL     1      -0.103 -10.393  -6.294  0.00  0.00    +0.023 A 
ENDBRANCH  32  35
ENDBRANCH  22  23
ENDBRANCH   2  22
TORSDOF 7
