REMARK  Name = ZINC08591620
REMARK  10 active torsions:
REMARK  status: ('A' for Active; 'I' for Inactive)
REMARK    1  A    between atoms: C_1  and  C_2
REMARK    2  A    between atoms: C_2  and  C_3
REMARK    3  A    between atoms: C_7  and  C_37
REMARK    4  A    between atoms: C_8  and  N_9
REMARK    5  A    between atoms: C_10  and  C_12
REMARK    6  A    between atoms: C_12  and  N_13
REMARK    7  A    between atoms: C_17  and  C_36
REMARK    8  A    between atoms: N_21  and  C_35
REMARK    9  A    between atoms: N_25  and  C_28
REMARK   10  A    between atoms: C_32  and  C_34
REMARK                            x       y       z     vdW  Elec       q    Type
REMARK                         _______ _______ _______ _____ _____    ______ ____
ROOT
ATOM      1  N   UNL     1       6.255  -1.069   0.583  0.00  0.00    -0.282 N 
ATOM      2  C   UNL     1       6.599  -2.031   1.515  0.00  0.00    +0.085 A 
ATOM      3  C   UNL     1       5.891  -3.167   2.104  0.00  0.00    +0.025 A 
ATOM      4  C   UNL     1       4.606  -3.694   1.939  0.00  0.00    +0.015 A 
ATOM      5  C   UNL     1       4.227  -4.796   2.651  0.00  0.00    -0.050 A 
ATOM      6  C   UNL     1       5.108  -5.398   3.540  0.00  0.00    +0.005 A 
ATOM      7  C   UNL     1       6.378  -4.897   3.719  0.00  0.00    +0.027 A 
ATOM      8  C   UNL     1       6.788  -3.774   3.003  0.00  0.00    +0.051 A 
ATOM      9  N   UNL     1       7.967  -3.064   2.973  0.00  0.00    -0.337 N 
ATOM     10  C   UNL     1       7.862  -2.012   2.078  0.00  0.00    +0.132 A 
ATOM     11  C   UNL     1       8.767  -0.997   1.677  0.00  0.00    +0.285 A 
ATOM     12  O   UNL     1       9.888  -0.949   2.151  0.00  0.00    -0.265 OA
ATOM     13  N   UNL     1       8.377  -0.085   0.764  0.00  0.00    -0.227 N 
ATOM     14  C   UNL     1       7.146  -0.125   0.225  0.00  0.00    +0.337 A 
ATOM     15  O   UNL     1       6.829   0.711  -0.600  0.00  0.00    -0.246 OA
ATOM     16  C   UNL     1       9.157  -3.376   3.769  0.00  0.00    +0.149 C 
ATOM     17  C   UNL     1       2.842  -5.362   2.471  0.00  0.00    +0.044 C 
ENDROOT
BRANCH  13  18
ATOM     18  C   UNL     1       9.271   0.919   0.367  0.00  0.00    +0.055 A 
ATOM     19  C   UNL     1       9.358   2.100   1.092  0.00  0.00    +0.026 A 
ATOM     20  C   UNL     1      10.241   3.086   0.698  0.00  0.00    +0.002 A 
ATOM     21  C   UNL     1      11.036   2.900  -0.417  0.00  0.00    +0.003 A 
ATOM     22  C   UNL     1      10.951   1.725  -1.142  0.00  0.00    -0.048 A 
ATOM     23  C   UNL     1      10.075   0.732  -0.750  0.00  0.00    +0.029 A 
ATOM     24  C   UNL     1      11.819   1.526  -2.358  0.00  0.00    +0.044 C 
ENDBRANCH  13  18
BRANCH   1  25
ATOM     25  C   UNL     1       4.920  -1.080  -0.020  0.00  0.00    +0.223 C 
BRANCH  25  27
ATOM     26  N   UNL     1       3.814  -2.085  -1.991  0.00  0.00    -0.284 N 
ATOM     27  C   UNL     1       4.939  -1.928  -1.266  0.00  0.00    +0.237 C 
ATOM     28  O   UNL     1       5.966  -2.470  -1.615  0.00  0.00    -0.274 OA
ATOM     29  H   UNL     1       3.005  -1.611  -1.740  0.00  0.00    +0.155 HD
BRANCH  26  35
ATOM     30  C   UNL     1       3.252  -2.502  -4.303  0.00  0.00    -0.026 A 
ATOM     31  C   UNL     1       3.258  -3.337  -5.403  0.00  0.00    +0.005 A 
ATOM     32  C   UNL     1       3.815  -4.599  -5.313  0.00  0.00    +0.001 A 
ATOM     33  C   UNL     1       4.369  -5.030  -4.121  0.00  0.00    +0.005 A 
ATOM     34  C   UNL     1       4.367  -4.200  -3.018  0.00  0.00    -0.029 A 
ATOM     35  C   UNL     1       3.812  -2.930  -3.106  0.00  0.00    +0.040 A 
ATOM     36  C   UNL     1       4.971  -4.670  -1.719  0.00  0.00    +0.045 C 
BRANCH  30  38
ATOM     37  C   UNL     1       3.740  -0.107  -4.720  0.00  0.00    +0.009 C 
ATOM     38  C   UNL     1       2.645  -1.127  -4.402  0.00  0.00    +0.033 C 
ENDBRANCH  30  38
ENDBRANCH  26  35
ENDBRANCH  25  27
ENDBRANCH   1  25
TORSDOF 5
