REMARK  Name = ZINC66246672
REMARK  5 active torsions:
REMARK  status: ('A' for Active; 'I' for Inactive)
REMARK    1  A    between atoms: C_2  and  C_3
REMARK    2  A    between atoms: C_3  and  N_4
REMARK    3  A    between atoms: N_7  and  C_8
REMARK    4  A    between atoms: C_8  and  C_9
REMARK    5  A    between atoms: C_9  and  C_15
REMARK                            x       y       z     vdW  Elec       q    Type
REMARK                         _______ _______ _______ _____ _____    ______ ____
ROOT
ATOM      1  C   UNL     1       3.325  -5.014   3.764  0.00  0.00    +0.017 C 
ATOM      2  C   UNL     1       2.960  -4.043   4.892  0.00  0.00    +0.041 C 
ATOM      3  C   UNL     1       4.193  -3.212   5.258  0.00  0.00    +0.161 C 
ATOM      4  O   UNL     1       5.258  -4.085   5.639  0.00  0.00    -0.380 OA
ATOM      5  C   UNL     1       5.673  -4.983   4.608  0.00  0.00    +0.161 C 
ATOM      6  C   UNL     1       4.500  -5.885   4.216  0.00  0.00    +0.041 C 
ENDROOT
BRANCH   1   7
ATOM      7  C   UNL     1       2.140  -5.890   3.447  0.00  0.00    -0.039 A 
ATOM      8  C   UNL     1       2.235  -7.261   3.597  0.00  0.00    +0.005 A 
ATOM      9  C   UNL     1       1.149  -8.064   3.307  0.00  0.00    +0.015 A 
ATOM     10  C   UNL     1      -0.034  -7.497   2.867  0.00  0.00    +0.018 A 
ATOM     11  C   UNL     1      -0.128  -6.125   2.718  0.00  0.00    +0.015 A 
ATOM     12  C   UNL     1       0.957  -5.321   3.013  0.00  0.00    +0.005 A 
ATOM     13 BR   UNL     1      -1.520  -8.596   2.470  0.00  0.00    -0.050 Br
ENDBRANCH   1   7
BRANCH   1  14
ATOM     14  C   UNL     1       3.724  -4.222   2.517  0.00  0.00    +0.127 C 
BRANCH  14  18
ATOM     15  N   UNL     1       4.636  -5.495  -0.786  0.00  0.00    -0.354 N 
ATOM     16  C   UNL     1       4.353  -4.668   0.181  0.00  0.00    +0.169 C 
ATOM     17  N   UNL     1       4.367  -3.312  -0.047  0.00  0.00    -0.371 N 
ATOM     18  N   UNL     1       4.041  -5.152   1.430  0.00  0.00    -0.357 N 
ATOM     19  H   UNL     1       4.588  -2.971  -0.928  0.00  0.00    +0.159 HD
ATOM     20  H   UNL     1       4.157  -2.697   0.673  0.00  0.00    +0.159 HD
ATOM     21  H   UNL     1       4.031  -6.108   1.591  0.00  0.00    +0.162 HD
ATOM     22  H   UNL     1       4.626  -6.451  -0.625  0.00  0.00    +0.163 HD
BRANCH  15  23
ATOM     23  C   UNL     1       4.968  -4.979  -2.117  0.00  0.00    +0.142 C 
BRANCH  23  25
ATOM     24  C   UNL     1       4.590  -6.244  -4.170  0.00  0.00    +0.005 C 
ATOM     25  C   UNL     1       5.251  -6.132  -3.046  0.00  0.00    -0.014 C 
ENDBRANCH  23  25
ENDBRANCH  15  23
ENDBRANCH  14  18
ENDBRANCH   1  14
TORSDOF 5
