REMARK  Name = ZINC63767252
REMARK  9 active torsions:
REMARK  status: ('A' for Active; 'I' for Inactive)
REMARK    1  A    between atoms: C_1  and  C_2
REMARK    2  A    between atoms: C_3  and  C_29
REMARK    3  A    between atoms: C_8  and  S_10
REMARK    4  A    between atoms: S_10  and  C_11
REMARK    5  A    between atoms: C_11  and  C_12
REMARK    6  A    between atoms: N_14  and  C_15
REMARK    7  A    between atoms: C_17  and  C_26
REMARK    8  A    between atoms: C_29  and  C_30
REMARK    9  A    between atoms: C_30  and  O_31
REMARK                            x       y       z     vdW  Elec       q    Type
REMARK                         _______ _______ _______ _____ _____    ______ ____
ROOT
ATOM      1  C   UNL     1       5.186  -1.605  -0.434  0.00  0.00    +0.224 C 
ATOM      2  O   UNL     1       5.253  -2.808  -0.297  0.00  0.00    -0.275 OA
ATOM      3  N   UNL     1       6.303  -0.855  -0.364  0.00  0.00    -0.302 N 
ATOM      4  H   UNL     1       6.249   0.107  -0.474  0.00  0.00    +0.150 HD
ENDROOT
BRANCH   3   5
ATOM      5  C   UNL     1       7.599  -1.493  -0.122  0.00  0.00    +0.151 C 
ATOM      6  C   UNL     1       8.664  -1.021  -1.141  0.00  0.00    +0.132 C 
ATOM      7  C   UNL     1       9.580  -2.147  -1.550  0.00  0.00    -0.046 C 
ATOM      8  C   UNL     1       9.164  -3.389  -1.331  0.00  0.00    -0.013 C 
ATOM      9  S   UNL     1       7.565  -3.282  -0.558  0.00  0.00    -0.106 S 
ATOM     10  C   UNL     1       9.894  -4.660  -1.664  0.00  0.00    +0.042 C 
ATOM     11  C   UNL     1      11.041  -4.332  -2.629  0.00  0.00    +0.005 C 
ATOM     12  C   UNL     1      11.808  -3.125  -2.079  0.00  0.00    +0.005 C 
ATOM     13  C   UNL     1      10.938  -1.874  -2.193  0.00  0.00    +0.032 C 
BRANCH   6  14
ATOM     14  C   UNL     1       9.487   0.079  -0.521  0.00  0.00    +0.220 C 
ATOM     15  O   UNL     1       9.757   0.040   0.661  0.00  0.00    -0.275 OA
ATOM     16  N   UNL     1       9.921   1.105  -1.279  0.00  0.00    -0.329 N 
ATOM     17  H   UNL     1       9.705   1.135  -2.224  0.00  0.00    +0.145 HD
ATOM     18  H   UNL     1      10.451   1.812  -0.879  0.00  0.00    +0.145 HD
ENDBRANCH   6  14
ENDBRANCH   3   5
BRANCH   1  19
ATOM     19  C   UNL     1       3.852  -0.949  -0.684  0.00  0.00    +0.173 C 
BRANCH  19  20
ATOM     20  S   UNL     1       2.553  -2.215  -0.723  0.00  0.00    -0.078 S 
BRANCH  20  28
ATOM     21  C   UNL     1       0.158   2.233  -1.519  0.00  0.00    +0.066 C 
ATOM     22  C   UNL     1       0.049   0.738  -1.374  0.00  0.00    +0.049 A 
ATOM     23  C   UNL     1      -1.170   0.131  -1.473  0.00  0.00    +0.040 A 
ATOM     24  C   UNL     1      -1.248  -1.266  -1.335  0.00  0.00    +0.256 A 
ATOM     25  O   UNL     1      -2.321  -1.840  -1.418  0.00  0.00    -0.267 OA
ATOM     26  N   UNL     1      -0.112  -1.960  -1.108  0.00  0.00    -0.302 N 
ATOM     27  H   UNL     1      -0.142  -2.924  -1.010  0.00  0.00    +0.171 HD
ATOM     28  C   UNL     1       1.076  -1.301  -1.019  0.00  0.00    +0.170 A 
ATOM     29  N   UNL     1       1.141   0.010  -1.155  0.00  0.00    -0.228 NA
BRANCH  23  30
ATOM     30  C   UNL     1      -2.413   0.946  -1.726  0.00  0.00    +0.070 C 
BRANCH  30  31
ATOM     31  C   UNL     1      -2.712   0.966  -3.226  0.00  0.00    +0.160 C 
BRANCH  31  32
ATOM     32  O   UNL     1      -3.890   1.739  -3.466  0.00  0.00    -0.395 OA
ATOM     33  H   UNL     1      -4.141   1.795  -4.398  0.00  0.00    +0.209 HD
ENDBRANCH  31  32
ENDBRANCH  30  31
ENDBRANCH  23  30
ENDBRANCH  20  28
ENDBRANCH  19  20
ENDBRANCH   1  19
TORSDOF 8
