REMARK  Name = ZINC65146747
REMARK  6 active torsions:
REMARK  status: ('A' for Active; 'I' for Inactive)
REMARK    1  A    between atoms: C_4  and  N_7
REMARK    2  A    between atoms: C_8  and  C_17
REMARK    3  A    between atoms: C_10  and  C_12
REMARK    4  A    between atoms: N_19  and  N_20
REMARK    5  A    between atoms: N_23  and  C_24
REMARK    6  A    between atoms: C_24  and  C_25
REMARK                            x       y       z     vdW  Elec       q    Type
REMARK                         _______ _______ _______ _____ _____    ______ ____
ROOT
ATOM      1  N   UNL     1       4.920  -2.867  -0.330  0.00  0.00    -0.227 N 
ATOM      2  C   UNL     1       3.592  -2.567  -0.174  0.00  0.00    +0.131 A 
ATOM      3  C   UNL     1       3.332  -1.451  -0.939  0.00  0.00    +0.066 A 
ATOM      4  C   UNL     1       4.532  -1.076  -1.566  0.00  0.00    +0.129 A 
ATOM      5  N   UNL     1       5.478  -1.919  -1.196  0.00  0.00    -0.163 NA
ENDROOT
BRANCH   1   9
ATOM      6  C   UNL     1       6.946  -6.030   1.473  0.00  0.00    +0.000 A 
ATOM      7  C   UNL     1       7.162  -5.744   0.137  0.00  0.00    +0.002 A 
ATOM      8  C   UNL     1       6.492  -4.697  -0.464  0.00  0.00    +0.028 A 
ATOM      9  C   UNL     1       5.600  -3.929   0.276  0.00  0.00    +0.066 A 
ATOM     10  C   UNL     1       5.386  -4.219   1.617  0.00  0.00    +0.028 A 
ATOM     11  C   UNL     1       6.059  -5.268   2.211  0.00  0.00    +0.002 A 
ENDBRANCH   1   9
BRANCH   4  12
ATOM     12  C   UNL     1       4.707   0.072  -2.481  0.00  0.00    +0.155 A 
ATOM     13  C   UNL     1       5.865   0.435  -3.094  0.00  0.00    +0.051 A 
ATOM     14  C   UNL     1       5.575   1.577  -3.868  0.00  0.00    +0.042 A 
ATOM     15  C   UNL     1       4.269   1.851  -3.691  0.00  0.00    +0.196 A 
ATOM     16  O   UNL     1       3.746   0.937  -2.857  0.00  0.00    -0.461 OA
ENDBRANCH   4  12
BRANCH   2  17
ATOM     17  C   UNL     1       2.624  -3.300   0.656  0.00  0.00    +0.279 C 
ATOM     18  O   UNL     1       2.951  -4.338   1.199  0.00  0.00    -0.267 OA
ATOM     19  N   UNL     1       1.374  -2.822   0.814  0.00  0.00    -0.228 N 
ATOM     20  H   UNL     1       1.089  -2.035   0.323  0.00  0.00    +0.173 HD
BRANCH  19  21
ATOM     21  N   UNL     1       0.485  -3.461   1.688  0.00  0.00    -0.218 N 
ATOM     22  C   UNL     1      -0.730  -2.926   1.924  0.00  0.00    +0.316 C 
ATOM     23  O   UNL     1      -1.462  -3.425   2.756  0.00  0.00    -0.251 OA
ATOM     24  N   UNL     1      -1.132  -1.838   1.238  0.00  0.00    -0.296 N 
ATOM     25  H   UNL     1       0.743  -4.288   2.123  0.00  0.00    +0.174 HD
ATOM     26  H   UNL     1      -0.581  -1.486   0.522  0.00  0.00    +0.150 HD
BRANCH  24  27
ATOM     27  C   UNL     1      -2.400  -1.187   1.575  0.00  0.00    +0.137 C 
BRANCH  27  28
ATOM     28  C   UNL     1      -2.677  -0.062   0.576  0.00  0.00    +0.135 C 
ATOM     29  C   UNL     1      -4.011   0.632   0.925  0.00  0.00    +0.035 C 
ATOM     30  C   UNL     1      -4.624   0.893  -0.477  0.00  0.00    +0.031 C 
ATOM     31  C   UNL     1      -4.122  -0.350  -1.254  0.00  0.00    +0.160 C 
ATOM     32  O   UNL     1      -2.804  -0.604  -0.744  0.00  0.00    -0.375 OA
ENDBRANCH  27  28
ENDBRANCH  24  27
ENDBRANCH  19  21
ENDBRANCH   2  17
TORSDOF 6
