REMARK  Name = ZINC26603211
REMARK  5 active torsions:
REMARK  status: ('A' for Active; 'I' for Inactive)
REMARK    1  A    between atoms: C_4  and  N_8
REMARK    2  A    between atoms: C_9  and  C_11
REMARK    3  A    between atoms: N_16  and  C_17
REMARK    4  A    between atoms: C_17  and  C_18
REMARK    5  A    between atoms: N_23  and  C_24
REMARK                            x       y       z     vdW  Elec       q    Type
REMARK                         _______ _______ _______ _____ _____    ______ ____
ROOT
ATOM      1  C   UNL     1       0.845  -0.591  -1.000  0.00  0.00    +0.020 C 
ATOM      2  C   UNL     1       1.141  -2.034  -0.518  0.00  0.00    -0.008 C 
ATOM      3  C   UNL     1       1.351  -1.853   1.003  0.00  0.00    -0.020 C 
ATOM      4  C   UNL     1       0.635  -0.536   1.355  0.00  0.00    -0.077 C 
ATOM      5  N   UNL     1       0.032  -0.023   0.105  0.00  0.00    +0.393 N 
ATOM      6  H   UNL     1      -1.027  -0.309   0.023  0.00  0.00    -0.080 HD
ENDROOT
BRANCH   1   8
ATOM      7  N   UNL     1       0.618  -1.091  -3.412  0.00  0.00    -0.286 N 
ATOM      8  C   UNL     1       0.057  -0.611  -2.284  0.00  0.00    +0.204 C 
ATOM      9  O   UNL     1      -1.082  -0.195  -2.303  0.00  0.00    -0.277 OA
ATOM     10  H   UNL     1       1.625  -1.533  -3.380  0.00  0.00    +0.155 HD
BRANCH   7  14
ATOM     11  C   UNL     1      -1.462  -0.901  -7.019  0.00  0.00    +0.021 A 
ATOM     12  C   UNL     1      -0.086  -0.759  -7.008  0.00  0.00    +0.023 A 
ATOM     13  C   UNL     1       0.606  -0.822  -5.814  0.00  0.00    +0.062 A 
ATOM     14  C   UNL     1      -0.081  -1.027  -4.623  0.00  0.00    +0.053 A 
ATOM     15  C   UNL     1      -1.461  -1.175  -4.638  0.00  0.00    +0.044 A 
ATOM     16  C   UNL     1      -2.149  -1.106  -5.836  0.00  0.00    +0.043 A 
ATOM     17 CL   UNL     1      -3.876  -1.283  -5.856  0.00  0.00    -0.083 Cl
ATOM     18 CL   UNL     1       2.333  -0.643  -5.800  0.00  0.00    -0.082 Cl
ENDBRANCH   7  14
ENDBRANCH   1   8
BRANCH   5  19
ATOM     19  C   UNL     1       0.053   1.445   0.074  0.00  0.00    +0.020 C 
BRANCH  19  20
ATOM     20  C   UNL     1      -0.850   1.984   1.154  0.00  0.00    +0.204 C 
ATOM     21  O   UNL     1      -1.385   1.223   1.932  0.00  0.00    -0.277 OA
ATOM     22  N   UNL     1      -1.062   3.311   1.255  0.00  0.00    -0.242 N 
ATOM     23  C   UNL     1      -1.869   3.793   2.220  0.00  0.00    +0.306 C 
ATOM     24  O   UNL     1      -2.406   3.030   3.000  0.00  0.00    -0.252 OA
ATOM     25  N   UNL     1      -2.082   5.120   2.321  0.00  0.00    -0.296 N 
ATOM     26  H   UNL     1      -0.577   4.001   0.549  0.00  0.00    +0.159 HD
ATOM     27  H   UNL     1      -1.596   5.810   1.615  0.00  0.00    +0.151 HD
BRANCH  25  28
ATOM     28  C   UNL     1      -2.959   5.643   3.371  0.00  0.00    +0.074 C 
ATOM     29  C   UNL     1      -4.420   5.667   2.875  0.00  0.00    +0.022 C 
ATOM     30  C   UNL     1      -5.008   6.962   3.490  0.00  0.00    +0.002 C 
ATOM     31  C   UNL     1      -3.826   7.957   3.387  0.00  0.00    +0.002 C 
ATOM     32  C   UNL     1      -2.582   7.099   3.696  0.00  0.00    +0.022 C 
ENDBRANCH  25  28
ENDBRANCH  19  20
ENDBRANCH   5  19
TORSDOF 5
