REMARK  Name = ZINC06766262
REMARK  11 active torsions:
REMARK  status: ('A' for Active; 'I' for Inactive)
REMARK    1  A    between atoms: C_1  and  C_2
REMARK    2  A    between atoms: C_3  and  C_27
REMARK    3  A    between atoms: C_5  and  C_25
REMARK    4  A    between atoms: C_6  and  C_24
REMARK    5  A    between atoms: C_7  and  C_8
REMARK    6  A    between atoms: C_8  and  O_9
REMARK    7  A    between atoms: O_9  and  C_10
REMARK    8  A    between atoms: C_13  and  C_18
REMARK    9  A    between atoms: C_15  and  O_16
REMARK   10  A    between atoms: O_16  and  C_17
REMARK   11  A    between atoms: N_19  and  N_20
REMARK                            x       y       z     vdW  Elec       q    Type
REMARK                         _______ _______ _______ _____ _____    ______ ____
ROOT
ATOM      1  C   UNL     1       1.139   5.408   1.546  0.00  0.00    +0.162 A 
ATOM      2  C   UNL     1       1.123   6.257   0.449  0.00  0.00    +0.050 A 
ATOM      3  C   UNL     1       1.099   7.624   0.630  0.00  0.00    +0.013 A 
ATOM      4  C   UNL     1       1.104   8.157   1.923  0.00  0.00    -0.002 A 
ATOM      5  C   UNL     1       1.126   7.300   3.028  0.00  0.00    +0.059 A 
ATOM      6  C   UNL     1       1.144   5.932   2.837  0.00  0.00    +0.162 A 
ENDROOT
BRANCH   6   7
ATOM      7  O   UNL     1       1.166   5.096   3.909  0.00  0.00    -0.491 OA
ATOM      8  C   UNL     1       1.170   5.701   5.204  0.00  0.00    +0.277 C 
ENDBRANCH   6   7
BRANCH   4   9
ATOM      9  C   UNL     1       1.085   9.615   2.120  0.00  0.00    +0.143 C 
ATOM     10  N   UNL     1       1.064  10.413   1.088  0.00  0.00    -0.154 NA
BRANCH  10  11
ATOM     11  N   UNL     1       1.047  11.801   1.275  0.00  0.00    -0.114 NA
ATOM     12  C   UNL     1       1.026  12.607   0.233  0.00  0.00    +0.213 C 
ATOM     13  N   UNL     1       1.021  12.086  -1.036  0.00  0.00    -0.369 N 
ATOM     14  N   UNL     1       1.008  13.966   0.417  0.00  0.00    -0.369 N 
ATOM     15  H   UNL     1       1.033  11.124  -1.166  0.00  0.00    +0.159 HD
ATOM     16  H   UNL     1       1.005  12.678  -1.804  0.00  0.00    +0.159 HD
ATOM     17  H   UNL     1       1.012  14.334   1.314  0.00  0.00    +0.159 HD
ATOM     18  H   UNL     1       0.993  14.559  -0.351  0.00  0.00    +0.159 HD
ENDBRANCH  10  11
ENDBRANCH   4   9
BRANCH   1  19
ATOM     19  O   UNL     1       1.156   4.061   1.360  0.00  0.00    -0.484 OA
BRANCH  19  20
ATOM     20  C   UNL     1       1.150   3.592   0.010  0.00  0.00    +0.265 C 
BRANCH  20  27
ATOM     21  C   UNL     1      -1.332   2.114   0.020  0.00  0.00    +0.044 C 
ATOM     22  C   UNL     1      -0.017   1.378   0.010  0.00  0.00    -0.040 A 
ATOM     23  C   UNL     1       0.002  -0.004   0.002  0.00  0.00    -0.033 A 
ATOM     24  C   UNL     1       1.209  -0.679  -0.013  0.00  0.00    +0.024 A 
ATOM     25  C   UNL     1       2.397   0.029  -0.021  0.00  0.00    -0.033 A 
ATOM     26  C   UNL     1       2.378   1.411  -0.013  0.00  0.00    -0.040 A 
ATOM     27  C   UNL     1       1.171   2.086   0.002  0.00  0.00    -0.004 A 
ATOM     28  C   UNL     1       3.672   2.183  -0.021  0.00  0.00    +0.044 C 
ATOM     29  C   UNL     1       3.713  -0.706  -0.037  0.00  0.00    +0.045 C 
ATOM     30 BR   UNL     1       1.236  -2.570  -0.023  0.00  0.00    -0.050 Br
ATOM     31  C   UNL     1      -1.293  -0.775   0.011  0.00  0.00    +0.045 C 
ENDBRANCH  20  27
ENDBRANCH  19  20
ENDBRANCH   1  19
TORSDOF 6
