REMARK  Name = ZINC39671537
REMARK  7 active torsions:
REMARK  status: ('A' for Active; 'I' for Inactive)
REMARK    1  A    between atoms: C_1  and  C_2
REMARK    2  A    between atoms: C_4  and  C_7
REMARK    3  A    between atoms: C_9  and  C_14
REMARK    4  A    between atoms: C_10  and  C_13
REMARK    5  A    between atoms: C_18  and  C_27
REMARK    6  A    between atoms: N_29  and  C_30
REMARK    7  A    between atoms: C_30  and  C_31
REMARK                            x       y       z     vdW  Elec       q    Type
REMARK                         _______ _______ _______ _____ _____    ______ ____
ROOT
ATOM      1  C   UNL     1      -1.168  -3.790  -2.758  0.00  0.00    +0.247 C 
ATOM      2  O   UNL     1      -1.061  -3.984  -1.560  0.00  0.00    -0.270 OA
ATOM      3  N   UNL     1      -1.625  -2.606  -3.211  0.00  0.00    -0.296 N 
ATOM      4  C   UNL     1      -1.979  -1.405  -2.418  0.00  0.00    +0.121 C 
ATOM      5  C   UNL     1      -1.464  -0.216  -3.259  0.00  0.00    +0.100 C 
ATOM      6  C   UNL     1      -1.408  -0.750  -4.700  0.00  0.00    -0.004 C 
ATOM      7  C   UNL     1      -1.882  -2.208  -4.616  0.00  0.00    +0.115 C 
ATOM      8  C   UNL     1      -2.339   0.058  -5.599  0.00  0.00    -0.010 C 
ATOM      9  C   UNL     1      -2.223  -0.454  -7.038  0.00  0.00    -0.082 C 
ATOM     10  N   UNL     1      -0.834  -0.324  -7.495  0.00  0.00    +0.379 N 
ATOM     11  C   UNL     1       0.043  -1.176  -6.683  0.00  0.00    -0.082 C 
ATOM     12  C   UNL     1       0.022  -0.695  -5.229  0.00  0.00    -0.010 C 
ATOM     13  H   UNL     1      -0.771  -0.604  -8.462  0.00  0.00    -0.086 HD
ATOM     14  H   UNL     1      -0.541   0.638  -7.407  0.00  0.00    -0.086 HD
ENDROOT
BRANCH   1  16
ATOM     15  C   UNL     1      -1.041  -4.792  -5.168  0.00  0.00    +0.237 C 
ATOM     16  C   UNL     1      -0.811  -4.808  -3.673  0.00  0.00    +0.072 C 
ATOM     17  C   UNL     1      -0.204  -5.973  -3.378  0.00  0.00    +0.047 C 
ATOM     18  N   UNL     1      -0.009  -6.718  -4.499  0.00  0.00    -0.269 N 
ATOM     19  O   UNL     1      -0.507  -6.038  -5.639  0.00  0.00    -0.260 OA
ATOM     20  C   UNL     1       0.207  -6.394  -1.991  0.00  0.00    +0.066 C 
ATOM     21  H   UNL     1       0.411  -7.592  -4.516  0.00  0.00    +0.194 HD
BRANCH  15  25
ATOM     22  C   UNL     1      -5.471  -3.383  -7.251  0.00  0.00    +0.089 C 
ATOM     23  C   UNL     1      -4.444  -4.077  -6.394  0.00  0.00    +0.135 A 
ATOM     24  C   UNL     1      -3.115  -3.860  -6.421  0.00  0.00    +0.073 A 
ATOM     25  C   UNL     1      -2.515  -4.706  -5.471  0.00  0.00    +0.120 A 
ATOM     26  N   UNL     1      -3.456  -5.403  -4.899  0.00  0.00    -0.080 NA
ATOM     27  O   UNL     1      -4.693  -5.015  -5.468  0.00  0.00    -0.360 OA
ENDBRANCH  15  25
ENDBRANCH   1  16
BRANCH   5  28
ATOM     28  C   UNL     1      -2.419   0.946  -3.164  0.00  0.00    +0.219 C 
ATOM     29  O   UNL     1      -3.604   0.746  -3.002  0.00  0.00    -0.275 OA
ATOM     30  N   UNL     1      -1.956   2.208  -3.260  0.00  0.00    -0.309 N 
ATOM     31  H   UNL     1      -1.021   2.368  -3.462  0.00  0.00    +0.149 HD
BRANCH  30  32
ATOM     32  C   UNL     1      -2.865   3.339  -3.058  0.00  0.00    +0.157 C 
BRANCH  32  33
ATOM     33  C   UNL     1      -2.104   4.630  -3.218  0.00  0.00    +0.034 A 
ATOM     34  H   UNL     1      -1.306   4.926  -1.317  0.00  0.00    +0.166 HD
ATOM     35  C   UNL     1      -2.027   5.344  -4.352  0.00  0.00    +0.032 A 
ATOM     36  C   UNL     1      -1.195   6.515  -4.065  0.00  0.00    -0.000 A 
ATOM     37  C   UNL     1      -0.758   7.604  -4.822  0.00  0.00    +0.010 A 
ATOM     38  C   UNL     1       0.032   8.557  -4.245  0.00  0.00    +0.001 A 
ATOM     39  C   UNL     1       0.405   8.453  -2.912  0.00  0.00    +0.002 A 
ATOM     40  C   UNL     1      -0.015   7.387  -2.147  0.00  0.00    +0.026 A 
ATOM     41  C   UNL     1      -0.820   6.404  -2.714  0.00  0.00    +0.047 A 
ATOM     42  N   UNL     1      -1.394   5.251  -2.227  0.00  0.00    -0.357 N 
ENDBRANCH  32  33
ENDBRANCH  30  32
ENDBRANCH   5  28
TORSDOF 5
