REMARK  Name = ZINC09763381
REMARK  6 active torsions:
REMARK  status: ('A' for Active; 'I' for Inactive)
REMARK    1  A    between atoms: C_1  and  C_2
REMARK    2  A    between atoms: C_2  and  S_3
REMARK    3  A    between atoms: S_3  and  N_6
REMARK    4  A    between atoms: N_6  and  C_7
REMARK    5  A    between atoms: C_12  and  C_24
REMARK    6  A    between atoms: C_15  and  C_17
REMARK                            x       y       z     vdW  Elec       q    Type
REMARK                         _______ _______ _______ _____ _____    ______ ____
ROOT
ATOM      1  C   UNL     1       1.384  -3.020  -2.389  0.00  0.00    +0.255 A 
ATOM      2  N   UNL     1       1.407  -4.357  -2.415  0.00  0.00    -0.293 N 
ATOM      3  C   UNL     1       2.025  -4.767  -3.495  0.00  0.00    +0.228 A 
ATOM      4  N   UNL     1       2.410  -3.658  -4.197  0.00  0.00    -0.221 N 
ATOM      5  N   UNL     1       1.986  -2.554  -3.465  0.00  0.00    -0.130 NA
ATOM      6  C   UNL     1       3.117  -3.738  -5.475  0.00  0.00    +0.147 C 
ATOM      7  C   UNL     1       3.939  -5.033  -5.480  0.00  0.00    +0.087 C 
ATOM      8  C   UNL     1       3.147  -6.178  -4.914  0.00  0.00    +0.055 C 
ATOM      9  N   UNL     1       2.277  -6.022  -3.952  0.00  0.00    -0.217 NA
ATOM     10  H   UNL     1       1.023  -4.935  -1.737  0.00  0.00    +0.172 HD
ENDROOT
BRANCH   8  11
ATOM     11  C   UNL     1       3.360  -7.525  -5.465  0.00  0.00    -0.003 A 
ATOM     12  C   UNL     1       4.288  -7.726  -6.492  0.00  0.00    +0.011 A 
ATOM     13  C   UNL     1       4.482  -8.992  -7.002  0.00  0.00    +0.016 A 
ATOM     14  C   UNL     1       3.760 -10.063  -6.501  0.00  0.00    +0.018 A 
ATOM     15  C   UNL     1       2.839  -9.871  -5.484  0.00  0.00    +0.016 A 
ATOM     16  C   UNL     1       2.638  -8.612  -4.960  0.00  0.00    +0.011 A 
ATOM     17 BR   UNL     1       4.034 -11.795  -7.209  0.00  0.00    -0.050 Br
ENDBRANCH   8  11
BRANCH   6  18
ATOM     18  C   UNL     1       4.034  -2.551  -5.626  0.00  0.00    -0.023 A 
ATOM     19  C   UNL     1       5.045  -2.338  -4.707  0.00  0.00    +0.007 A 
ATOM     20  C   UNL     1       5.885  -1.250  -4.845  0.00  0.00    +0.020 A 
ATOM     21  C   UNL     1       5.715  -0.374  -5.902  0.00  0.00    +0.041 A 
ATOM     22  C   UNL     1       4.703  -0.588  -6.821  0.00  0.00    +0.020 A 
ATOM     23  C   UNL     1       3.867  -1.680  -6.686  0.00  0.00    +0.007 A 
ATOM     24 CL   UNL     1       6.770   0.994  -6.076  0.00  0.00    -0.084 Cl
ENDBRANCH   6  18
BRANCH   1  25
ATOM     25  N   UNL     1       0.808  -2.241  -1.384  0.00  0.00    -0.063 NA
BRANCH  25  26
ATOM     26  S   UNL     1       0.851  -0.589  -1.490  0.00  0.00    +0.065 S 
ATOM     27  O   UNL     1       0.082  -0.280  -2.644  0.00  0.00    -0.153 OA
ATOM     28  O   UNL     1       2.232  -0.257  -1.430  0.00  0.00    -0.153 OA
BRANCH  26  30
ATOM     29  C   UNL     1      -0.019   1.526   0.010  0.00  0.00    +0.030 C 
ATOM     30  C   UNL     1       0.002  -0.004   0.002  0.00  0.00    +0.187 C 
ENDBRANCH  26  30
ENDBRANCH  25  26
ENDBRANCH   1  25
TORSDOF 5
