REMARK  Name = ZINC36575462
REMARK  17 active torsions:
REMARK  status: ('A' for Active; 'I' for Inactive)
REMARK    1  A    between atoms: C_1  and  C_2
REMARK    2  A    between atoms: C_2  and  C_3
REMARK    3  A    between atoms: C_3  and  N_4
REMARK    4  A    between atoms: N_4  and  C_5
REMARK    5  A    between atoms: C_5  and  C_7
REMARK    6  A    between atoms: C_5  and  C_15
REMARK    7  A    between atoms: N_17  and  C_18
REMARK    8  A    between atoms: C_18  and  C_19
REMARK    9  A    between atoms: C_18  and  C_20
REMARK   10  A    between atoms: C_18  and  C_21
REMARK   11  A    between atoms: C_21  and  C_22
REMARK   12  A    between atoms: C_22  and  C_23
REMARK   13  A    between atoms: C_22  and  C_24
REMARK   14  A    between atoms: C_22  and  C_25
REMARK   15  A    between atoms: C_26  and  C_28
REMARK   16  A    between atoms: C_28  and  N_29
REMARK   17  A    between atoms: C_30  and  C_32
REMARK                            x       y       z     vdW  Elec       q    Type
REMARK                         _______ _______ _______ _____ _____    ______ ____
ROOT
ATOM      1  C   UNL     1      -0.379  -1.562   4.492  0.00  0.00    +0.195 C 
ENDROOT
BRANCH   1   2
ATOM      2  C   UNL     1       0.299  -1.326   5.817  0.00  0.00    +0.018 A 
ATOM      3  C   UNL     1       0.315  -0.058   6.370  0.00  0.00    +0.048 A 
ATOM      4  C   UNL     1       0.937   0.158   7.586  0.00  0.00    +0.020 A 
ATOM      5  C   UNL     1       1.544  -0.892   8.249  0.00  0.00    +0.003 A 
ATOM      6  C   UNL     1       1.528  -2.160   7.697  0.00  0.00    +0.020 A 
ATOM      7  C   UNL     1       0.901  -2.378   6.484  0.00  0.00    +0.048 A 
ATOM      8 CL   UNL     1       0.875  -3.971   5.794  0.00  0.00    -0.083 Cl
ATOM      9 CL   UNL     1      -0.446   1.261   5.537  0.00  0.00    -0.083 Cl
ENDBRANCH   1   2
BRANCH   1  10
ATOM     10  C   UNL     1      -1.849  -1.252   4.617  0.00  0.00    +0.239 C 
ATOM     11  O   UNL     1      -2.327  -0.324   4.000  0.00  0.00    -0.273 OA
ATOM     12  N   UNL     1      -2.631  -2.006   5.415  0.00  0.00    -0.308 N 
ATOM     13  H   UNL     1      -2.248  -2.748   5.908  0.00  0.00    +0.149 HD
BRANCH  12  14
ATOM     14  C   UNL     1      -4.059  -1.704   5.536  0.00  0.00    +0.030 C 
ATOM     15  C   UNL     1      -4.236  -0.307   6.133  0.00  0.00    +0.031 C 
ATOM     16  C   UNL     1      -4.711  -1.754   4.153  0.00  0.00    +0.031 C 
BRANCH  14  17
ATOM     17  C   UNL     1      -4.723  -2.737   6.450  0.00  0.00    +0.031 C 
BRANCH  17  18
ATOM     18  C   UNL     1      -4.902  -4.052   5.688  0.00  0.00    -0.036 C 
ATOM     19  C   UNL     1      -3.630  -4.358   4.894  0.00  0.00    +0.010 C 
ATOM     20  C   UNL     1      -5.168  -5.184   6.681  0.00  0.00    +0.010 C 
ATOM     21  C   UNL     1      -6.085  -3.927   4.726  0.00  0.00    +0.010 C 
ENDBRANCH  17  18
ENDBRANCH  14  17
ENDBRANCH  12  14
ENDBRANCH   1  10
BRANCH   1  22
ATOM     22  N   UNL     1       0.219  -0.693   3.476  0.00  0.00    -0.285 N 
ATOM     23  C   UNL     1       1.369  -0.042   3.738  0.00  0.00    +0.234 C 
ATOM     24  O   UNL     1       1.945  -0.228   4.789  0.00  0.00    -0.274 OA
BRANCH  22  25
ATOM     25  C   UNL     1      -0.434  -0.532   2.174  0.00  0.00    +0.108 C 
BRANCH  25  27
ATOM     26  C   UNL     1      -1.769   1.024   0.746  0.00  0.00    +0.005 C 
ATOM     27  C   UNL     1      -0.982   0.892   2.051  0.00  0.00    +0.016 C 
ENDBRANCH  25  27
ENDBRANCH  22  25
BRANCH  23  28
ATOM     28  C   UNL     1       1.940   0.917   2.725  0.00  0.00    +0.200 C 
BRANCH  28  29
ATOM     29  N   UNL     1       3.184   1.491   3.244  0.00  0.00    -0.303 N 
ATOM     30  C   UNL     1       3.875   2.382   2.504  0.00  0.00    +0.244 C 
ATOM     31  O   UNL     1       3.466   2.708   1.407  0.00  0.00    -0.270 OA
ATOM     32  H   UNL     1       3.511   1.231   4.119  0.00  0.00    +0.150 HD
BRANCH  30  33
ATOM     33  C   UNL     1       5.131   2.961   3.027  0.00  0.00    +0.037 A 
ATOM     34  C   UNL     1       5.606   2.583   4.284  0.00  0.00    +0.013 A 
ATOM     35  C   UNL     1       6.779   3.127   4.766  0.00  0.00    +0.001 A 
ATOM     36  C   UNL     1       7.483   4.045   4.007  0.00  0.00    +0.000 A 
ATOM     37  C   UNL     1       7.016   4.424   2.761  0.00  0.00    +0.001 A 
ATOM     38  C   UNL     1       5.848   3.883   2.264  0.00  0.00    +0.013 A 
ENDBRANCH  30  33
ENDBRANCH  28  29
ENDBRANCH  23  28
ENDBRANCH   1  22
TORSDOF 11
