REMARK  Name = ZINC01893243
REMARK  13 active torsions:
REMARK  status: ('A' for Active; 'I' for Inactive)
REMARK    1  A    between atoms: C_1  and  C_2
REMARK    2  A    between atoms: C_5  and  N_8
REMARK    3  A    between atoms: C_9  and  C_33
REMARK    4  A    between atoms: C_12  and  S_13
REMARK    5  A    between atoms: S_13  and  C_14
REMARK    6  A    between atoms: C_14  and  C_15
REMARK    7  A    between atoms: N_17  and  N_18
REMARK    8  A    between atoms: C_19  and  C_20
REMARK    9  A    between atoms: C_21  and  C_32
REMARK   10  A    between atoms: N_23  and  C_26
REMARK   11  A    between atoms: C_24  and  C_25
REMARK   12  A    between atoms: C_36  and  O_39
REMARK   13  A    between atoms: O_39  and  C_40
REMARK                            x       y       z     vdW  Elec       q    Type
REMARK                         _______ _______ _______ _____ _____    ______ ____
ROOT
ATOM      1  S   UNL     1       2.783  -3.691  -1.522  0.00  0.00    -0.076 S 
ENDROOT
BRANCH   1   6
ATOM      2  N   UNL     1       0.425  -3.180  -0.101  0.00  0.00    -0.270 N 
ATOM      3  C   UNL     1      -0.569  -3.940   0.476  0.00  0.00    +0.169 A 
ATOM      4  N   UNL     1      -0.257  -5.199   0.274  0.00  0.00    -0.128 NA
ATOM      5  N   UNL     1       0.846  -5.280  -0.380  0.00  0.00    -0.122 NA
ATOM      6  C   UNL     1       1.306  -4.077  -0.642  0.00  0.00    +0.197 A 
BRANCH   2  11
ATOM      7  C   UNL     1       0.779   2.483  -0.227  0.00  0.00    +0.044 C 
ATOM      8  C   UNL     1       0.685   0.979  -0.193  0.00  0.00    -0.050 A 
ATOM      9  C   UNL     1       0.455   0.276  -1.361  0.00  0.00    +0.005 A 
ATOM     10  C   UNL     1       0.368  -1.102  -1.334  0.00  0.00    +0.026 A 
ATOM     11  C   UNL     1       0.513  -1.781  -0.132  0.00  0.00    +0.051 A 
ATOM     12  C   UNL     1       0.745  -1.073   1.039  0.00  0.00    +0.026 A 
ATOM     13  C   UNL     1       0.835   0.305   1.005  0.00  0.00    +0.005 A 
ENDBRANCH   2  11
BRANCH   3  14
ATOM     14  C   UNL     1      -1.760  -3.433   1.189  0.00  0.00    +0.020 A 
ATOM     15  C   UNL     1      -2.484  -4.279   2.032  0.00  0.00    +0.015 A 
ATOM     16  C   UNL     1      -3.594  -3.803   2.695  0.00  0.00    +0.046 A 
ATOM     17  C   UNL     1      -3.993  -2.483   2.526  0.00  0.00    +0.120 A 
ATOM     18  C   UNL     1      -3.276  -1.639   1.689  0.00  0.00    +0.046 A 
ATOM     19  C   UNL     1      -2.161  -2.106   1.026  0.00  0.00    +0.015 A 
BRANCH  17  20
ATOM     20  O   UNL     1      -5.088  -2.018   3.182  0.00  0.00    -0.495 OA
ATOM     21  C   UNL     1      -5.443  -0.651   2.963  0.00  0.00    +0.277 C 
ENDBRANCH  17  20
ENDBRANCH   3  14
ENDBRANCH   1   6
BRANCH   1  22
ATOM     22  C   UNL     1       3.471  -5.312  -1.958  0.00  0.00    +0.174 C 
BRANCH  22  23
ATOM     23  C   UNL     1       4.754  -5.124  -2.725  0.00  0.00    +0.242 C 
ATOM     24  O   UNL     1       5.165  -4.005  -2.954  0.00  0.00    -0.273 OA
ATOM     25  N   UNL     1       5.446  -6.197  -3.155  0.00  0.00    -0.206 N 
ATOM     26  H   UNL     1       5.118  -7.091  -2.971  0.00  0.00    +0.177 HD
BRANCH  25  27
ATOM     27  N   UNL     1       6.639  -6.022  -3.868  0.00  0.00    -0.188 NA
ATOM     28  C   UNL     1       7.305  -7.056  -4.282  0.00  0.00    +0.142 C 
BRANCH  28  29
ATOM     29  C   UNL     1       8.562  -6.871  -5.033  0.00  0.00    +0.038 A 
ATOM     30  C   UNL     1       9.163  -5.638  -5.369  0.00  0.00    +0.069 A 
ATOM     31  N   UNL     1      10.260  -5.888  -6.032  0.00  0.00    -0.171 NA
ATOM     32  N   UNL     1      10.411  -7.274  -6.151  0.00  0.00    -0.236 N 
ATOM     33  C   UNL     1       9.370  -7.870  -5.532  0.00  0.00    +0.051 A 
ATOM     34  C   UNL     1       9.133  -9.354  -5.412  0.00  0.00    +0.066 C 
ATOM     35  C   UNL     1       8.632  -4.272  -5.022  0.00  0.00    +0.068 C 
BRANCH  32  36
ATOM     36  C   UNL     1      11.466  -7.932  -6.798  0.00  0.00    +0.066 A 
ATOM     37  C   UNL     1      11.210  -9.035  -7.602  0.00  0.00    +0.028 A 
ATOM     38  C   UNL     1      12.252  -9.681  -8.239  0.00  0.00    +0.002 A 
ATOM     39  C   UNL     1      13.549  -9.230  -8.076  0.00  0.00    +0.000 A 
ATOM     40  C   UNL     1      13.807  -8.132  -7.276  0.00  0.00    +0.002 A 
ATOM     41  C   UNL     1      12.769  -7.478  -6.642  0.00  0.00    +0.028 A 
ENDBRANCH  32  36
ENDBRANCH  28  29
ENDBRANCH  25  27
ENDBRANCH  22  23
ENDBRANCH   1  22
TORSDOF 9
