REMARK  Name = ZINC59564976
REMARK  8 active torsions:
REMARK  status: ('A' for Active; 'I' for Inactive)
REMARK    1  A    between atoms: C_1  and  C_2
REMARK    2  A    between atoms: C_2  and  C_3
REMARK    3  A    between atoms: C_3  and  C_29
REMARK    4  A    between atoms: N_5  and  C_23
REMARK    5  A    between atoms: C_6  and  S_8
REMARK    6  A    between atoms: S_8  and  C_9
REMARK    7  A    between atoms: C_9  and  C_10
REMARK    8  A    between atoms: N_12  and  C_13
REMARK                            x       y       z     vdW  Elec       q    Type
REMARK                         _______ _______ _______ _____ _____    ______ ____
ROOT
ATOM      1  C   UNL     1      -1.117  -0.410  -0.145  0.00  0.00    +0.104 C 
ATOM      2  N   UNL     1      -0.938  -1.876  -0.152  0.00  0.00    -0.209 NA
ATOM      3  N   UNL     1      -1.057  -2.265   1.153  0.00  0.00    -0.213 N 
ATOM      4  C   UNL     1      -1.292  -1.177   1.952  0.00  0.00    +0.151 C 
ATOM      5  N   UNL     1      -1.339  -0.072   1.269  0.00  0.00    -0.348 N 
ATOM      6  C   UNL     1      -2.333  -0.015  -0.986  0.00  0.00    +0.053 C 
ATOM      7  H   UNL     1      -1.635  -2.323  -0.728  0.00  0.00    +0.147 HD
ATOM      8  H   UNL     1      -1.494   0.816   1.627  0.00  0.00    +0.163 HD
ENDROOT
BRANCH   3   9
ATOM      9  C   UNL     1      -0.955  -3.584   1.608  0.00  0.00    +0.052 A 
ATOM     10  C   UNL     1      -1.916  -4.101   2.467  0.00  0.00    +0.025 A 
ATOM     11  C   UNL     1      -1.812  -5.404   2.914  0.00  0.00    +0.002 A 
ATOM     12  C   UNL     1      -0.753  -6.194   2.506  0.00  0.00    +0.000 A 
ATOM     13  C   UNL     1       0.206  -5.682   1.651  0.00  0.00    +0.002 A 
ATOM     14  C   UNL     1       0.105  -4.382   1.196  0.00  0.00    +0.025 A 
ENDBRANCH   3   9
BRANCH   1  16
ATOM     15  C   UNL     1      -0.036   1.801  -0.572  0.00  0.00    +0.007 C 
ATOM     16  C   UNL     1       0.141   0.284  -0.669  0.00  0.00    +0.042 C 
ENDBRANCH   1  16
BRANCH   4  17
ATOM     17  S   UNL     1      -1.505  -1.265   3.699  0.00  0.00    -0.082 S 
BRANCH  17  18
ATOM     18  C   UNL     1      -1.779   0.458   4.194  0.00  0.00    +0.173 C 
BRANCH  18  19
ATOM     19  C   UNL     1      -1.978   0.526   5.687  0.00  0.00    +0.227 C 
ATOM     20  O   UNL     1      -1.940  -0.488   6.350  0.00  0.00    -0.275 OA
ATOM     21  N   UNL     1      -2.199   1.714   6.284  0.00  0.00    -0.284 N 
ATOM     22  H   UNL     1      -2.311   2.514   5.746  0.00  0.00    +0.155 HD
BRANCH  21  23
ATOM     23  C   UNL     1      -2.267   1.794   7.676  0.00  0.00    +0.041 A 
ATOM     24  C   UNL     1      -1.715   0.801   8.457  0.00  0.00    +0.024 A 
ATOM     25  C   UNL     1      -1.778   0.871   9.845  0.00  0.00    +0.002 A 
ATOM     26  C   UNL     1      -2.383   1.919  10.470  0.00  0.00    +0.008 A 
ATOM     27  C   UNL     1      -2.958   2.952   9.710  0.00  0.00    -0.016 A 
ATOM     28  C   UNL     1      -2.896   2.894   8.296  0.00  0.00    +0.003 A 
ATOM     29  C   UNL     1      -3.467   3.929   7.539  0.00  0.00    +0.010 A 
ATOM     30  C   UNL     1      -4.066   4.975   8.171  0.00  0.00    +0.001 A 
ATOM     31  C   UNL     1      -4.122   5.036   9.562  0.00  0.00    +0.001 A 
ATOM     32  C   UNL     1      -3.589   4.045  10.328  0.00  0.00    +0.008 A 
ENDBRANCH  21  23
ENDBRANCH  18  19
ENDBRANCH  17  18
ENDBRANCH   4  17
TORSDOF 6
