REMARK  Name = ZINC35746558
REMARK  14 active torsions:
REMARK  status: ('A' for Active; 'I' for Inactive)
REMARK    1  A    between atoms: C_1  and  C_2
REMARK    2  A    between atoms: C_2  and  O_3
REMARK    3  A    between atoms: O_3  and  C_4
REMARK    4  A    between atoms: C_4  and  C_6
REMARK    5  A    between atoms: C_7  and  C_37
REMARK    6  A    between atoms: C_13  and  C_17
REMARK    7  A    between atoms: C_17  and  N_18
REMARK    8  A    between atoms: N_18  and  C_19
REMARK    9  A    between atoms: N_18  and  C_26
REMARK   10  A    between atoms: C_19  and  C_20
REMARK   11  A    between atoms: C_26  and  C_27
REMARK   12  A    between atoms: C_27  and  C_29
REMARK   13  A    between atoms: C_27  and  O_36
REMARK   14  A    between atoms: C_29  and  C_30
REMARK                            x       y       z     vdW  Elec       q    Type
REMARK                         _______ _______ _______ _____ _____    ______ ____
ROOT
ATOM      1  N   UNL     1       5.154  -2.901   8.045  0.00  0.00    +0.389 N 
ATOM      2  H   UNL     1       5.640  -2.155   7.571  0.00  0.00    -0.081 HD
ENDROOT
BRANCH   1   3
ATOM      3  C   UNL     1       5.310  -4.148   7.285  0.00  0.00    -0.003 C 
BRANCH   3  11
ATOM      4  C   UNL     1       3.075  -1.835   1.839  0.00  0.00    +0.102 A 
ATOM      5  C   UNL     1       3.511  -3.115   2.029  0.00  0.00    -0.015 A 
ATOM      6  C   UNL     1       3.984  -3.509   3.282  0.00  0.00    +0.076 A 
ATOM      7  C   UNL     1       4.500  -4.828   3.714  0.00  0.00    +0.260 A 
ATOM      8  O   UNL     1       4.558  -5.763   2.935  0.00  0.00    -0.267 OA
ATOM      9  N   UNL     1       4.904  -4.967   4.992  0.00  0.00    -0.312 N 
ATOM     10  H   UNL     1       5.244  -5.825   5.292  0.00  0.00    +0.170 HD
ATOM     11  C   UNL     1       4.844  -3.934   5.868  0.00  0.00    +0.094 A 
ATOM     12  N   UNL     1       4.395  -2.759   5.519  0.00  0.00    -0.229 NA
ATOM     13  C   UNL     1       3.972  -2.514   4.286  0.00  0.00    +0.116 A 
ATOM     14  S   UNL     1       3.318  -1.094   3.445  0.00  0.00    -0.062 S 
ATOM     15  C   UNL     1       3.481  -4.100   0.888  0.00  0.00    +0.046 C 
BRANCH   4  16
ATOM     16  C   UNL     1       2.546  -1.221   0.620  0.00  0.00    +0.346 C 
ATOM     17  O   UNL     1       2.448  -1.878  -0.399  0.00  0.00    -0.244 OA
BRANCH  16  18
ATOM     18  O   UNL     1       2.168   0.074   0.626  0.00  0.00    -0.461 OA
BRANCH  18  20
ATOM     19  C   UNL     1       1.287   2.078  -0.399  0.00  0.00    +0.048 C 
ATOM     20  C   UNL     1       1.661   0.608  -0.599  0.00  0.00    +0.229 C 
ENDBRANCH  18  20
ENDBRANCH  16  18
ENDBRANCH   4  16
ENDBRANCH   3  11
ENDBRANCH   1   3
BRANCH   1  21
ATOM     21  C   UNL     1       3.727  -2.567   8.151  0.00  0.00    -0.042 C 
BRANCH  21  22
ATOM     22  C   UNL     1       2.980  -3.736   8.739  0.00  0.00    -0.064 A 
ATOM     23  C   UNL     1       2.438  -4.698   7.907  0.00  0.00    +0.002 A 
ATOM     24  C   UNL     1       1.752  -5.771   8.446  0.00  0.00    +0.000 A 
ATOM     25  C   UNL     1       1.609  -5.881   9.816  0.00  0.00    +0.000 A 
ATOM     26  C   UNL     1       2.151  -4.920  10.648  0.00  0.00    +0.000 A 
ATOM     27  C   UNL     1       2.841  -3.849  10.109  0.00  0.00    +0.002 A 
ENDBRANCH  21  22
ENDBRANCH   1  21
BRANCH   1  28
ATOM     28  C   UNL     1       5.717  -3.074   9.391  0.00  0.00    -0.046 C 
BRANCH  28  29
ATOM     29  C   UNL     1       5.895  -1.705  10.050  0.00  0.00    +0.102 C 
BRANCH  29  30
ATOM     30  O   UNL     1       4.613  -1.127  10.301  0.00  0.00    -0.393 OA
ATOM     31  H   UNL     1       4.099  -1.588  10.977  0.00  0.00    +0.210 HD
ENDBRANCH  29  30
BRANCH  29  32
ATOM     32  C   UNL     1       6.649  -1.868  11.371  0.00  0.00    +0.064 C 
BRANCH  32  33
ATOM     33  C   UNL     1       6.932  -0.510  11.959  0.00  0.00    -0.045 A 
ATOM     34  C   UNL     1       8.101   0.153  11.636  0.00  0.00    +0.004 A 
ATOM     35  C   UNL     1       8.361   1.399  12.175  0.00  0.00    +0.000 A 
ATOM     36  C   UNL     1       7.451   1.982  13.038  0.00  0.00    +0.000 A 
ATOM     37  C   UNL     1       6.282   1.319  13.361  0.00  0.00    +0.000 A 
ATOM     38  C   UNL     1       6.020   0.075  12.818  0.00  0.00    +0.004 A 
ENDBRANCH  32  33
ENDBRANCH  29  32
ENDBRANCH  28  29
ENDBRANCH   1  28
TORSDOF 12
