REMARK  Name = ZINC09334740
REMARK  8 active torsions:
REMARK  status: ('A' for Active; 'I' for Inactive)
REMARK    1  A    between atoms: C_1  and  C_2
REMARK    2  A    between atoms: C_7  and  C_8
REMARK    3  A    between atoms: C_7  and  N_61
REMARK    4  A    between atoms: C_9  and  C_19
REMARK    5  A    between atoms: N_21  and  N_22
REMARK    6  A    between atoms: C_23  and  C_24
REMARK    7  A    between atoms: C_23  and  C_25
REMARK    8  A    between atoms: C_28  and  N_31
REMARK                            x       y       z     vdW  Elec       q    Type
REMARK                         _______ _______ _______ _____ _____    ______ ____
ROOT
ATOM      1  C   UNL     1      -0.497   5.389   0.046  0.00  0.00    +0.063 A 
ATOM      2  C   UNL     1       0.764   5.914   0.053  0.00  0.00    +0.170 A 
ATOM      3  N   UNL     1       1.647   4.901   0.041  0.00  0.00    -0.124 NA
ATOM      4  N   UNL     1       1.016   3.778   0.032  0.00  0.00    -0.058 NA
ATOM      5  N   UNL     1      -0.360   4.045   0.038  0.00  0.00    -0.194 N 
ATOM      6  C   UNL     1      -1.393   3.100   0.031  0.00  0.00    +0.240 A 
ATOM      7  C   UNL     1      -1.224   1.645   0.017  0.00  0.00    +0.206 A 
ATOM      8  N   UNL     1      -2.408   1.094   0.020  0.00  0.00    -0.032 NA
ATOM      9  O   UNL     1      -3.369   2.134   0.030  0.00  0.00    -0.239 OA
ATOM     10  N   UNL     1      -2.669   3.366   0.033  0.00  0.00    -0.027 NA
ATOM     11  N   UNL     1      -0.011   0.966   0.007  0.00  0.00    -0.337 N 
ATOM     12  H   UNL     1       0.002  -0.004   0.002  0.00  0.00    +0.144 HD
ATOM     13  H   UNL     1       0.822   1.462   0.002  0.00  0.00    +0.144 HD
ENDROOT
BRANCH   2  14
ATOM     14  C   UNL     1       1.100   7.350   0.065  0.00  0.00    +0.285 C 
ATOM     15  O   UNL     1       0.213   8.182   0.075  0.00  0.00    -0.267 OA
ATOM     16  N   UNL     1       2.390   7.740   0.066  0.00  0.00    -0.201 N 
ATOM     17  H   UNL     1       3.097   7.077   0.058  0.00  0.00    +0.178 HD
BRANCH  16  18
ATOM     18  N   UNL     1       2.709   9.105   0.078  0.00  0.00    -0.184 NA
ATOM     19  C   UNL     1       3.951   9.480   0.079  0.00  0.00    +0.063 C 
ATOM     20  C   UNL     1       5.051   8.450   0.067  0.00  0.00    +0.068 C 
BRANCH  19  21
ATOM     21  C   UNL     1       4.287  10.916   0.091  0.00  0.00    -0.002 A 
ATOM     22  C   UNL     1       5.624  11.323   0.098  0.00  0.00    +0.012 A 
ATOM     23  C   UNL     1       5.934  12.665   0.103  0.00  0.00    +0.030 A 
ATOM     24  C   UNL     1       4.918  13.614   0.115  0.00  0.00    +0.088 A 
ATOM     25  C   UNL     1       3.587  13.214   0.115  0.00  0.00    +0.030 A 
ATOM     26  C   UNL     1       3.269  11.873   0.103  0.00  0.00    +0.012 A 
BRANCH  24  27
ATOM     27  N   UNL     1       5.238  14.979   0.127  0.00  0.00    -0.130 N 
ATOM     28  N   UNL     1       6.527  15.536   0.129  0.00  0.00    -0.134 NA
ATOM     29  C   UNL     1       6.358  16.837   0.142  0.00  0.00    +0.271 A 
ATOM     30  N   UNL     1       5.050  17.073   0.147  0.00  0.00    -0.116 NA
ATOM     31  N   UNL     1       4.403  15.962   0.133  0.00  0.00    -0.041 NA
ENDBRANCH  24  27
ENDBRANCH  19  21
ENDBRANCH  16  18
ENDBRANCH   2  14
BRANCH   1  32
ATOM     32  C   UNL     1      -1.792   6.161   0.050  0.00  0.00    -0.020 C 
BRANCH  32  39
ATOM     33  C   UNL     1      -3.182   8.010   5.277  0.00  0.00    +0.007 C 
ATOM     34  C   UNL     1      -2.700   7.949   3.826  0.00  0.00    -0.018 C 
ATOM     35  C   UNL     1      -3.841   7.465   2.927  0.00  0.00    -0.016 C 
ATOM     36  C   UNL     1      -3.336   7.349   1.488  0.00  0.00    -0.078 C 
ATOM     37  C   UNL     1      -1.087   6.871   2.255  0.00  0.00    -0.078 C 
ATOM     38  C   UNL     1      -1.525   6.973   3.717  0.00  0.00    -0.016 C 
ATOM     39  N   UNL     1      -2.222   6.377   1.447  0.00  0.00    +0.383 N 
ATOM     40  H   UNL     1      -2.546   5.484   1.838  0.00  0.00    -0.081 HD
ENDBRANCH  32  39
ENDBRANCH   1  32
TORSDOF 6
