REMARK  Name = ZINC10844211
REMARK  6 active torsions:
REMARK  status: ('A' for Active; 'I' for Inactive)
REMARK    1  A    between atoms: C_1  and  C_2
REMARK    2  A    between atoms: C_4  and  C_32
REMARK    3  A    between atoms: C_6  and  N_13
REMARK    4  A    between atoms: C_14  and  C_16
REMARK    5  A    between atoms: C_16  and  N_55
REMARK    6  A    between atoms: C_20  and  C_22
REMARK                            x       y       z     vdW  Elec       q    Type
REMARK                         _______ _______ _______ _____ _____    ______ ____
ROOT
ATOM      1  N   UNL     1       1.891   4.551   0.009  0.00  0.00    -0.257 N 
ATOM      2  C   UNL     1       1.456   5.826   0.021  0.00  0.00    +0.203 C 
ATOM      3  O   UNL     1       0.266   6.061   0.033  0.00  0.00    -0.277 OA
ATOM      4  H   UNL     1       2.842   4.363  -0.001  0.00  0.00    +0.158 HD
ENDROOT
BRANCH   1  10
ATOM      5  C   UNL     1      -1.291  -0.779   0.010  0.00  0.00    +0.068 C 
ATOM      6  C   UNL     1       0.002  -0.004   0.002  0.00  0.00    +0.070 A 
ATOM      7  C   UNL     1      -0.018   1.462   0.010  0.00  0.00    +0.053 A 
ATOM      8  C   UNL     1      -0.960   2.428   0.029  0.00  0.00    +0.114 A 
ATOM      9  O   UNL     1      -0.357   3.631   0.026  0.00  0.00    -0.445 OA
ATOM     10  C   UNL     1       0.979   3.508   0.012  0.00  0.00    +0.206 A 
ATOM     11  C   UNL     1       1.286   2.169   0.001  0.00  0.00    +0.110 A 
ATOM     12  C   UNL     1       2.497   1.355  -0.015  0.00  0.00    +0.277 A 
ATOM     13  O   UNL     1       3.597   1.877  -0.023  0.00  0.00    -0.266 OA
ATOM     14  N   UNL     1       2.373   0.011  -0.021  0.00  0.00    -0.242 N 
ATOM     15  H   UNL     1       3.178  -0.530  -0.031  0.00  0.00    +0.192 HD
ATOM     16  N   UNL     1       1.138  -0.631  -0.012  0.00  0.00    -0.175 NA
ATOM     17  C   UNL     1      -2.449   2.197   0.050  0.00  0.00    +0.087 C 
ENDBRANCH   1  10
BRANCH   2  18
ATOM     18  C   UNL     1       2.448   6.960   0.017  0.00  0.00    +0.020 C 
BRANCH  18  23
ATOM     19  C   UNL     1       1.069   8.462   1.332  0.00  0.00    -0.077 C 
ATOM     20  C   UNL     1       1.591   9.803   1.887  0.00  0.00    -0.020 C 
ATOM     21  C   UNL     1       2.083  10.541   0.614  0.00  0.00    -0.013 C 
ATOM     22  C   UNL     1       2.648   9.369  -0.228  0.00  0.00    -0.037 C 
ATOM     23  N   UNL     1       1.714   8.253   0.026  0.00  0.00    +0.390 N 
ATOM     24  H   UNL     1       0.997   8.236  -0.709  0.00  0.00    -0.080 HD
BRANCH  22  25
ATOM     25  C   UNL     1       2.642   9.725  -1.692  0.00  0.00    -0.057 A 
ATOM     26  C   UNL     1       1.455   9.713  -2.401  0.00  0.00    +0.006 A 
ATOM     27  C   UNL     1       1.445  10.041  -3.743  0.00  0.00    +0.049 A 
ATOM     28  C   UNL     1       2.628  10.375  -4.385  0.00  0.00    +0.162 A 
ATOM     29  C   UNL     1       3.822  10.384  -3.674  0.00  0.00    +0.162 A 
ATOM     30  C   UNL     1       3.824  10.057  -2.326  0.00  0.00    +0.051 A 
ATOM     31  O   UNL     1       4.993  10.717  -4.282  0.00  0.00    -0.485 OA
ATOM     32  C   UNL     1       5.009  10.676  -5.713  0.00  0.00    +0.270 C 
ATOM     33  C   UNL     1       3.745  11.378  -6.229  0.00  0.00    +0.270 C 
ATOM     34  O   UNL     1       2.605  10.686  -5.710  0.00  0.00    -0.485 OA
ENDBRANCH  22  25
ENDBRANCH  18  23
ENDBRANCH   2  18
TORSDOF 4
