REMARK  Name = ZINC65920854
REMARK  5 active torsions:
REMARK  status: ('A' for Active; 'I' for Inactive)
REMARK    1  A    between atoms: C_4  and  N_6
REMARK    2  A    between atoms: N_9  and  N_10
REMARK    3  A    between atoms: C_11  and  C_13
REMARK    4  A    between atoms: C_13  and  N_14
REMARK    5  A    between atoms: C_15  and  C_17
REMARK                            x       y       z     vdW  Elec       q    Type
REMARK                         _______ _______ _______ _____ _____    ______ ____
ROOT
ATOM      1  N   UNL     1       0.735  -2.627  -4.110  0.00  0.00    -0.232 N 
ATOM      2  C   UNL     1       0.535  -3.349  -5.230  0.00  0.00    +0.246 C 
ATOM      3  O   UNL     1       0.389  -4.551  -5.159  0.00  0.00    -0.273 OA
ATOM      4  H   UNL     1       0.852  -1.665  -4.167  0.00  0.00    +0.173 HD
ENDROOT
BRANCH   1   8
ATOM      5  N   UNL     1       1.136  -1.207  -1.821  0.00  0.00    -0.295 N 
ATOM      6  C   UNL     1       0.974  -2.543  -1.742  0.00  0.00    +0.316 C 
ATOM      7  O   UNL     1       1.008  -3.096  -0.660  0.00  0.00    -0.251 OA
ATOM      8  N   UNL     1       0.774  -3.265  -2.863  0.00  0.00    -0.218 N 
ATOM      9  H   UNL     1       1.109  -0.765  -2.685  0.00  0.00    +0.151 HD
ATOM     10  H   UNL     1       0.658  -4.226  -2.806  0.00  0.00    +0.174 HD
BRANCH   5  14
ATOM     11  C   UNL     1      -0.019   1.538   0.011  0.00  0.00    +0.002 C 
ATOM     12  C   UNL     1       1.477   1.939  -0.002  0.00  0.00    +0.002 C 
ATOM     13  C   UNL     1       2.107   0.881  -0.942  0.00  0.00    +0.022 C 
ATOM     14  C   UNL     1       1.353  -0.422  -0.604  0.00  0.00    +0.074 C 
ATOM     15  C   UNL     1       0.002  -0.004   0.002  0.00  0.00    +0.022 C 
ENDBRANCH   5  14
ENDBRANCH   1   8
BRANCH   2  16
ATOM     16  C   UNL     1       0.493  -2.663  -6.571  0.00  0.00    +0.201 C 
BRANCH  16  17
ATOM     17  N   UNL     1       0.265  -3.658  -7.622  0.00  0.00    -0.306 N 
ATOM     18  C   UNL     1       0.190  -3.272  -8.911  0.00  0.00    +0.220 C 
ATOM     19  O   UNL     1       0.310  -2.100  -9.201  0.00  0.00    -0.275 OA
ATOM     20  H   UNL     1       0.168  -4.595  -7.390  0.00  0.00    +0.149 HD
BRANCH  18  21
ATOM     21  C   UNL     1      -0.045  -4.296  -9.992  0.00  0.00    +0.048 C 
ATOM     22  C   UNL     1       1.091  -5.320  -9.979  0.00  0.00    +0.019 C 
ATOM     23  C   UNL     1       0.854  -6.360 -11.076  0.00  0.00    -0.009 C 
ATOM     24  C   UNL     1       0.810  -5.663 -12.437  0.00  0.00    +0.007 C 
ATOM     25  C   UNL     1      -0.326  -4.638 -12.450  0.00  0.00    -0.009 C 
ATOM     26  C   UNL     1      -0.088  -3.599 -11.353  0.00  0.00    +0.019 C 
ATOM     27  C   UNL     1      -1.657  -5.350 -12.199  0.00  0.00    +0.007 C 
ATOM     28  C   UNL     1      -1.614  -6.046 -10.838  0.00  0.00    -0.009 C 
ATOM     29  C   UNL     1      -0.478  -7.071 -10.825  0.00  0.00    +0.007 C 
ATOM     30  C   UNL     1      -1.376  -5.007  -9.740  0.00  0.00    +0.019 C 
ENDBRANCH  18  21
ENDBRANCH  16  17
ENDBRANCH   2  16
TORSDOF 5
