REMARK  Name = ZINC04635158
REMARK  13 active torsions:
REMARK  status: ('A' for Active; 'I' for Inactive)
REMARK    1  A    between atoms: C_1  and  N_2
REMARK    2  A    between atoms: N_2  and  C_3
REMARK    3  A    between atoms: N_2  and  C_4
REMARK    4  A    between atoms: C_7  and  C_10
REMARK    5  A    between atoms: C_12  and  C_23
REMARK    6  A    between atoms: C_13  and  O_22
REMARK    7  A    between atoms: N_16  and  C_17
REMARK    8  A    between atoms: C_17  and  C_18
REMARK    9  A    between atoms: C_18  and  N_56
REMARK   10  A    between atoms: C_19  and  C_20
REMARK   11  A    between atoms: C_19  and  N_56
REMARK   12  A    between atoms: C_20  and  O_21
REMARK   13  A    between atoms: C_23  and  C_25
REMARK                            x       y       z     vdW  Elec       q    Type
REMARK                         _______ _______ _______ _____ _____    ______ ____
ROOT
ATOM      1  C   UNL     1      -5.746   2.430   3.879  0.00  0.00    +0.144 C 
ATOM      2  C   UNL     1      -6.194   2.436   5.322  0.00  0.00    +0.071 C 
ATOM      3  C   UNL     1      -5.684   1.320   5.894  0.00  0.00    +0.188 C 
ATOM      4  C   UNL     1      -4.916   0.564   4.883  0.00  0.00    +0.282 C 
ATOM      5  O   UNL     1      -4.342  -0.487   5.086  0.00  0.00    -0.267 OA
ATOM      6  N   UNL     1      -4.945   1.213   3.705  0.00  0.00    -0.285 N 
ENDROOT
BRANCH   1  10
ATOM      7  C   UNL     1      -3.366   5.885   3.064  0.00  0.00    +0.029 A 
ATOM      8  C   UNL     1      -4.633   5.765   2.506  0.00  0.00    +0.023 A 
ATOM      9  C   UNL     1      -5.399   4.647   2.772  0.00  0.00    +0.007 A 
ATOM     10  C   UNL     1      -4.907   3.648   3.592  0.00  0.00    -0.022 A 
ATOM     11  C   UNL     1      -3.649   3.767   4.153  0.00  0.00    +0.007 A 
ATOM     12  C   UNL     1      -2.875   4.880   3.887  0.00  0.00    +0.023 A 
BRANCH   7  14
ATOM     13  C   UNL     1      -3.049   8.008   1.825  0.00  0.00    +0.129 C 
ATOM     14  N   UNL     1      -2.588   7.014   2.797  0.00  0.00    -0.336 N 
ATOM     15  C   UNL     1      -1.312   7.204   3.490  0.00  0.00    +0.129 C 
ENDBRANCH   7  14
ENDBRANCH   1  10
BRANCH   3  16
ATOM     16  O   UNL     1      -5.856   0.953   7.185  0.00  0.00    -0.502 OA
ATOM     17  H   UNL     1      -5.378   0.090   7.352  0.00  0.00    +0.292 HD
ENDBRANCH   3  16
BRANCH   2  18
ATOM     18  C   UNL     1      -7.020   3.455   5.977  0.00  0.00    +0.195 C 
ATOM     19  O   UNL     1      -6.551   4.141   6.866  0.00  0.00    -0.287 OA
BRANCH  18  20
ATOM     20  C   UNL     1      -8.424   3.648   5.558  0.00  0.00    +0.022 A 
ATOM     21  C   UNL     1      -8.999   2.792   4.615  0.00  0.00    +0.013 A 
ATOM     22  C   UNL     1     -10.311   2.974   4.233  0.00  0.00    +0.021 A 
ATOM     23  C   UNL     1     -11.056   4.011   4.772  0.00  0.00    +0.041 A 
ATOM     24  C   UNL     1     -10.489   4.867   5.702  0.00  0.00    +0.021 A 
ATOM     25  C   UNL     1      -9.180   4.692   6.098  0.00  0.00    +0.013 A 
ATOM     26 CL   UNL     1     -12.704   4.238   4.279  0.00  0.00    -0.084 Cl
ENDBRANCH  18  20
ENDBRANCH   2  18
BRANCH   6  27
ATOM     27  C   UNL     1      -4.297   0.778   2.465  0.00  0.00    +0.090 C 
BRANCH  27  28
ATOM     28  C   UNL     1      -2.882   1.356   2.399  0.00  0.00    -0.063 C 
BRANCH  28  29
ATOM     29  N   UNL     1      -2.237   0.914   1.148  0.00  0.00    +0.382 N 
ATOM     30  H   UNL     1      -2.788   1.246   0.347  0.00  0.00    -0.086 HD
ATOM     31  H   UNL     1      -2.196  -0.112   1.133  0.00  0.00    -0.086 HD
BRANCH  29  32
ATOM     32  C   UNL     1      -0.869   1.458   1.057  0.00  0.00    -0.054 C 
BRANCH  32  33
ATOM     33  C   UNL     1      -0.226   0.983  -0.247  0.00  0.00    +0.137 C 
BRANCH  33  34
ATOM     34  O   UNL     1      -0.933   1.541  -1.357  0.00  0.00    -0.397 OA
ATOM     35  H   UNL     1      -0.580   1.282  -2.219  0.00  0.00    +0.209 HD
ENDBRANCH  33  34
ENDBRANCH  32  33
ENDBRANCH  29  32
ENDBRANCH  28  29
ENDBRANCH  27  28
ENDBRANCH   6  27
TORSDOF 11
