REMARK  Name = ZINC12458597
REMARK  9 active torsions:
REMARK  status: ('A' for Active; 'I' for Inactive)
REMARK    1  A    between atoms: C_1  and  C_2
REMARK    2  A    between atoms: C_2  and  C_3
REMARK    3  A    between atoms: C_2  and  C_4
REMARK    4  A    between atoms: C_2  and  C_5
REMARK    5  A    between atoms: C_8  and  N_11
REMARK    6  A    between atoms: C_16  and  N_65
REMARK    7  A    between atoms: C_21  and  C_22
REMARK    8  A    between atoms: C_21  and  N_65
REMARK    9  A    between atoms: C_25  and  N_28
REMARK                            x       y       z     vdW  Elec       q    Type
REMARK                         _______ _______ _______ _____ _____    ______ ____
ROOT
ATOM      1  N   UNL     1       1.547   1.661   0.400  0.00  0.00    -0.237 N 
ATOM      2  C   UNL     1       0.257   1.320   0.230  0.00  0.00    +0.047 A 
ATOM      3  C   UNL     1       0.191  -0.034   0.158  0.00  0.00    -0.020 A 
ATOM      4  C   UNL     1       1.486  -0.535   0.287  0.00  0.00    +0.137 A 
ATOM      5  N   UNL     1       2.303   0.480   0.432  0.00  0.00    -0.174 NA
ATOM      6  C   UNL     1      -1.088  -0.811  -0.028  0.00  0.00    -0.037 C 
ATOM      7  C   UNL     1      -2.267   0.115   0.297  0.00  0.00    -0.011 C 
ATOM      8  C   UNL     1      -2.107   1.433  -0.466  0.00  0.00    +0.005 C 
ATOM      9  C   UNL     1      -0.940   2.231   0.125  0.00  0.00    +0.056 C 
ENDROOT
BRANCH   1  13
ATOM     10  C   UNL     1       3.034   5.538   0.767  0.00  0.00    -0.042 A 
ATOM     11  C   UNL     1       1.866   5.183   1.415  0.00  0.00    +0.006 A 
ATOM     12  C   UNL     1       1.371   3.900   1.296  0.00  0.00    +0.028 A 
ATOM     13  C   UNL     1       2.047   2.965   0.524  0.00  0.00    +0.066 A 
ATOM     14  C   UNL     1       3.223   3.323  -0.122  0.00  0.00    +0.028 A 
ATOM     15  C   UNL     1       3.710   4.610  -0.004  0.00  0.00    +0.006 A 
BRANCH  10  17
ATOM     16  C   UNL     1       3.860   7.239   2.372  0.00  0.00    +0.015 C 
ATOM     17  C   UNL     1       3.572   6.940   0.899  0.00  0.00    -0.013 C 
ATOM     18  C   UNL     1       4.864   7.069   0.090  0.00  0.00    +0.015 C 
ATOM     19  C   UNL     1       2.537   7.935   0.370  0.00  0.00    +0.015 C 
ENDBRANCH  10  17
ENDBRANCH   1  13
BRANCH   6  20
ATOM     20  N   UNL     1      -1.107  -1.966   0.889  0.00  0.00    +0.386 N 
ATOM     21  H   UNL     1      -2.080  -2.233   1.079  0.00  0.00    -0.085 HD
ATOM     22  H   UNL     1      -0.645  -1.708   1.769  0.00  0.00    -0.085 HD
BRANCH  20  23
ATOM     23  C   UNL     1      -0.398  -3.110   0.285  0.00  0.00    -0.046 C 
BRANCH  23  24
ATOM     24  C   UNL     1      -0.433  -4.274   1.243  0.00  0.00    -0.064 A 
ATOM     25  C   UNL     1       0.580  -4.435   2.171  0.00  0.00    +0.003 A 
ATOM     26  C   UNL     1       0.548  -5.497   3.052  0.00  0.00    +0.024 A 
ATOM     27  C   UNL     1      -0.497  -6.410   3.000  0.00  0.00    +0.038 A 
ATOM     28  C   UNL     1      -1.510  -6.249   2.063  0.00  0.00    +0.024 A 
ATOM     29  C   UNL     1      -1.475  -5.181   1.188  0.00  0.00    +0.003 A 
BRANCH  27  30
ATOM     30  N   UNL     1      -0.529  -7.491   3.888  0.00  0.00    -0.254 N 
ATOM     31  C   UNL     1       0.414  -7.713   4.994  0.00  0.00    +0.134 C 
ATOM     32  C   UNL     1      -0.075  -9.024   5.639  0.00  0.00    +0.125 C 
ATOM     33  N   UNL     1      -1.237  -9.407   4.822  0.00  0.00    -0.297 N 
ATOM     34  C   UNL     1      -1.420  -8.491   3.862  0.00  0.00    +0.307 C 
ATOM     35  O   UNL     1      -2.315  -8.561   3.042  0.00  0.00    -0.252 OA
ATOM     36  H   UNL     1      -1.783 -10.197   4.957  0.00  0.00    +0.150 HD
ENDBRANCH  27  30
ENDBRANCH  23  24
ENDBRANCH  20  23
ENDBRANCH   6  20
TORSDOF 6
