REMARK  Name = ZINC13639871
REMARK  6 active torsions:
REMARK  status: ('A' for Active; 'I' for Inactive)
REMARK    1  A    between atoms: C_1  and  C_2
REMARK    2  A    between atoms: N_5  and  S_8
REMARK    3  A    between atoms: S_8  and  C_11
REMARK    4  A    between atoms: C_24  and  C_27
REMARK    5  A    between atoms: C_30  and  O_34
REMARK    6  A    between atoms: C_32  and  O_33
REMARK                            x       y       z     vdW  Elec       q    Type
REMARK                         _______ _______ _______ _____ _____    ______ ____
ROOT
ATOM      1  C   UNL     1      -5.236   3.229   1.975  0.00  0.00    +0.106 A 
ATOM      2  C   UNL     1      -4.964   3.200   3.331  0.00  0.00    +0.030 A 
ATOM      3  C   UNL     1      -3.812   2.600   3.794  0.00  0.00    +0.025 A 
ATOM      4  C   UNL     1      -2.915   2.021   2.903  0.00  0.00    +0.031 A 
ATOM      5  C   UNL     1      -3.189   2.058   1.538  0.00  0.00    -0.018 A 
ATOM      6  C   UNL     1      -4.354   2.651   1.081  0.00  0.00    +0.034 A 
ATOM      7  C   UNL     1      -2.234   1.398   0.620  0.00  0.00    +0.049 C 
ATOM      8  C   UNL     1      -2.088   1.820  -0.796  0.00  0.00    -0.023 C 
ATOM      9  C   UNL     1      -0.827   1.630  -1.167  0.00  0.00    -0.030 C 
ATOM     10  C   UNL     1      -0.013   1.086   0.008  0.00  0.00    +0.033 C 
ATOM     11  C   UNL     1      -0.807   1.618   1.208  0.00  0.00    +0.029 C 
ATOM     12  C   UNL     1      -0.764   0.800   2.486  0.00  0.00    +0.108 C 
ATOM     13  N   UNL     1      -1.744   1.433   3.396  0.00  0.00    -0.336 N 
ATOM     14  H   UNL     1      -1.573   1.440   4.351  0.00  0.00    +0.147 HD
ENDROOT
BRANCH  12  15
ATOM     15  C   UNL     1      -1.157  -0.627   2.204  0.00  0.00    +0.015 A 
ATOM     16  C   UNL     1      -2.464  -1.034   2.393  0.00  0.00    +0.012 A 
ATOM     17  C   UNL     1      -2.828  -2.341   2.131  0.00  0.00    +0.046 A 
ATOM     18  C   UNL     1      -1.879  -3.251   1.687  0.00  0.00    +0.120 A 
ATOM     19  C   UNL     1      -0.566  -2.847   1.501  0.00  0.00    +0.091 A 
ATOM     20  C   UNL     1      -0.204  -1.533   1.760  0.00  0.00    +0.125 A 
BRANCH  20  21
ATOM     21  O   UNL     1       1.082  -1.134   1.579  0.00  0.00    -0.506 OA
ATOM     22  H   UNL     1       1.639  -1.234   2.363  0.00  0.00    +0.292 HD
ENDBRANCH  20  21
BRANCH  18  23
ATOM     23  O   UNL     1      -2.236  -4.537   1.433  0.00  0.00    -0.507 OA
ATOM     24  H   UNL     1      -2.155  -5.126   2.196  0.00  0.00    +0.292 HD
ENDBRANCH  18  23
ENDBRANCH  12  15
BRANCH   1  25
ATOM     25  S   UNL     1      -6.705   4.004   1.387  0.00  0.00    +0.061 S 
ATOM     26  O   UNL     1      -6.997   3.419   0.125  0.00  0.00    -0.153 OA
ATOM     27  O   UNL     1      -7.631   3.991   2.465  0.00  0.00    -0.153 OA
BRANCH  25  32
ATOM     28  C   UNL     1      -7.622   9.440  -0.191  0.00  0.00    +0.007 C 
ATOM     29  C   UNL     1      -6.768   8.280   0.324  0.00  0.00    -0.012 C 
ATOM     30  C   UNL     1      -6.734   7.166  -0.725  0.00  0.00    +0.020 C 
ATOM     31  C   UNL     1      -5.851   6.021  -0.220  0.00  0.00    +0.110 C 
ATOM     32  N   UNL     1      -6.339   5.593   1.098  0.00  0.00    -0.177 NA
ATOM     33  C   UNL     1      -6.501   6.603   2.153  0.00  0.00    +0.110 C 
ATOM     34  C   UNL     1      -7.372   7.741   1.623  0.00  0.00    +0.020 C 
ENDBRANCH  25  32
ENDBRANCH   1  25
TORSDOF 5
