REMARK  Name = ZINC39691319
REMARK  9 active torsions:
REMARK  status: ('A' for Active; 'I' for Inactive)
REMARK    1  A    between atoms: C_1  and  O_2
REMARK    2  A    between atoms: O_2  and  C_3
REMARK    3  A    between atoms: C_7  and  C_9
REMARK    4  A    between atoms: C_13  and  C_22
REMARK    5  A    between atoms: N_24  and  C_25
REMARK    6  A    between atoms: C_25  and  C_26
REMARK    7  A    between atoms: C_26  and  N_27
REMARK    8  A    between atoms: C_28  and  C_30
REMARK    9  A    between atoms: C_30  and  C_31
REMARK                            x       y       z     vdW  Elec       q    Type
REMARK                         _______ _______ _______ _____ _____    ______ ____
ROOT
ATOM      1  C   UNL     1       1.394  -4.110   2.223  0.00  0.00    +0.247 C 
ATOM      2  O   UNL     1       0.800  -4.784   1.404  0.00  0.00    -0.270 OA
ATOM      3  N   UNL     1       2.102  -4.709   3.201  0.00  0.00    -0.296 N 
ATOM      4  C   UNL     1       2.779  -4.069   4.354  0.00  0.00    +0.121 C 
ATOM      5  C   UNL     1       2.526  -5.030   5.537  0.00  0.00    +0.100 C 
ATOM      6  C   UNL     1       2.266  -6.397   4.884  0.00  0.00    -0.004 C 
ATOM      7  C   UNL     1       2.373  -6.156   3.371  0.00  0.00    +0.115 C 
ATOM      8  C   UNL     1       0.867  -6.893   5.235  0.00  0.00    -0.010 C 
ATOM      9  C   UNL     1       0.653  -8.280   4.622  0.00  0.00    -0.082 C 
ATOM     10  N   UNL     1       1.667  -9.207   5.138  0.00  0.00    +0.379 N 
ATOM     11  C   UNL     1       3.004  -8.773   4.717  0.00  0.00    -0.082 C 
ATOM     12  C   UNL     1       3.317  -7.407   5.335  0.00  0.00    -0.010 C 
ATOM     13  H   UNL     1       1.622  -9.225   6.146  0.00  0.00    -0.086 HD
ATOM     14  H   UNL     1       1.487 -10.133   4.780  0.00  0.00    -0.086 HD
ENDROOT
BRANCH   1  19
ATOM     15  C   UNL     1       2.305  -0.485   2.629  0.00  0.00    +0.121 A 
ATOM     16  C   UNL     1       1.233   0.132   2.000  0.00  0.00    +0.045 A 
ATOM     17  C   UNL     1       0.219  -0.627   1.446  0.00  0.00    +0.004 A 
ATOM     18  C   UNL     1       0.266  -2.005   1.515  0.00  0.00    +0.013 A 
ATOM     19  C   UNL     1       1.340  -2.635   2.146  0.00  0.00    +0.040 A 
ATOM     20  C   UNL     1       2.366  -1.867   2.699  0.00  0.00    +0.058 A 
BRANCH  15  22
ATOM     21  C   UNL     1       3.172   1.686   3.063  0.00  0.00    +0.277 C 
ATOM     22  O   UNL     1       3.299   0.267   3.172  0.00  0.00    -0.495 OA
ENDBRANCH  15  22
ENDBRANCH   1  19
BRANCH   5  23
ATOM     23  C   UNL     1       1.322  -4.585   6.327  0.00  0.00    +0.218 C 
ATOM     24  O   UNL     1       0.379  -4.077   5.758  0.00  0.00    -0.275 OA
ATOM     25  N   UNL     1       1.294  -4.751   7.664  0.00  0.00    -0.314 N 
ATOM     26  H   UNL     1       2.048  -5.157   8.118  0.00  0.00    +0.149 HD
BRANCH  25  27
ATOM     27  C   UNL     1       0.123  -4.319   8.431  0.00  0.00    +0.123 C 
BRANCH  27  28
ATOM     28  C   UNL     1       0.346  -4.620   9.914  0.00  0.00    +0.123 C 
BRANCH  28  29
ATOM     29  N   UNL     1      -0.825  -4.188  10.681  0.00  0.00    -0.314 N 
ATOM     30  C   UNL     1      -0.854  -4.354  12.019  0.00  0.00    +0.217 C 
ATOM     31  O   UNL     1       0.090  -4.862  12.587  0.00  0.00    -0.275 OA
ATOM     32  H   UNL     1      -1.580  -3.781  10.227  0.00  0.00    +0.149 HD
BRANCH  30  33
ATOM     33  C   UNL     1      -2.058  -3.909  12.808  0.00  0.00    +0.131 C 
BRANCH  33  34
ATOM     34  C   UNL     1      -1.839  -4.206  14.269  0.00  0.00    -0.031 A 
ATOM     35  C   UNL     1      -2.310  -5.362  14.811  0.00  0.00    +0.005 A 
ATOM     36  C   UNL     1      -2.117  -5.653  16.160  0.00  0.00    +0.001 A 
ATOM     37  C   UNL     1      -1.452  -4.790  16.975  0.00  0.00    +0.008 A 
ATOM     38  C   UNL     1      -0.950  -3.586  16.451  0.00  0.00    -0.018 A 
ATOM     39  C   UNL     1      -1.141  -3.293  15.078  0.00  0.00    -0.014 A 
ATOM     40  C   UNL     1      -0.635  -2.091  14.553  0.00  0.00    +0.009 A 
ATOM     41  C   UNL     1       0.036  -1.231  15.367  0.00  0.00    +0.001 A 
ATOM     42  C   UNL     1       0.229  -1.522  16.716  0.00  0.00    +0.001 A 
ATOM     43  C   UNL     1      -0.259  -2.670  17.262  0.00  0.00    +0.008 A 
ENDBRANCH  33  34
ENDBRANCH  30  33
ENDBRANCH  28  29
ENDBRANCH  27  28
ENDBRANCH  25  27
ENDBRANCH   5  23
TORSDOF 8
