REMARK  Name = ZINC27400093
REMARK  8 active torsions:
REMARK  status: ('A' for Active; 'I' for Inactive)
REMARK    1  A    between atoms: C_1  and  C_2
REMARK    2  A    between atoms: C_2  and  C_3
REMARK    3  A    between atoms: C_3  and  C_24
REMARK    4  A    between atoms: N_6  and  C_10
REMARK    5  A    between atoms: C_10  and  C_11
REMARK    6  A    between atoms: N_13  and  C_14
REMARK    7  A    between atoms: C_19  and  C_20
REMARK    8  A    between atoms: N_22  and  C_23
REMARK                            x       y       z     vdW  Elec       q    Type
REMARK                         _______ _______ _______ _____ _____    ______ ____
ROOT
ATOM      1  C   UNL     1      -1.439  -0.537   0.021  0.00  0.00    +0.138 C 
ATOM      2  C   UNL     1      -2.196  -0.055  -1.201  0.00  0.00    +0.251 C 
ATOM      3  O   UNL     1      -1.939  -0.292  -2.362  0.00  0.00    -0.272 OA
ATOM      4  N   UNL     1      -3.213   0.691  -0.728  0.00  0.00    -0.215 N 
ATOM      5  C   UNL     1      -3.205   0.747   0.609  0.00  0.00    +0.310 C 
ATOM      6  O   UNL     1      -4.024   1.360   1.264  0.00  0.00    -0.252 OA
ATOM      7  N   UNL     1      -2.188   0.048   1.146  0.00  0.00    -0.281 N 
ATOM      8  H   UNL     1      -1.988  -0.051   2.090  0.00  0.00    +0.152 HD
ENDROOT
BRANCH   1   9
ATOM      9  C   UNL     1      -1.456  -2.042   0.099  0.00  0.00    -0.015 A 
ATOM     10  C   UNL     1      -0.420  -2.775  -0.451  0.00  0.00    +0.006 A 
ATOM     11  C   UNL     1      -0.435  -4.155  -0.379  0.00  0.00    +0.000 A 
ATOM     12  C   UNL     1      -1.486  -4.803   0.242  0.00  0.00    +0.000 A 
ATOM     13  C   UNL     1      -2.521  -4.071   0.793  0.00  0.00    +0.000 A 
ATOM     14  C   UNL     1      -2.504  -2.690   0.725  0.00  0.00    +0.006 A 
ENDBRANCH   1   9
BRANCH   1  16
ATOM     15  C   UNL     1      -0.012   1.513  -0.004  0.00  0.00    +0.007 C 
ATOM     16  C   UNL     1      -0.000  -0.017   0.003  0.00  0.00    +0.037 C 
ENDBRANCH   1  16
BRANCH   4  17
ATOM     17  C   UNL     1      -4.205   1.360  -1.573  0.00  0.00    +0.214 C 
BRANCH  17  18
ATOM     18  C   UNL     1      -5.370   0.432  -1.811  0.00  0.00    +0.235 C 
ATOM     19  O   UNL     1      -5.370  -0.677  -1.322  0.00  0.00    -0.274 OA
ATOM     20  N   UNL     1      -6.410   0.837  -2.566  0.00  0.00    -0.284 N 
ATOM     21  H   UNL     1      -6.448   1.750  -2.890  0.00  0.00    +0.155 HD
BRANCH  20  22
ATOM     22  C   UNL     1      -7.431  -0.057  -2.881  0.00  0.00    +0.046 A 
ATOM     23  C   UNL     1      -7.181  -1.423  -2.900  0.00  0.00    +0.024 A 
ATOM     24  C   UNL     1      -8.194  -2.307  -3.213  0.00  0.00    +0.002 A 
ATOM     25  C   UNL     1      -9.465  -1.841  -3.509  0.00  0.00    +0.001 A 
ATOM     26  C   UNL     1      -9.731  -0.489  -3.495  0.00  0.00    +0.015 A 
ATOM     27  C   UNL     1      -8.718   0.417  -3.175  0.00  0.00    +0.058 A 
BRANCH  27  28
ATOM     28  C   UNL     1      -8.998   1.866  -3.151  0.00  0.00    +0.246 C 
ATOM     29  O   UNL     1      -8.093   2.657  -2.966  0.00  0.00    -0.270 OA
ATOM     30  N   UNL     1     -10.256   2.312  -3.336  0.00  0.00    -0.314 N 
ATOM     31  C   UNL     1     -10.534   3.750  -3.312  0.00  0.00    +0.128 C 
ATOM     32  H   UNL     1     -10.977   1.681  -3.483  0.00  0.00    +0.149 HD
ENDBRANCH  27  28
ENDBRANCH  20  22
ENDBRANCH  17  18
ENDBRANCH   4  17
TORSDOF 6
