REMARK  Name = ZINC20573551
REMARK  5 active torsions:
REMARK  status: ('A' for Active; 'I' for Inactive)
REMARK    1  A    between atoms: C_1  and  C_2
REMARK    2  A    between atoms: C_5  and  C_9
REMARK    3  A    between atoms: C_7  and  C_8
REMARK    4  A    between atoms: N_11  and  C_12
REMARK    5  A    between atoms: C_12  and  C_13
REMARK                            x       y       z     vdW  Elec       q    Type
REMARK                         _______ _______ _______ _____ _____    ______ ____
ROOT
ATOM      1  C   UNL     1       0.083  -6.878  -2.624  0.00  0.00    +0.233 C 
ATOM      2  O   UNL     1       0.068  -6.085  -3.541  0.00  0.00    -0.274 OA
ATOM      3  N   UNL     1       0.100  -8.202  -2.877  0.00  0.00    -0.300 N 
ATOM      4  C   UNL     1       0.113  -9.175  -1.777  0.00  0.00    +0.110 C 
ATOM      5  C   UNL     1       1.294 -10.130  -1.977  0.00  0.00    +0.047 C 
ATOM      6  C   UNL     1       1.209 -10.755  -3.370  0.00  0.00    +0.064 C 
ATOM      7  C   UNL     1       1.286  -9.660  -4.434  0.00  0.00    +0.047 C 
ATOM      8  C   UNL     1       0.100  -8.699  -4.260  0.00  0.00    +0.110 C 
ATOM      9  C   UNL     1       2.341 -11.729  -3.558  0.00  0.00    +0.057 A 
ATOM     10  C   UNL     1       2.192 -13.072  -3.493  0.00  0.00    +0.039 A 
ATOM     11  N   UNL     1       3.384 -13.630  -3.707  0.00  0.00    -0.349 N 
ATOM     12  C   UNL     1       4.269 -12.688  -3.902  0.00  0.00    +0.171 A 
ATOM     13  N   UNL     1       3.653 -11.486  -3.816  0.00  0.00    -0.348 N 
ATOM     14  H   UNL     1       4.069 -10.615  -3.918  0.00  0.00    +0.166 HD
ATOM     15  C   UNL     1       0.867 -13.741  -3.217  0.00  0.00    +0.070 C 
ATOM     16  C   UNL     1      -0.088 -12.680  -2.652  0.00  0.00    +0.088 C 
ATOM     17  N   UNL     1      -0.062 -11.484  -3.505  0.00  0.00    -0.305 NA
ATOM     18  H   UNL     1      -0.847 -10.882  -3.307  0.00  0.00    +0.123 HD
ATOM     19  H   UNL     1       3.565 -14.583  -3.717  0.00  0.00    +0.166 HD
ENDROOT
BRANCH   1  20
ATOM     20  C   UNL     1       0.084  -6.384  -1.200  0.00  0.00    +0.200 C 
BRANCH  20  23
ATOM     21  C   UNL     1       0.061  -4.251  -0.021  0.00  0.00    +0.244 C 
ATOM     22  O   UNL     1       0.074  -4.865   1.028  0.00  0.00    -0.270 OA
ATOM     23  N   UNL     1       0.064  -4.919  -1.192  0.00  0.00    -0.303 N 
ATOM     24  H   UNL     1       0.053  -4.429  -2.030  0.00  0.00    +0.150 HD
BRANCH  21  29
ATOM     25  C   UNL     1      -0.018   1.503   0.010  0.00  0.00    +0.044 C 
ATOM     26  C   UNL     1       0.002  -0.004   0.002  0.00  0.00    -0.047 A 
ATOM     27  C   UNL     1       0.006  -0.686  -1.202  0.00  0.00    +0.004 A 
ATOM     28  C   UNL     1       0.025  -2.066  -1.216  0.00  0.00    +0.013 A 
ATOM     29  C   UNL     1       0.041  -2.773  -0.013  0.00  0.00    +0.037 A 
ATOM     30  C   UNL     1       0.037  -2.079   1.197  0.00  0.00    +0.016 A 
ATOM     31  C   UNL     1       0.023  -0.699   1.198  0.00  0.00    -0.047 A 
ATOM     32  C   UNL     1       0.025   0.052   2.504  0.00  0.00    +0.044 C 
ENDBRANCH  21  29
ENDBRANCH  20  23
ENDBRANCH   1  20
TORSDOF 3
