REMARK  Name = ZINC10436548
REMARK  6 active torsions:
REMARK  status: ('A' for Active; 'I' for Inactive)
REMARK    1  A    between atoms: C_1  and  C_2
REMARK    2  A    between atoms: C_2  and  O_3
REMARK    3  A    between atoms: O_3  and  C_4
REMARK    4  A    between atoms: C_7  and  C_11
REMARK    5  A    between atoms: C_11  and  N_47
REMARK    6  A    between atoms: C_12  and  N_47
REMARK                            x       y       z     vdW  Elec       q    Type
REMARK                         _______ _______ _______ _____ _____    ______ ____
ROOT
ATOM      1  N   UNL     1      -1.505   5.091   0.051  0.00  0.00    +0.385 N 
ATOM      2  H   UNL     1      -1.983   5.415   0.900  0.00  0.00    -0.085 HD
ATOM      3  H   UNL     1      -0.539   5.440   0.048  0.00  0.00    -0.085 HD
ENDROOT
BRANCH   1   4
ATOM      4  C   UNL     1      -1.490   3.616   0.036  0.00  0.00    -0.067 C 
ATOM      5  C   UNL     1      -0.773   3.123  -1.223  0.00  0.00    -0.009 C 
ATOM      6  C   UNL     1      -0.753   1.593  -1.232  0.00  0.00    -0.012 C 
ATOM      7  C   UNL     1      -0.013   1.086   0.008  0.00  0.00    +0.007 C 
ATOM      8  C   UNL     1      -0.729   1.579   1.267  0.00  0.00    -0.012 C 
ATOM      9  C   UNL     1      -0.750   3.109   1.275  0.00  0.00    -0.009 C 
ATOM     10  C   UNL     1      -2.164   1.050   1.278  0.00  0.00    +0.007 C 
ATOM     11  C   UNL     1      -2.904   1.556   0.038  0.00  0.00    -0.012 C 
ATOM     12  C   UNL     1      -2.188   1.063  -1.221  0.00  0.00    +0.007 C 
ATOM     13  C   UNL     1      -2.925   3.086   0.047  0.00  0.00    -0.009 C 
ENDBRANCH   1   4
BRANCH   1  14
ATOM     14  C   UNL     1      -2.214   5.608  -1.135  0.00  0.00    -0.046 C 
BRANCH  14  18
ATOM     15  C   UNL     1      -2.214   9.881  -1.014  0.00  0.00    +0.157 A 
ATOM     16  C   UNL     1      -1.180   9.204  -1.644  0.00  0.00    +0.084 A 
ATOM     17  C   UNL     1      -1.182   7.822  -1.681  0.00  0.00    +0.025 A 
ATOM     18  C   UNL     1      -2.214   7.115  -1.091  0.00  0.00    -0.061 A 
ATOM     19  C   UNL     1      -3.248   7.787  -0.468  0.00  0.00    +0.025 A 
ATOM     20  C   UNL     1      -3.248   9.169  -0.423  0.00  0.00    +0.084 A 
ATOM     21 CL   UNL     1      -4.544  10.012   0.366  0.00  0.00    -0.080 Cl
ATOM     22 CL   UNL     1       0.116  10.091  -2.384  0.00  0.00    -0.080 Cl
BRANCH  15  23
ATOM     23  O   UNL     1      -2.215  11.240  -0.976  0.00  0.00    -0.489 OA
BRANCH  23  25
ATOM     24  C   UNL     1      -2.760  13.431  -1.838  0.00  0.00    +0.048 C 
ATOM     25  C   UNL     1      -2.862  11.920  -2.053  0.00  0.00    +0.226 C 
ENDBRANCH  23  25
ENDBRANCH  15  23
ENDBRANCH  14  18
ENDBRANCH   1  14
TORSDOF 5
