REMARK  Name = ZINC64357467
REMARK  8 active torsions:
REMARK  status: ('A' for Active; 'I' for Inactive)
REMARK    1  A    between atoms: C_1  and  O_2
REMARK    2  A    between atoms: O_2  and  C_3
REMARK    3  A    between atoms: C_3  and  C_5
REMARK    4  A    between atoms: C_5  and  C_7
REMARK    5  A    between atoms: C_5  and  N_17
REMARK    6  A    between atoms: C_7  and  C_8
REMARK    7  A    between atoms: C_18  and  C_20
REMARK    8  A    between atoms: C_23  and  N_30
REMARK                            x       y       z     vdW  Elec       q    Type
REMARK                         _______ _______ _______ _____ _____    ______ ____
ROOT
ATOM      1  N   UNL     1      -2.643  -2.570   0.013  0.00  0.00    -0.297 N 
ATOM      2  C   UNL     1      -3.328  -2.666  -1.143  0.00  0.00    +0.265 C 
ATOM      3  O   UNL     1      -2.784  -2.393  -2.196  0.00  0.00    -0.268 OA
ATOM      4  H   UNL     1      -3.076  -2.788   0.853  0.00  0.00    +0.150 HD
ENDROOT
BRANCH   2   5
ATOM      5  C   UNL     1      -4.735  -3.103  -1.132  0.00  0.00    +0.155 A 
ATOM      6  C   UNL     1      -5.618  -3.260  -2.296  0.00  0.00    +0.034 A 
ATOM      7  C   UNL     1      -5.489  -3.083  -3.670  0.00  0.00    +0.045 A 
ATOM      8  C   UNL     1      -6.556  -3.333  -4.488  0.00  0.00    +0.127 A 
ATOM      9  C   UNL     1      -7.766  -3.761  -3.957  0.00  0.00    +0.035 A 
ATOM     10  C   UNL     1      -7.915  -3.942  -2.600  0.00  0.00    +0.030 A 
ATOM     11  C   UNL     1      -6.842  -3.694  -1.751  0.00  0.00    +0.067 A 
ATOM     12  N   UNL     1      -6.648  -3.769  -0.396  0.00  0.00    -0.276 N 
ATOM     13  N   UNL     1      -5.449  -3.436  -0.078  0.00  0.00    -0.168 NA
ATOM     14  H   UNL     1      -7.327  -4.043   0.240  0.00  0.00    +0.189 HD
BRANCH   8  15
ATOM     15  N   UNL     1      -6.420  -3.145  -5.950  0.00  0.00    +0.056 N 
ATOM     16  O   UNL     1      -5.369  -2.772  -6.417  0.00  0.00    -0.126 OA
ATOM     17  O   UNL     1      -7.361  -3.364  -6.677  0.00  0.00    -0.126 OA
ENDBRANCH   8  15
ENDBRANCH   2   5
BRANCH   1  18
ATOM     18  C   UNL     1      -1.244  -2.135   0.003  0.00  0.00    +0.186 C 
BRANCH  18  19
ATOM     19  C   UNL     1      -1.185  -0.630   0.010  0.00  0.00    +0.328 C 
ATOM     20  O   UNL     1      -2.208   0.015   0.023  0.00  0.00    -0.249 OA
BRANCH  19  22
ATOM     21  C   UNL     1      -0.017   1.425   0.010  0.00  0.00    +0.280 C 
ATOM     22  O   UNL     1       0.002  -0.004   0.002  0.00  0.00    -0.467 OA
ENDBRANCH  19  22
ENDBRANCH  18  19
BRANCH  18  23
ATOM     23  C   UNL     1      -0.531  -2.680   1.242  0.00  0.00    +0.067 C 
BRANCH  23  24
ATOM     24  C   UNL     1      -0.482  -4.184   1.173  0.00  0.00    -0.039 C 
ATOM     25  C   UNL     1       0.535  -4.944   0.706  0.00  0.00    -0.001 A 
ATOM     26  C   UNL     1       1.848  -4.610   0.142  0.00  0.00    +0.010 A 
ATOM     27  C   UNL     1       2.668  -5.612  -0.249  0.00  0.00    +0.001 A 
ATOM     28  C   UNL     1       2.297  -6.958  -0.129  0.00  0.00    +0.002 A 
ATOM     29  C   UNL     1       1.107  -7.343   0.379  0.00  0.00    +0.026 A 
ATOM     30  C   UNL     1       0.166  -6.373   0.822  0.00  0.00    +0.043 A 
ATOM     31  N   UNL     1      -1.032  -6.492   1.341  0.00  0.00    -0.380 N 
ATOM     32  C   UNL     1      -1.556  -5.151   1.619  0.00  0.00    +0.144 C 
ATOM     33  H   UNL     1      -1.492  -7.328   1.516  0.00  0.00    +0.160 HD
ENDBRANCH  23  24
ENDBRANCH  18  23
ENDBRANCH   1  18
TORSDOF 7
