REMARK  Name = ZINC04697834
REMARK  6 active torsions:
REMARK  status: ('A' for Active; 'I' for Inactive)
REMARK    1  A    between atoms: C_1  and  C_2
REMARK    2  A    between atoms: C_2  and  N_3
REMARK    3  A    between atoms: N_3  and  N_4
REMARK    4  A    between atoms: C_5  and  C_7
REMARK    5  A    between atoms: C_14  and  C_15
REMARK    6  A    between atoms: N_17  and  C_18
REMARK                            x       y       z     vdW  Elec       q    Type
REMARK                         _______ _______ _______ _____ _____    ______ ____
ROOT
ATOM      1  C   UNL     1       0.257   1.708   0.187  0.00  0.00    +0.062 C 
ATOM      2  C   UNL     1      -0.545   2.165  -1.004  0.00  0.00    +0.024 C 
ATOM      3  C   UNL     1      -1.889   2.043  -1.001  0.00  0.00    +0.087 C 
ENDROOT
BRANCH   3   4
ATOM      4  C   UNL     1      -2.651   2.583  -2.062  0.00  0.00    +0.243 C 
ATOM      5  O   UNL     1      -2.090   3.064  -3.030  0.00  0.00    -0.270 OA
ATOM      6  N   UNL     1      -3.997   2.565  -2.002  0.00  0.00    -0.282 N 
ATOM      7  H   UNL     1      -4.443   2.247  -1.202  0.00  0.00    +0.155 HD
BRANCH   6   8
ATOM      8  C   UNL     1      -4.751   3.006  -3.094  0.00  0.00    +0.037 A 
ATOM      9  C   UNL     1      -4.170   3.074  -4.351  0.00  0.00    +0.023 A 
ATOM     10  C   UNL     1      -4.917   3.511  -5.427  0.00  0.00    +0.002 A 
ATOM     11  C   UNL     1      -6.234   3.879  -5.245  0.00  0.00    +0.004 A 
ATOM     12  C   UNL     1      -6.822   3.814  -3.987  0.00  0.00    -0.042 A 
ATOM     13  C   UNL     1      -6.086   3.370  -2.913  0.00  0.00    -0.023 A 
ATOM     14  C   UNL     1      -6.664   3.253  -1.527  0.00  0.00    +0.037 C 
ATOM     15  C   UNL     1      -7.947   4.071  -1.409  0.00  0.00    +0.005 C 
ATOM     16  C   UNL     1      -8.872   3.691  -2.571  0.00  0.00    +0.005 C 
ATOM     17  C   UNL     1      -8.261   4.240  -3.864  0.00  0.00    +0.035 C 
ENDBRANCH   6   8
ENDBRANCH   3   4
BRANCH   2  18
ATOM     18  N   UNL     1       0.089   2.704  -2.089  0.00  0.00    -0.268 N 
ATOM     19  H   UNL     1      -0.430   3.074  -2.820  0.00  0.00    +0.170 HD
BRANCH  18  20
ATOM     20  N   UNL     1       1.489   2.722  -2.144  0.00  0.00    -0.233 N 
ATOM     21  C   UNL     1       2.115   3.346  -3.162  0.00  0.00    +0.260 C 
ATOM     22  O   UNL     1       1.468   3.814  -4.078  0.00  0.00    -0.269 OA
ATOM     23  H   UNL     1       2.007   2.285  -1.451  0.00  0.00    +0.173 HD
BRANCH  21  24
ATOM     24  C   UNL     1       3.588   3.461  -3.163  0.00  0.00    +0.038 A 
ATOM     25  C   UNL     1       4.342   2.826  -2.174  0.00  0.00    +0.014 A 
ATOM     26  C   UNL     1       5.716   2.937  -2.181  0.00  0.00    +0.021 A 
ATOM     27  C   UNL     1       6.350   3.676  -3.166  0.00  0.00    +0.041 A 
ATOM     28  C   UNL     1       5.607   4.309  -4.150  0.00  0.00    +0.021 A 
ATOM     29  C   UNL     1       4.233   4.200  -4.157  0.00  0.00    +0.014 A 
ATOM     30 CL   UNL     1       8.080   3.811  -3.168  0.00  0.00    -0.084 Cl
ENDBRANCH  21  24
ENDBRANCH  18  20
ENDBRANCH   2  18
TORSDOF 5
