REMARK  Name = ZINC20533442
REMARK  7 active torsions:
REMARK  status: ('A' for Active; 'I' for Inactive)
REMARK    1  A    between atoms: C_1  and  C_2
REMARK    2  A    between atoms: C_2  and  O_4
REMARK    3  A    between atoms: O_4  and  C_5
REMARK    4  A    between atoms: C_8  and  N_11
REMARK    5  A    between atoms: C_16  and  C_34
REMARK    6  A    between atoms: C_34  and  C_35
REMARK    7  A    between atoms: C_38  and  O_41
REMARK                            x       y       z     vdW  Elec       q    Type
REMARK                         _______ _______ _______ _____ _____    ______ ____
ROOT
ATOM      1  N   UNL     1       0.360  -6.168  -0.684  0.00  0.00    -0.210 N 
ATOM      2  C   UNL     1       0.255  -6.800   0.490  0.00  0.00    +0.232 C 
ATOM      3  O   UNL     1       0.073  -6.262   1.561  0.00  0.00    -0.274 OA
ATOM      4  C   UNL     1       0.398  -8.289   0.274  0.00  0.00    +0.108 C 
ATOM      5  C   UNL     1       1.722  -8.768   0.905  0.00  0.00    +0.072 C 
ATOM      6  N   UNL     1       2.341  -9.644  -0.125  0.00  0.00    -0.295 NA
ATOM      7  C   UNL     1       2.044  -8.965  -1.401  0.00  0.00    +0.136 C 
ATOM      8  C   UNL     1       0.605  -8.409  -1.262  0.00  0.00    +0.123 C 
ATOM      9  C   UNL     1       0.554  -6.974  -1.734  0.00  0.00    +0.233 C 
ATOM     10  O   UNL     1       0.673  -6.610  -2.885  0.00  0.00    -0.274 OA
ATOM     11  C   UNL     1       3.040  -7.878  -1.689  0.00  0.00    +0.006 A 
ATOM     12  C   UNL     1       3.415  -6.735  -1.020  0.00  0.00    +0.046 A 
ATOM     13  C   UNL     1       4.393  -5.909  -1.551  0.00  0.00    +0.124 A 
ATOM     14  C   UNL     1       4.990  -6.238  -2.757  0.00  0.00    +0.040 A 
ATOM     15  C   UNL     1       4.615  -7.382  -3.430  0.00  0.00    +0.026 A 
ATOM     16  C   UNL     1       3.633  -8.217  -2.901  0.00  0.00    +0.039 A 
ATOM     17  N   UNL     1       3.091  -9.410  -3.387  0.00  0.00    -0.283 N 
ATOM     18  C   UNL     1       2.151  -9.913  -2.564  0.00  0.00    +0.243 C 
ATOM     19  O   UNL     1       1.514 -10.932  -2.728  0.00  0.00    -0.273 OA
ATOM     20  F   UNL     1       4.762  -4.787  -0.896  0.00  0.00    -0.205 F 
ATOM     21  H   UNL     1       3.336  -9.724   0.018  0.00  0.00    +0.124 HD
ATOM     22  H   UNL     1       3.360  -9.828  -4.220  0.00  0.00    +0.155 HD
ENDROOT
BRANCH   1  26
ATOM     23  C   UNL     1       0.086  -2.021  -1.045  0.00  0.00    +0.132 A 
ATOM     24  C   UNL     1      -0.900  -2.830  -1.589  0.00  0.00    +0.048 A 
ATOM     25  C   UNL     1      -0.810  -4.203  -1.470  0.00  0.00    +0.027 A 
ATOM     26  C   UNL     1       0.268  -4.773  -0.806  0.00  0.00    +0.044 A 
ATOM     27  C   UNL     1       1.255  -3.962  -0.262  0.00  0.00    +0.027 A 
ATOM     28  C   UNL     1       1.166  -2.590  -0.386  0.00  0.00    +0.048 A 
BRANCH  23  29
ATOM     29  O   UNL     1      -0.003  -0.669  -1.163  0.00  0.00    -0.426 OA
BRANCH  29  31
ATOM     30  C   UNL     1      -0.914   1.485  -0.370  0.00  0.00    +0.136 C 
ATOM     31  C   UNL     1      -0.859  -0.021  -0.357  0.00  0.00    +0.309 C 
ATOM     32  O   UNL     1      -1.586  -0.646   0.379  0.00  0.00    -0.251 OA
ENDBRANCH  29  31
ENDBRANCH  23  29
ENDBRANCH   1  26
BRANCH   5  33
ATOM     33  C   UNL     1       1.446  -9.560   2.185  0.00  0.00    +0.054 C 
BRANCH  33  34
ATOM     34  C   UNL     1       2.752  -9.912   2.849  0.00  0.00    -0.046 A 
ATOM     35  C   UNL     1       3.396 -11.093   2.526  0.00  0.00    +0.007 A 
ATOM     36  C   UNL     1       4.593 -11.418   3.134  0.00  0.00    +0.045 A 
ATOM     37  C   UNL     1       5.150 -10.558   4.069  0.00  0.00    +0.117 A 
ATOM     38  C   UNL     1       4.503  -9.374   4.392  0.00  0.00    +0.045 A 
ATOM     39  C   UNL     1       3.309  -9.051   3.777  0.00  0.00    +0.007 A 
BRANCH  37  40
ATOM     40  O   UNL     1       6.327 -10.876   4.669  0.00  0.00    -0.507 OA
ATOM     41  H   UNL     1       7.108 -10.552   4.199  0.00  0.00    +0.292 HD
ENDBRANCH  37  40
ENDBRANCH  33  34
ENDBRANCH   5  33
TORSDOF 6
