REMARK  Name = ZINC14459789
REMARK  8 active torsions:
REMARK  status: ('A' for Active; 'I' for Inactive)
REMARK    1  A    between atoms: C_1  and  O_2
REMARK    2  A    between atoms: O_2  and  C_3
REMARK    3  A    between atoms: C_7  and  C_10
REMARK    4  A    between atoms: C_8  and  O_9
REMARK    5  A    between atoms: C_21  and  S_26
REMARK    6  A    between atoms: S_26  and  N_29
REMARK    7  A    between atoms: N_29  and  C_30
REMARK    8  A    between atoms: C_30  and  C_31
REMARK                            x       y       z     vdW  Elec       q    Type
REMARK                         _______ _______ _______ _____ _____    ______ ____
ROOT
ATOM      1  C   UNL     1       2.460   3.930  -0.000  0.00  0.00    +0.109 C 
ATOM      2  C   UNL     1       2.910   4.215   1.421  0.00  0.00    +0.029 C 
ATOM      3  C   UNL     1       1.901   4.904   2.350  0.00  0.00    +0.033 C 
ATOM      4  C   UNL     1       2.324   4.365   3.718  0.00  0.00    -0.030 C 
ATOM      5  C   UNL     1       2.928   3.191   3.577  0.00  0.00    -0.023 C 
ATOM      6  C   UNL     1       2.932   2.831   2.136  0.00  0.00    +0.049 C 
ATOM      7  C   UNL     1       4.017   2.026   1.533  0.00  0.00    -0.018 A 
ATOM      8  C   UNL     1       4.764   1.127   2.263  0.00  0.00    +0.034 A 
ATOM      9  C   UNL     1       5.743   0.370   1.647  0.00  0.00    +0.106 A 
ATOM     10  C   UNL     1       5.977   0.515   0.291  0.00  0.00    +0.030 A 
ATOM     11  C   UNL     1       5.240   1.419  -0.446  0.00  0.00    +0.025 A 
ATOM     12  C   UNL     1       4.258   2.188   0.165  0.00  0.00    +0.031 A 
ATOM     13  N   UNL     1       3.534   3.110  -0.602  0.00  0.00    -0.336 N 
ATOM     14  H   UNL     1       3.741   3.213  -1.544  0.00  0.00    +0.147 HD
ENDROOT
BRANCH   1  19
ATOM     15  C   UNL     1      -1.240   3.135   0.030  0.00  0.00    +0.162 A 
ATOM     16  C   UNL     1      -1.220   1.749   0.017  0.00  0.00    +0.049 A 
ATOM     17  C   UNL     1      -0.013   1.076   0.008  0.00  0.00    +0.004 A 
ATOM     18  C   UNL     1       1.176   1.782   0.000  0.00  0.00    +0.009 A 
ATOM     19  C   UNL     1       1.163   3.164   0.008  0.00  0.00    +0.018 A 
ATOM     20  C   UNL     1      -0.044   3.845   0.023  0.00  0.00    +0.163 A 
BRANCH  15  22
ATOM     21  C   UNL     1      -3.615   3.004   0.051  0.00  0.00    +0.277 C 
ATOM     22  O   UNL     1      -2.427   3.799   0.044  0.00  0.00    -0.491 OA
ENDBRANCH  15  22
BRANCH  20  23
ATOM     23  O   UNL     1      -0.059   5.205   0.030  0.00  0.00    -0.503 OA
ATOM     24  H   UNL     1      -0.072   5.603  -0.852  0.00  0.00    +0.292 HD
ENDBRANCH  20  23
ENDBRANCH   1  19
BRANCH   9  25
ATOM     25  S   UNL     1       6.692  -0.779   2.587  0.00  0.00    +0.059 S 
ATOM     26  O   UNL     1       5.909  -1.119   3.723  0.00  0.00    -0.153 OA
ATOM     27  O   UNL     1       7.171  -1.755   1.673  0.00  0.00    -0.153 OA
BRANCH  25  28
ATOM     28  N   UNL     1       8.021   0.032   3.154  0.00  0.00    -0.186 NA
ATOM     29  H   UNL     1       8.908  -0.222   2.853  0.00  0.00    +0.148 HD
BRANCH  28  30
ATOM     30  C   UNL     1       7.857   1.131   4.108  0.00  0.00    +0.141 C 
BRANCH  30  31
ATOM     31  C   UNL     1       9.187   1.450   4.740  0.00  0.00    -0.032 A 
ATOM     32  C   UNL     1       9.570   0.811   5.904  0.00  0.00    +0.005 A 
ATOM     33  C   UNL     1      10.793   1.101   6.481  0.00  0.00    +0.000 A 
ATOM     34  C   UNL     1      11.627   2.037   5.900  0.00  0.00    +0.000 A 
ATOM     35  C   UNL     1      11.242   2.679   4.738  0.00  0.00    +0.000 A 
ATOM     36  C   UNL     1      10.021   2.387   4.159  0.00  0.00    +0.005 A 
ENDBRANCH  30  31
ENDBRANCH  28  30
ENDBRANCH  25  28
ENDBRANCH   9  25
TORSDOF 7
