REMARK  Name = ZINC06198129
REMARK  15 active torsions:
REMARK  status: ('A' for Active; 'I' for Inactive)
REMARK    1  A    between atoms: C_1  and  C_2
REMARK    2  A    between atoms: C_2  and  C_3
REMARK    3  A    between atoms: C_10  and  C_15
REMARK    4  A    between atoms: C_15  and  C_17
REMARK    5  A    between atoms: C_15  and  N_73
REMARK    6  A    between atoms: N_21  and  C_22
REMARK    7  A    between atoms: C_22  and  C_23
REMARK    8  A    between atoms: C_22  and  C_24
REMARK    9  A    between atoms: C_22  and  C_25
REMARK   10  A    between atoms: C_26  and  C_27
REMARK   11  A    between atoms: C_26  and  N_73
REMARK   12  A    between atoms: C_30  and  O_33
REMARK   13  A    between atoms: O_33  and  C_34
REMARK   14  A    between atoms: C_35  and  C_36
REMARK   15  A    between atoms: C_35  and  N_73
REMARK                            x       y       z     vdW  Elec       q    Type
REMARK                         _______ _______ _______ _____ _____    ______ ____
ROOT
ATOM      1  C   UNL     1       3.346   0.853  -0.788  0.00  0.00    +0.040 C 
ENDROOT
BRANCH   1   9
ATOM      2  C   UNL     1       6.213   2.096  -6.129  0.00  0.00    -0.047 A 
ATOM      3  C   UNL     1       5.516   3.262  -6.412  0.00  0.00    +0.005 A 
ATOM      4  C   UNL     1       4.542   3.725  -5.554  0.00  0.00    +0.026 A 
ATOM      5  C   UNL     1       4.255   3.019  -4.391  0.00  0.00    +0.049 A 
ATOM      6  C   UNL     1       4.964   1.837  -4.106  0.00  0.00    -0.001 A 
ATOM      7  C   UNL     1       5.948   1.386  -4.993  0.00  0.00    +0.013 A 
ATOM      8  C   UNL     1       4.654   1.101  -2.880  0.00  0.00    +0.017 A 
ATOM      9  C   UNL     1       3.690   1.587  -2.059  0.00  0.00    +0.011 A 
ATOM     10  C   UNL     1       3.004   2.774  -2.393  0.00  0.00    +0.251 A 
ATOM     11  O   UNL     1       2.138   3.190  -1.643  0.00  0.00    -0.268 OA
ATOM     12  N   UNL     1       3.286   3.460  -3.514  0.00  0.00    -0.322 N 
ATOM     13  H   UNL     1       2.785   4.302  -3.716  0.00  0.00    +0.169 HD
BRANCH   2  15
ATOM     14  C   UNL     1       6.640   0.677  -8.117  0.00  0.00    +0.009 C 
ATOM     15  C   UNL     1       7.274   1.609  -7.083  0.00  0.00    +0.032 C 
ENDBRANCH   2  15
ENDBRANCH   1   9
BRANCH   1  16
ATOM     16  C   UNL     1       1.910   0.400  -0.843  0.00  0.00    +0.143 A 
ATOM     17  N   UNL     1       0.848   1.142  -0.645  0.00  0.00    -0.115 NA
ATOM     18  N   UNL     1      -0.192   0.392  -0.777  0.00  0.00    -0.023 NA
ATOM     19  N   UNL     1       0.180  -0.809  -1.054  0.00  0.00    -0.043 NA
ATOM     20  N   UNL     1       1.469  -0.845  -1.103  0.00  0.00    -0.225 N 
BRANCH  20  21
ATOM     21  C   UNL     1       2.297  -2.019  -1.388  0.00  0.00    +0.059 C 
ATOM     22  C   UNL     1       1.396  -3.204  -1.744  0.00  0.00    +0.036 C 
ATOM     23  C   UNL     1       3.227  -1.715  -2.563  0.00  0.00    +0.036 C 
ATOM     24  C   UNL     1       3.131  -2.367  -0.153  0.00  0.00    +0.036 C 
ENDBRANCH  20  21
ENDBRANCH   1  16
BRANCH   1  25
ATOM     25  N   UNL     1       3.513   1.767   0.361  0.00  0.00    +0.397 N 
ATOM     26  H   UNL     1       2.743   2.446   0.361  0.00  0.00    -0.079 HD
BRANCH  25  27
ATOM     27  C   UNL     1       4.794   2.495   0.245  0.00  0.00    -0.041 C 
BRANCH  27  28
ATOM     28  C   UNL     1       4.866   3.531   1.338  0.00  0.00    -0.064 A 
ATOM     29  C   UNL     1       4.260   4.761   1.163  0.00  0.00    +0.005 A 
ATOM     30  C   UNL     1       4.319   5.710   2.165  0.00  0.00    +0.046 A 
ATOM     31  C   UNL     1       4.998   5.432   3.343  0.00  0.00    +0.120 A 
ATOM     32  C   UNL     1       5.610   4.199   3.513  0.00  0.00    +0.046 A 
ATOM     33  C   UNL     1       5.543   3.251   2.511  0.00  0.00    +0.005 A 
BRANCH  31  34
ATOM     34  O   UNL     1       5.062   6.366   4.328  0.00  0.00    -0.495 OA
ATOM     35  C   UNL     1       4.409   7.613   4.083  0.00  0.00    +0.277 C 
ENDBRANCH  31  34
ENDBRANCH  27  28
ENDBRANCH  25  27
BRANCH  25  36
ATOM     36  C   UNL     1       3.479   1.002   1.625  0.00  0.00    -0.001 C 
BRANCH  36  37
ATOM     37  C   UNL     1       2.040   0.746   1.994  0.00  0.00    +0.089 A 
ATOM     38  C   UNL     1       1.352  -0.383   1.741  0.00  0.00    +0.042 A 
ATOM     39  C   UNL     1       0.050  -0.192   2.256  0.00  0.00    +0.041 A 
ATOM     40  C   UNL     1       0.019   1.042   2.792  0.00  0.00    +0.195 A 
ATOM     41  O   UNL     1       1.229   1.603   2.635  0.00  0.00    -0.470 OA
ENDBRANCH  36  37
ENDBRANCH  25  36
ENDBRANCH   1  25
TORSDOF 10
