REMARK  Name = ZINC36544765
REMARK  10 active torsions:
REMARK  status: ('A' for Active; 'I' for Inactive)
REMARK    1  A    between atoms: C_4  and  C_7
REMARK    2  A    between atoms: C_8  and  C_9
REMARK    3  A    between atoms: N_11  and  C_12
REMARK    4  A    between atoms: N_11  and  C_19
REMARK    5  A    between atoms: C_19  and  C_21
REMARK    6  A    between atoms: C_19  and  C_30
REMARK    7  A    between atoms: C_22  and  O_29
REMARK    8  A    between atoms: C_24  and  O_28
REMARK    9  A    between atoms: C_26  and  O_27
REMARK   10  A    between atoms: N_32  and  C_33
REMARK                            x       y       z     vdW  Elec       q    Type
REMARK                         _______ _______ _______ _____ _____    ______ ____
ROOT
ATOM      1  C   UNL     1       8.225  -2.174  -0.118  0.00  0.00    +0.205 C 
ENDROOT
BRANCH   1   2
ATOM      2  C   UNL     1       8.244  -1.206   1.037  0.00  0.00    +0.065 A 
ATOM      3  C   UNL     1       7.441  -0.075   1.007  0.00  0.00    +0.129 A 
ATOM      4  C   UNL     1       7.459   0.816   2.070  0.00  0.00    +0.091 A 
ATOM      5  C   UNL     1       8.279   0.576   3.162  0.00  0.00    +0.124 A 
ATOM      6  C   UNL     1       9.081  -0.555   3.192  0.00  0.00    +0.091 A 
ATOM      7  C   UNL     1       9.060  -1.448   2.132  0.00  0.00    +0.129 A 
BRANCH   7   8
ATOM      8  O   UNL     1       9.842  -2.559   2.163  0.00  0.00    -0.506 OA
ATOM      9  H   UNL     1      10.723  -2.431   1.784  0.00  0.00    +0.292 HD
ENDBRANCH   7   8
BRANCH   5  10
ATOM     10  O   UNL     1       8.297   1.450   4.203  0.00  0.00    -0.507 OA
ATOM     11  H   UNL     1       7.651   1.251   4.894  0.00  0.00    +0.292 HD
ENDBRANCH   5  10
BRANCH   3  12
ATOM     12  O   UNL     1       6.638   0.159  -0.063  0.00  0.00    -0.506 OA
ATOM     13  H   UNL     1       5.735  -0.170   0.043  0.00  0.00    +0.292 HD
ENDBRANCH   3  12
ENDBRANCH   1   2
BRANCH   1  14
ATOM     14  C   UNL     1       8.930  -1.561  -1.300  0.00  0.00    +0.239 C 
ATOM     15  O   UNL     1       8.342  -0.780  -2.018  0.00  0.00    -0.273 OA
ATOM     16  N   UNL     1      10.214  -1.879  -1.558  0.00  0.00    -0.311 N 
ATOM     17  H   UNL     1      10.684  -2.503  -0.983  0.00  0.00    +0.149 HD
BRANCH  16  18
ATOM     18  C   UNL     1      10.899  -1.282  -2.707  0.00  0.00    +0.073 C 
ATOM     19  C   UNL     1      10.596  -2.102  -3.963  0.00  0.00    +0.022 C 
ATOM     20  C   UNL     1      11.312  -1.479  -5.164  0.00  0.00    +0.002 C 
ATOM     21  C   UNL     1      12.821  -1.472  -4.910  0.00  0.00    +0.000 C 
ATOM     22  C   UNL     1      13.124  -0.653  -3.654  0.00  0.00    +0.002 C 
ATOM     23  C   UNL     1      12.408  -1.276  -2.454  0.00  0.00    +0.022 C 
ENDBRANCH  16  18
ENDBRANCH   1  14
BRANCH   1  26
ATOM     24  C   UNL     1       5.931  -2.735   0.484  0.00  0.00    +0.297 C 
ATOM     25  O   UNL     1       6.265  -2.719   1.654  0.00  0.00    -0.260 OA
ATOM     26  N   UNL     1       6.837  -2.476  -0.479  0.00  0.00    -0.243 N 
BRANCH  26  27
ATOM     27  C   UNL     1       6.453  -2.494  -1.824  0.00  0.00    +0.057 A 
ATOM     28  C   UNL     1       5.844  -1.382  -2.389  0.00  0.00    +0.025 A 
ATOM     29  C   UNL     1       5.466  -1.403  -3.717  0.00  0.00    +0.002 A 
ATOM     30  C   UNL     1       5.693  -2.531  -4.485  0.00  0.00    +0.002 A 
ATOM     31  C   UNL     1       6.299  -3.641  -3.926  0.00  0.00    +0.022 A 
ATOM     32  C   UNL     1       6.686  -3.624  -2.599  0.00  0.00    +0.062 A 
ATOM     33 CL   UNL     1       7.453  -5.016  -1.899  0.00  0.00    -0.082 Cl
ENDBRANCH  26  27
BRANCH  24  35
ATOM     34  C   UNL     1       3.463  -3.271  -0.159  0.00  0.00    -0.057 C 
ATOM     35  C   UNL     1       4.575  -3.030   0.131  0.00  0.00    -0.002 C 
BRANCH  34  39
ATOM     36  C   UNL     1      -0.516  -4.137  -1.196  0.00  0.00    +0.000 A 
ATOM     37  C   UNL     1       0.412  -3.870  -2.188  0.00  0.00    +0.001 A 
ATOM     38  C   UNL     1       1.719  -3.585  -1.856  0.00  0.00    +0.017 A 
ATOM     39  C   UNL     1       2.107  -3.566  -0.512  0.00  0.00    +0.025 A 
ATOM     40  C   UNL     1       1.164  -3.836   0.484  0.00  0.00    +0.017 A 
ATOM     41  C   UNL     1      -0.140  -4.120   0.136  0.00  0.00    +0.001 A 
ENDBRANCH  34  39
ENDBRANCH  24  35
ENDBRANCH   1  26
TORSDOF 10
