REMARK  Name = ZINC33058367
REMARK  10 active torsions:
REMARK  status: ('A' for Active; 'I' for Inactive)
REMARK    1  A    between atoms: C_1  and  C_2
REMARK    2  A    between atoms: C_5  and  S_8
REMARK    3  A    between atoms: S_8  and  C_11
REMARK    4  A    between atoms: C_12  and  N_34
REMARK    5  A    between atoms: C_13  and  C_24
REMARK    6  A    between atoms: C_15  and  N_16
REMARK    7  A    between atoms: N_16  and  C_17
REMARK    8  A    between atoms: C_24  and  C_26
REMARK    9  A    between atoms: C_29  and  C_33
REMARK   10  A    between atoms: C_31  and  C_32
REMARK                            x       y       z     vdW  Elec       q    Type
REMARK                         _______ _______ _______ _____ _____    ______ ____
ROOT
ATOM      1  C   UNL     1       4.113  -4.433   0.133  0.00  0.00    +0.143 A 
ATOM      2  C   UNL     1       2.801  -4.358  -0.263  0.00  0.00    +0.070 A 
ATOM      3  C   UNL     1       2.096  -3.176   0.002  0.00  0.00    +0.084 A 
ATOM      4  S   UNL     1       3.333  -2.177   0.814  0.00  0.00    -0.066 S 
ATOM      5  C   UNL     1       4.680  -3.347   0.772  0.00  0.00    +0.098 A 
ENDROOT
BRANCH   1   6
ATOM      6  S   UNL     1       5.058  -5.889  -0.168  0.00  0.00    +0.029 S 
ATOM      7  O   UNL     1       6.234  -5.780   0.621  0.00  0.00    -0.164 OA
ATOM      8  O   UNL     1       4.161  -6.986  -0.051  0.00  0.00    -0.164 OA
BRANCH   6  13
ATOM      9  C   UNL     1       6.824  -5.709  -5.934  0.00  0.00    +0.044 C 
ATOM     10  C   UNL     1       6.383  -5.755  -4.494  0.00  0.00    -0.050 A 
ATOM     11  C   UNL     1       7.177  -5.196  -3.510  0.00  0.00    +0.005 A 
ATOM     12  C   UNL     1       6.772  -5.237  -2.189  0.00  0.00    +0.027 A 
ATOM     13  C   UNL     1       5.573  -5.837  -1.852  0.00  0.00    +0.094 A 
ATOM     14  C   UNL     1       4.782  -6.401  -2.835  0.00  0.00    +0.027 A 
ATOM     15  C   UNL     1       5.184  -6.356  -4.157  0.00  0.00    +0.005 A 
ENDBRANCH   6  13
ENDBRANCH   1   6
BRANCH   2  16
ATOM     16  N   UNL     1       2.188  -5.426  -0.908  0.00  0.00    -0.355 N 
ATOM     17  H   UNL     1       1.136  -5.349  -1.219  0.00  0.00    +0.142 HD
ATOM     18  H   UNL     1       2.755  -6.346  -1.109  0.00  0.00    +0.142 HD
ENDBRANCH   2  16
BRANCH   5  19
ATOM     19  N   UNL     1       5.969  -3.201   1.253  0.00  0.00    -0.307 N 
ATOM     20  H   UNL     1       6.662  -4.055   1.236  0.00  0.00    +0.153 HD
BRANCH  19  21
ATOM     21  C   UNL     1       6.391  -1.969   1.760  0.00  0.00    +0.032 A 
ATOM     22  C   UNL     1       5.928  -0.788   1.193  0.00  0.00    +0.024 A 
ATOM     23  C   UNL     1       6.342   0.428   1.700  0.00  0.00    +0.022 A 
ATOM     24  C   UNL     1       7.226   0.471   2.764  0.00  0.00    +0.041 A 
ATOM     25  C   UNL     1       7.693  -0.704   3.327  0.00  0.00    +0.022 A 
ATOM     26  C   UNL     1       7.278  -1.923   2.828  0.00  0.00    +0.024 A 
ATOM     27 CL   UNL     1       7.750   2.002   3.393  0.00  0.00    -0.084 Cl
ENDBRANCH  19  21
ENDBRANCH   5  19
BRANCH   3  28
ATOM     28  C   UNL     1       0.761  -2.857  -0.300  0.00  0.00    +0.202 C 
ATOM     29  O   UNL     1       0.031  -3.697  -0.799  0.00  0.00    -0.286 OA
BRANCH  28  30
ATOM     30  C   UNL     1       0.241  -1.502  -0.012  0.00  0.00    +0.026 A 
ATOM     31  C   UNL     1      -0.605  -1.293   1.078  0.00  0.00    +0.012 A 
ATOM     32  C   UNL     1      -1.086  -0.027   1.341  0.00  0.00    +0.004 A 
ATOM     33  C   UNL     1      -0.732   1.034   0.527  0.00  0.00    -0.050 A 
ATOM     34  C   UNL     1       0.106   0.834  -0.556  0.00  0.00    +0.007 A 
ATOM     35  C   UNL     1       0.594  -0.428  -0.830  0.00  0.00    -0.039 A 
ATOM     36  C   UNL     1       1.506  -0.645  -2.009  0.00  0.00    +0.044 C 
ATOM     37  C   UNL     1      -1.261   2.414   0.820  0.00  0.00    +0.044 C 
ENDBRANCH  28  30
ENDBRANCH   3  28
TORSDOF 7
