REMARK  Name = ZINC11347022
REMARK  6 active torsions:
REMARK  status: ('A' for Active; 'I' for Inactive)
REMARK    1  A    between atoms: C_7  and  C_11
REMARK    2  A    between atoms: C_14  and  S_16
REMARK    3  A    between atoms: S_16  and  C_17
REMARK    4  A    between atoms: C_17  and  C_18
REMARK    5  A    between atoms: C_21  and  C_31
REMARK    6  A    between atoms: C_24  and  C_26
REMARK                            x       y       z     vdW  Elec       q    Type
REMARK                         _______ _______ _______ _____ _____    ______ ____
ROOT
ATOM      1  C   UNL     1      -8.515   3.327   0.101  0.00  0.00    +0.176 C 
ENDROOT
BRANCH   1   2
ATOM      2  C   UNL     1      -9.977   3.693   0.117  0.00  0.00    +0.246 C 
ATOM      3  O   UNL     1     -10.310   4.859   0.127  0.00  0.00    -0.273 OA
ATOM      4  N   UNL     1     -10.914   2.724   0.120  0.00  0.00    -0.184 N 
ATOM      5  C   UNL     1     -12.369   2.942   0.141  0.00  0.00    +0.143 C 
ATOM      6  C   UNL     1     -12.950   1.514   0.133  0.00  0.00    +0.088 C 
ATOM      7  C   UNL     1     -11.728   0.624   0.116  0.00  0.00    +0.075 C 
ATOM      8  N   UNL     1     -10.663   1.354   0.110  0.00  0.00    -0.180 NA
BRANCH   7   9
ATOM      9  C   UNL     1     -11.749  -0.843   0.108  0.00  0.00    +0.035 A 
ATOM     10  C   UNL     1     -10.687  -1.731   0.087  0.00  0.00    +0.017 A 
ATOM     11  C   UNL     1     -10.963  -3.078   0.087  0.00  0.00    +0.008 A 
ATOM     12  C   UNL     1     -12.256  -3.493   0.097  0.00  0.00    +0.046 A 
ATOM     13  S   UNL     1     -13.151  -1.948   0.115  0.00  0.00    -0.095 S 
ENDBRANCH   7   9
BRANCH   5  14
ATOM     14  C   UNL     1     -12.777   3.676   1.392  0.00  0.00    +0.013 A 
ATOM     15  C   UNL     1     -13.710   4.648   1.546  0.00  0.00    +0.013 A 
ATOM     16  C   UNL     1     -13.921   5.181   2.804  0.00  0.00    +0.008 A 
ATOM     17  C   UNL     1     -13.182   4.724   3.844  0.00  0.00    +0.045 A 
ATOM     18  S   UNL     1     -12.153   3.497   3.055  0.00  0.00    -0.100 S 
ENDBRANCH   5  14
ENDBRANCH   1   2
BRANCH   1  19
ATOM     19  S   UNL     1      -7.515   4.835   0.100  0.00  0.00    -0.056 S 
BRANCH  19  23
ATOM     20  C   UNL     1      -3.755   3.879   0.059  0.00  0.00    +0.251 A 
ATOM     21  N   UNL     1      -4.333   2.702   0.052  0.00  0.00    -0.106 NA
ATOM     22  N   UNL     1      -5.611   2.853   0.070  0.00  0.00    -0.101 NA
ATOM     23  C   UNL     1      -5.900   4.132   0.081  0.00  0.00    +0.278 A 
ATOM     24  O   UNL     1      -4.735   4.810   0.074  0.00  0.00    -0.411 OA
BRANCH  20  31
ATOM     25  C   UNL     1      -0.013   1.076   0.008  0.00  0.00    +0.001 A 
ATOM     26  C   UNL     1       1.183   1.781   0.000  0.00  0.00    +0.002 A 
ATOM     27  C   UNL     1       1.185   3.159   0.008  0.00  0.00    +0.026 A 
ATOM     28  C   UNL     1      -0.022   3.852   0.023  0.00  0.00    +0.047 A 
ATOM     29  C   UNL     1      -1.228   3.132   0.031  0.00  0.00    +0.012 A 
ATOM     30  C   UNL     1      -1.208   1.738   0.017  0.00  0.00    +0.011 A 
ATOM     31  C   UNL     1      -2.303   4.139   0.047  0.00  0.00    +0.063 A 
ATOM     32  C   UNL     1      -1.696   5.355   0.048  0.00  0.00    +0.097 A 
ATOM     33  N   UNL     1      -0.341   5.193   0.034  0.00  0.00    -0.360 N 
ATOM     34  H   UNL     1       0.305   5.917   0.032  0.00  0.00    +0.165 HD
ENDBRANCH  20  31
ENDBRANCH  19  23
ENDBRANCH   1  19
TORSDOF 6
