REMARK  Name = ZINC14275637
REMARK  5 active torsions:
REMARK  status: ('A' for Active; 'I' for Inactive)
REMARK    1  A    between atoms: C_3  and  N_27
REMARK    2  A    between atoms: C_4  and  N_24
REMARK    3  A    between atoms: C_6  and  C_7
REMARK    4  A    between atoms: N_9  and  C_10
REMARK    5  A    between atoms: C_10  and  N_12
REMARK                            x       y       z     vdW  Elec       q    Type
REMARK                         _______ _______ _______ _____ _____    ______ ____
ROOT
ATOM      1  C   UNL     1       2.408   3.940   0.001  0.00  0.00    +0.250 C 
ATOM      2  O   UNL     1       2.385   5.155   0.007  0.00  0.00    -0.270 OA
ATOM      3  N   UNL     1       3.588   3.288  -0.014  0.00  0.00    -0.262 N 
ATOM      4  H   UNL     1       3.608   2.188  -0.020  0.00  0.00    +0.157 HD
ENDROOT
BRANCH   1  10
ATOM      5  C   UNL     1       1.170   1.781   0.001  0.00  0.00    +0.015 A 
ATOM      6  C   UNL     1      -0.013   1.076   0.008  0.00  0.00    +0.026 A 
ATOM      7  C   UNL     1      -1.227   1.756   0.017  0.00  0.00    +0.060 A 
ATOM      8  C   UNL     1      -1.249   3.148   0.031  0.00  0.00    +0.148 A 
ATOM      9  C   UNL     1      -0.080   3.854   0.024  0.00  0.00    +0.047 A 
ATOM     10  C   UNL     1       1.145   3.179   0.008  0.00  0.00    +0.039 A 
BRANCH   7  11
ATOM     11  N   UNL     1      -2.421   1.044   0.019  0.00  0.00    -0.328 N 
ATOM     12  C   UNL     1      -2.562   0.255   1.250  0.00  0.00    +0.105 C 
ATOM     13  C   UNL     1      -3.945  -0.398   1.284  0.00  0.00    +0.019 C 
ATOM     14  C   UNL     1      -4.109  -1.299   0.057  0.00  0.00    +0.003 C 
ATOM     15  C   UNL     1      -3.910  -0.463  -1.211  0.00  0.00    +0.019 C 
ATOM     16  C   UNL     1      -2.528   0.192  -1.172  0.00  0.00    +0.105 C 
ENDBRANCH   7  11
BRANCH   8  17
ATOM     17  N   UNL     1      -2.543   3.866   0.047  0.00  0.00    +0.058 N 
ATOM     18  O   UNL     1      -2.565   5.084   0.054  0.00  0.00    -0.126 OA
ATOM     19  O   UNL     1      -3.588   3.239   0.054  0.00  0.00    -0.126 OA
ENDBRANCH   8  17
ENDBRANCH   1  10
BRANCH   3  20
ATOM     20  C   UNL     1       4.742   3.984  -0.020  0.00  0.00    +0.163 C 
ATOM     21  S   UNL     1       4.710   5.696  -0.011  0.00  0.00    -0.016 S 
BRANCH  20  22
ATOM     22  N   UNL     1       5.921   3.332  -0.035  0.00  0.00    -0.169 NA
ATOM     23  C   UNL     1       7.107   4.047  -0.042  0.00  0.00    +0.163 A 
ATOM     24  N   UNL     1       8.340   3.596  -0.056  0.00  0.00    -0.334 N 
ATOM     25  C   UNL     1       9.413   4.417  -0.061  0.00  0.00    +0.075 A 
ATOM     26  C   UNL     1       9.125   5.801  -0.052  0.00  0.00    +0.040 A 
ATOM     27  S   UNL     1       7.349   5.818  -0.042  0.00  0.00    -0.052 S 
ATOM     28  C   UNL     1      10.105   6.762  -0.056  0.00  0.00    +0.019 A 
ATOM     29  C   UNL     1      11.435   6.382  -0.071  0.00  0.00    +0.022 A 
ATOM     30  C   UNL     1      11.756   5.032  -0.081  0.00  0.00    +0.061 A 
ATOM     31  C   UNL     1      10.783   4.064  -0.076  0.00  0.00    +0.084 A 
ATOM     32 CL   UNL     1      11.238   2.388  -0.089  0.00  0.00    -0.080 Cl
ATOM     33 CL   UNL     1      13.426   4.556  -0.098  0.00  0.00    -0.082 Cl
ATOM     34  H   UNL     1       8.530   2.513  -0.063  0.00  0.00    +0.168 HD
ENDBRANCH  20  22
ENDBRANCH   3  20
TORSDOF 5
