REMARK  Name = ZINC64428255
REMARK  7 active torsions:
REMARK  status: ('A' for Active; 'I' for Inactive)
REMARK    1  A    between atoms: C_5  and  C_7
REMARK    2  A    between atoms: C_13  and  O_19
REMARK    3  A    between atoms: O_19  and  C_20
REMARK    4  A    between atoms: C_20  and  C_22
REMARK    5  A    between atoms: C_22  and  C_24
REMARK    6  A    between atoms: C_22  and  N_34
REMARK    7  A    between atoms: C_24  and  C_25
REMARK                            x       y       z     vdW  Elec       q    Type
REMARK                         _______ _______ _______ _____ _____    ______ ____
ROOT
ATOM      1  C   UNL     1       1.223  -2.308   0.084  0.00  0.00    +0.130 C 
ATOM      2  C   UNL     1       0.480  -2.940   1.270  0.00  0.00    +0.245 C 
ATOM      3  O   UNL     1      -0.874  -2.487   1.275  0.00  0.00    -0.490 OA
ATOM      4  C   UNL     1      -1.606  -2.618   0.144  0.00  0.00    +0.134 A 
ATOM      5  C   UNL     1      -2.990  -2.640   0.214  0.00  0.00    +0.092 A 
ATOM      6  C   UNL     1      -3.739  -2.768  -0.947  0.00  0.00    +0.135 A 
ATOM      7  C   UNL     1      -3.112  -2.875  -2.185  0.00  0.00    +0.047 A 
ATOM      8  C   UNL     1      -1.749  -2.858  -2.271  0.00  0.00    +0.018 A 
ATOM      9  C   UNL     1      -0.982  -2.732  -1.110  0.00  0.00    +0.060 A 
ATOM     10  C   UNL     1       0.490  -2.723  -1.179  0.00  0.00    +0.177 C 
ATOM     11  O   UNL     1       1.085  -3.030  -2.191  0.00  0.00    -0.291 OA
ENDROOT
BRANCH   1  16
ATOM     12  C   UNL     1       0.005   1.252   0.390  0.00  0.00    +0.000 A 
ATOM     13  C   UNL     1       1.197   1.949   0.451  0.00  0.00    +0.003 A 
ATOM     14  C   UNL     1       2.399   1.270   0.393  0.00  0.00    +0.038 A 
ATOM     15  C   UNL     1       2.409  -0.110   0.275  0.00  0.00    +0.127 A 
ATOM     16  C   UNL     1       1.214  -0.807   0.214  0.00  0.00    +0.002 A 
ATOM     17  C   UNL     1       0.013  -0.125   0.272  0.00  0.00    +0.007 A 
ATOM     18  F   UNL     1       3.583  -0.775   0.218  0.00  0.00    -0.205 F 
ENDBRANCH   1  16
BRANCH   6  19
ATOM     19  O   UNL     1      -5.094  -2.789  -0.874  0.00  0.00    -0.425 OA
BRANCH  19  20
ATOM     20  C   UNL     1      -5.725  -1.655  -0.530  0.00  0.00    +0.330 C 
ATOM     21  O   UNL     1      -5.097  -0.631  -0.397  0.00  0.00    -0.249 OA
BRANCH  20  22
ATOM     22  C   UNL     1      -7.216  -1.659  -0.309  0.00  0.00    +0.165 C 
BRANCH  22  23
ATOM     23  N   UNL     1      -7.731  -0.288  -0.420  0.00  0.00    -0.318 NA
ATOM     24  H   UNL     1      -8.737  -0.272  -0.340  0.00  0.00    +0.119 HD
ATOM     25  H   UNL     1      -7.304   0.316   0.267  0.00  0.00    +0.119 HD
ENDBRANCH  22  23
BRANCH  22  26
ATOM     26  C   UNL     1      -7.523  -2.208   1.085  0.00  0.00    +0.063 C 
BRANCH  26  27
ATOM     27  C   UNL     1      -9.015  -2.327   1.261  0.00  0.00    -0.040 C 
ATOM     28  C   UNL     1      -9.772  -3.430   1.060  0.00  0.00    -0.001 A 
ATOM     29  C   UNL     1      -9.445  -4.796   0.634  0.00  0.00    +0.010 A 
ATOM     30  C   UNL     1     -10.441  -5.704   0.520  0.00  0.00    +0.001 A 
ATOM     31  C   UNL     1     -11.774  -5.374   0.798  0.00  0.00    +0.002 A 
ATOM     32  C   UNL     1     -12.153  -4.140   1.195  0.00  0.00    +0.026 A 
ATOM     33  C   UNL     1     -11.188  -3.107   1.348  0.00  0.00    +0.043 A 
ATOM     34  N   UNL     1     -11.302  -1.853   1.712  0.00  0.00    -0.380 N 
ATOM     35  C   UNL     1      -9.969  -1.240   1.703  0.00  0.00    +0.144 C 
ATOM     36  H   UNL     1     -12.128  -1.406   1.952  0.00  0.00    +0.160 HD
ENDBRANCH  26  27
ENDBRANCH  22  26
ENDBRANCH  20  22
ENDBRANCH  19  20
ENDBRANCH   6  19
TORSDOF 7
