REMARK  Name = ZINC09836752
REMARK  12 active torsions:
REMARK  status: ('A' for Active; 'I' for Inactive)
REMARK    1  A    between atoms: C_1  and  C_2
REMARK    2  A    between atoms: C_2  and  O_3
REMARK    3  A    between atoms: O_3  and  C_4
REMARK    4  A    between atoms: C_7  and  N_10
REMARK    5  A    between atoms: C_11  and  C_30
REMARK    6  A    between atoms: C_14  and  S_15
REMARK    7  A    between atoms: S_15  and  C_16
REMARK    8  A    between atoms: C_16  and  C_17
REMARK    9  A    between atoms: N_19  and  N_20
REMARK   10  A    between atoms: C_21  and  C_22
REMARK   11  A    between atoms: C_21  and  C_23
REMARK   12  A    between atoms: C_28  and  O_29
REMARK                            x       y       z     vdW  Elec       q    Type
REMARK                         _______ _______ _______ _____ _____    ______ ____
ROOT
ATOM      1  N   UNL     1       1.323  -6.460  -1.289  0.00  0.00    -0.270 N 
ATOM      2  C   UNL     1       2.432  -7.267  -1.415  0.00  0.00    +0.169 A 
ATOM      3  N   UNL     1       1.999  -8.480  -1.671  0.00  0.00    -0.128 NA
ATOM      4  N   UNL     1       0.715  -8.488  -1.715  0.00  0.00    -0.122 NA
ATOM      5  C   UNL     1       0.246  -7.282  -1.483  0.00  0.00    +0.197 A 
ENDROOT
BRANCH   2   6
ATOM      6  C   UNL     1       3.843  -6.848  -1.285  0.00  0.00    +0.020 A 
ATOM      7  C   UNL     1       4.161  -5.646  -0.649  0.00  0.00    +0.013 A 
ATOM      8  C   UNL     1       5.480  -5.260  -0.531  0.00  0.00    +0.021 A 
ATOM      9  C   UNL     1       6.488  -6.062  -1.041  0.00  0.00    +0.041 A 
ATOM     10  C   UNL     1       6.178  -7.255  -1.672  0.00  0.00    +0.021 A 
ATOM     11  C   UNL     1       4.864  -7.654  -1.792  0.00  0.00    +0.013 A 
ATOM     12 CL   UNL     1       8.145  -5.569  -0.889  0.00  0.00    -0.084 Cl
ENDBRANCH   2   6
BRANCH   1  16
ATOM     13  C   UNL     1       1.260  -2.370  -0.471  0.00  0.00    +0.121 A 
ATOM     14  C   UNL     1       0.799  -3.273   0.475  0.00  0.00    +0.047 A 
ATOM     15  C   UNL     1       0.820  -4.627   0.205  0.00  0.00    +0.030 A 
ATOM     16  C   UNL     1       1.301  -5.085  -1.014  0.00  0.00    +0.051 A 
ATOM     17  C   UNL     1       1.762  -4.180  -1.961  0.00  0.00    +0.030 A 
ATOM     18  C   UNL     1       1.736  -2.826  -1.692  0.00  0.00    +0.047 A 
BRANCH  13  19
ATOM     19  O   UNL     1       1.239  -1.037  -0.205  0.00  0.00    -0.492 OA
BRANCH  19  21
ATOM     20  C   UNL     1       0.790   0.886   1.187  0.00  0.00    +0.048 C 
ATOM     21  C   UNL     1       0.735  -0.638   1.071  0.00  0.00    +0.225 C 
ENDBRANCH  19  21
ENDBRANCH  13  19
ENDBRANCH   1  16
BRANCH   5  22
ATOM     22  S   UNL     1      -1.451  -6.811  -1.434  0.00  0.00    -0.076 S 
BRANCH  22  23
ATOM     23  C   UNL     1      -2.345  -8.354  -1.767  0.00  0.00    +0.174 C 
BRANCH  23  24
ATOM     24  C   UNL     1      -3.828  -8.088  -1.753  0.00  0.00    +0.242 C 
ATOM     25  O   UNL     1      -4.242  -6.968  -1.540  0.00  0.00    -0.273 OA
ATOM     26  N   UNL     1      -4.695  -9.095  -1.978  0.00  0.00    -0.206 N 
ATOM     27  H   UNL     1      -4.364  -9.991  -2.149  0.00  0.00    +0.177 HD
BRANCH  26  28
ATOM     28  N   UNL     1      -6.074  -8.848  -1.966  0.00  0.00    -0.184 NA
ATOM     29  C   UNL     1      -6.910  -9.831  -2.101  0.00  0.00    +0.067 C 
ATOM     30  C   UNL     1      -8.393  -9.576  -2.016  0.00  0.00    +0.068 C 
BRANCH  29  31
ATOM     31  C   UNL     1      -6.410 -11.197  -2.336  0.00  0.00    +0.039 A 
ATOM     32  C   UNL     1      -5.665 -11.851  -1.353  0.00  0.00    +0.013 A 
ATOM     33  C   UNL     1      -5.200 -13.130  -1.580  0.00  0.00    +0.001 A 
ATOM     34  C   UNL     1      -5.470 -13.768  -2.778  0.00  0.00    +0.004 A 
ATOM     35  C   UNL     1      -6.206 -13.132  -3.759  0.00  0.00    +0.046 A 
ATOM     36  C   UNL     1      -6.686 -11.850  -3.546  0.00  0.00    +0.126 A 
BRANCH  36  37
ATOM     37  O   UNL     1      -7.414 -11.225  -4.507  0.00  0.00    -0.506 OA
ATOM     38  H   UNL     1      -6.880 -10.777  -5.176  0.00  0.00    +0.292 HD
ENDBRANCH  36  37
ENDBRANCH  29  31
ENDBRANCH  26  28
ENDBRANCH  23  24
ENDBRANCH  22  23
ENDBRANCH   5  22
TORSDOF 10
