REMARK  Name = ZINC20357240
REMARK  16 active torsions:
REMARK  status: ('A' for Active; 'I' for Inactive)
REMARK    1  A    between atoms: C_1  and  C_2
REMARK    2  A    between atoms: C_5  and  C_35
REMARK    3  A    between atoms: C_6  and  N_8
REMARK    4  A    between atoms: N_8  and  C_9
REMARK    5  A    between atoms: C_9  and  N_11
REMARK    6  A    between atoms: N_11  and  C_12
REMARK    7  A    between atoms: C_12  and  C_13
REMARK    8  A    between atoms: C_13  and  C_34
REMARK    9  A    between atoms: C_15  and  N_22
REMARK   10  A    between atoms: C_18  and  C_20
REMARK   11  A    between atoms: C_18  and  C_21
REMARK   12  A    between atoms: N_22  and  C_23
REMARK   13  A    between atoms: C_23  and  N_25
REMARK   14  A    between atoms: N_25  and  C_26
REMARK   15  A    between atoms: C_28  and  C_33
REMARK   16  A    between atoms: C_31  and  C_32
REMARK                            x       y       z     vdW  Elec       q    Type
REMARK                         _______ _______ _______ _____ _____    ______ ____
ROOT
ATOM      1  C   UNL     1      -9.162   1.793  -1.309  0.00  0.00    -0.014 C 
ATOM      2  C   UNL     1      -8.423   2.237  -0.049  0.00  0.00    +0.030 C 
ATOM      3  C   UNL     1      -6.945   2.474  -0.355  0.00  0.00    +0.073 C 
ATOM      4  C   UNL     1      -6.831   3.606  -1.374  0.00  0.00    +0.028 C 
ATOM      5  C   UNL     1      -7.529   3.237  -2.677  0.00  0.00    -0.033 C 
ATOM      6  C   UNL     1      -8.952   2.754  -2.465  0.00  0.00    +0.014 C 
ATOM      7  C   UNL     1      -6.701   2.197  -3.438  0.00  0.00    +0.011 C 
ATOM      8  C   UNL     1      -7.585   4.508  -3.554  0.00  0.00    +0.011 C 
ATOM      9  C   UNL     1      -8.749   0.369  -1.687  0.00  0.00    +0.013 C 
ENDROOT
BRANCH   3  10
ATOM     10  N   UNL     1      -6.257   2.870   0.882  0.00  0.00    -0.323 N 
ATOM     11  H   UNL     1      -6.823   3.343   1.698  0.00  0.00    +0.148 HD
BRANCH  10  12
ATOM     12  C   UNL     1      -4.934   2.653   1.016  0.00  0.00    +0.135 C 
ATOM     13  S   UNL     1      -4.054   1.916  -0.254  0.00  0.00    -0.019 S 
BRANCH  12  14
ATOM     14  N   UNL     1      -4.303   3.016   2.151  0.00  0.00    -0.297 N 
ATOM     15  H   UNL     1      -4.878   3.438   2.988  0.00  0.00    +0.154 HD
BRANCH  14  16
ATOM     16  C   UNL     1      -2.918   2.855   2.263  0.00  0.00    +0.036 A 
ATOM     17  C   UNL     1      -2.098   3.101   1.169  0.00  0.00    +0.027 A 
ATOM     18  C   UNL     1      -0.732   2.936   1.282  0.00  0.00    -0.049 A 
ATOM     19  C   UNL     1      -0.179   2.536   2.485  0.00  0.00    +0.004 A 
ATOM     20  C   UNL     1      -0.992   2.296   3.577  0.00  0.00    +0.005 A 
ATOM     21  C   UNL     1      -2.360   2.454   3.469  0.00  0.00    -0.029 A 
ATOM     22  C   UNL     1      -3.246   2.191   4.660  0.00  0.00    +0.045 C 
ATOM     23  C   UNL     1       0.159   3.198   0.095  0.00  0.00    +0.044 C 
ENDBRANCH  14  16
ENDBRANCH  12  14
ENDBRANCH  10  12
ENDBRANCH   3  10
BRANCH   1  24
ATOM     24  C   UNL     1     -10.671   1.764  -0.980  0.00  0.00    +0.110 C 
BRANCH  24  25
ATOM     25  N   UNL     1     -10.915   0.822   0.114  0.00  0.00    -0.326 N 
ATOM     26  H   UNL     1     -10.075   0.269   0.562  0.00  0.00    +0.148 HD
BRANCH  25  27
ATOM     27  C   UNL     1     -12.168   0.631   0.573  0.00  0.00    +0.135 C 
ATOM     28  S   UNL     1     -13.474   1.491  -0.124  0.00  0.00    -0.019 S 
BRANCH  27  29
ATOM     29  N   UNL     1     -12.392  -0.236   1.580  0.00  0.00    -0.297 N 
ATOM     30  H   UNL     1     -11.545  -0.729   2.080  0.00  0.00    +0.154 HD
BRANCH  29  36
ATOM     31  C   UNL     1     -16.880   1.380   2.769  0.00  0.00    +0.044 C 
ATOM     32  C   UNL     1     -15.898   0.254   2.572  0.00  0.00    -0.049 A 
ATOM     33  C   UNL     1     -16.292  -1.053   2.795  0.00  0.00    +0.004 A 
ATOM     34  C   UNL     1     -15.395  -2.089   2.614  0.00  0.00    +0.005 A 
ATOM     35  C   UNL     1     -14.102  -1.822   2.206  0.00  0.00    -0.029 A 
ATOM     36  C   UNL     1     -13.702  -0.511   1.988  0.00  0.00    +0.036 A 
ATOM     37  C   UNL     1     -14.606   0.528   2.170  0.00  0.00    +0.027 A 
ATOM     38  C   UNL     1     -13.126  -2.953   2.004  0.00  0.00    +0.045 C 
ENDBRANCH  29  36
ENDBRANCH  27  29
ENDBRANCH  25  27
ENDBRANCH  24  25
ENDBRANCH   1  24
TORSDOF 9
