REMARK  Name = ZINC36029187
REMARK  7 active torsions:
REMARK  status: ('A' for Active; 'I' for Inactive)
REMARK    1  A    between atoms: C_1  and  C_2
REMARK    2  A    between atoms: C_2  and  C_3
REMARK    3  A    between atoms: C_3  and  C_5
REMARK    4  A    between atoms: C_3  and  C_6
REMARK    5  A    between atoms: N_10  and  C_29
REMARK    6  A    between atoms: N_15  and  S_18
REMARK    7  A    between atoms: S_18  and  C_21
REMARK                            x       y       z     vdW  Elec       q    Type
REMARK                         _______ _______ _______ _____ _____    ______ ____
ROOT
ATOM      1  C   UNL     1       0.675  -2.165  -1.065  0.00  0.00    +0.022 C 
ATOM      2  C   UNL     1      -0.770  -2.574  -1.244  0.00  0.00    +0.200 C 
ATOM      3  O   UNL     1      -1.716  -2.151  -0.618  0.00  0.00    -0.277 OA
ATOM      4  N   UNL     1      -0.829  -3.501  -2.232  0.00  0.00    -0.317 N 
ATOM      5  C   UNL     1       0.529  -3.826  -2.667  0.00  0.00    +0.005 C 
ATOM      6  N   UNL     1       1.332  -2.614  -2.317  0.00  0.00    +0.401 N 
ATOM      7  C   UNL     1       0.634  -4.027  -4.168  0.00  0.00    +0.023 C 
ATOM      8  C   UNL     1       0.172  -5.398  -4.642  0.00  0.00    +0.109 C 
ATOM      9  N   UNL     1       0.705  -6.448  -3.770  0.00  0.00    -0.177 NA
ATOM     10  C   UNL     1       0.500  -6.322  -2.321  0.00  0.00    +0.109 C 
ATOM     11  C   UNL     1       1.099  -4.991  -1.868  0.00  0.00    +0.023 C 
ATOM     12  C   UNL     1      -2.083  -4.051  -2.750  0.00  0.00    +0.130 C 
ATOM     13  H   UNL     1       1.244  -1.923  -3.041  0.00  0.00    -0.082 HD
ATOM     14  H   UNL     1       2.289  -2.871  -2.154  0.00  0.00    -0.082 HD
ENDROOT
BRANCH   9  15
ATOM     15  S   UNL     1       1.520  -7.745  -4.400  0.00  0.00    +0.062 S 
ATOM     16  O   UNL     1       1.546  -8.740  -3.385  0.00  0.00    -0.153 OA
ATOM     17  O   UNL     1       0.969  -7.984  -5.688  0.00  0.00    -0.153 OA
BRANCH  15  18
ATOM     18  C   UNL     1       3.189  -7.239  -4.652  0.00  0.00    +0.125 A 
ATOM     19  C   UNL     1       3.686  -7.111  -5.935  0.00  0.00    +0.030 A 
ATOM     20  C   UNL     1       4.995  -6.714  -6.133  0.00  0.00    +0.003 A 
ATOM     21  C   UNL     1       5.809  -6.445  -5.049  0.00  0.00    +0.021 A 
ATOM     22  C   UNL     1       5.313  -6.572  -3.764  0.00  0.00    +0.061 A 
ATOM     23  C   UNL     1       4.000  -6.964  -3.565  0.00  0.00    +0.086 A 
ATOM     24 CL   UNL     1       3.373  -7.117  -1.953  0.00  0.00    -0.080 Cl
ATOM     25 CL   UNL     1       6.334  -6.235  -2.401  0.00  0.00    -0.082 Cl
ENDBRANCH  15  18
ENDBRANCH   9  15
BRANCH   1  26
ATOM     26  C   UNL     1       0.787  -0.647  -0.916  0.00  0.00    -0.020 C 
ATOM     27  C   UNL     1       2.262  -0.251  -0.824  0.00  0.00    +0.006 C 
BRANCH  26  29
ATOM     28  C   UNL     1       0.063   1.324   0.437  0.00  0.00    +0.004 C 
ATOM     29  C   UNL     1       0.059  -0.204   0.354  0.00  0.00    -0.001 C 
ENDBRANCH  26  29
ENDBRANCH   1  26
TORSDOF 4
