REMARK  Name = ZINC17113742
REMARK  13 active torsions:
REMARK  status: ('A' for Active; 'I' for Inactive)
REMARK    1  A    between atoms: C_1  and  C_2
REMARK    2  A    between atoms: C_2  and  C_3
REMARK    3  A    between atoms: C_2  and  N_4
REMARK    4  A    between atoms: C_5  and  C_29
REMARK    5  A    between atoms: N_7  and  C_10
REMARK    6  A    between atoms: C_12  and  N_25
REMARK    7  A    between atoms: C_14  and  O_24
REMARK    8  A    between atoms: C_16  and  O_23
REMARK    9  A    between atoms: C_18  and  C_21
REMARK   10  A    between atoms: C_21  and  O_22
REMARK   11  A    between atoms: C_26  and  C_28
REMARK   12  A    between atoms: C_29  and  O_30
REMARK   13  A    between atoms: O_30  and  C_31
REMARK                            x       y       z     vdW  Elec       q    Type
REMARK                         _______ _______ _______ _____ _____    ______ ____
ROOT
ATOM      1  N   UNL     1       1.379   1.581  -0.174  0.00  0.00    -0.302 N 
ATOM      2  C   UNL     1       2.481   0.841   0.179  0.00  0.00    +0.170 A 
ATOM      3  N   UNL     1       3.501   1.631   0.276  0.00  0.00    -0.150 NA
ATOM      4  N   UNL     1       3.072   2.934  -0.011  0.00  0.00    -0.209 N 
ATOM      5  C   UNL     1       1.753   2.871  -0.286  0.00  0.00    +0.181 A 
ATOM      6  S   UNL     1       0.740   4.187  -0.701  0.00  0.00    -0.011 S 
ENDROOT
BRANCH   4   7
ATOM      7  C   UNL     1       3.903   4.141  -0.012  0.00  0.00    +0.262 C 
ATOM      8  C   UNL     1       4.412   4.412   1.406  0.00  0.00    +0.155 C 
ATOM      9  C   UNL     1       5.293   3.242   1.856  0.00  0.00    +0.170 C 
ATOM     10  C   UNL     1       6.436   3.062   0.853  0.00  0.00    +0.176 C 
ATOM     11  C   UNL     1       5.848   2.844  -0.544  0.00  0.00    +0.177 C 
ATOM     12  O   UNL     1       5.016   3.953  -0.888  0.00  0.00    -0.345 OA
BRANCH   8  13
ATOM     13  N   UNL     1       3.273   4.548   2.317  0.00  0.00    -0.306 N 
ATOM     14  C   UNL     1       3.402   5.260   3.455  0.00  0.00    +0.210 C 
ATOM     15  O   UNL     1       4.460   5.787   3.724  0.00  0.00    -0.276 OA
ATOM     16  C   UNL     1       2.230   5.400   4.392  0.00  0.00    +0.109 C 
ATOM     17  H   UNL     1       2.427   4.126   2.102  0.00  0.00    +0.149 HD
ENDBRANCH   8  13
BRANCH  10  18
ATOM     18  O   UNL     1       7.256   4.233   0.848  0.00  0.00    -0.387 OA
ATOM     19  H   UNL     1       8.001   4.188   0.234  0.00  0.00    +0.210 HD
ENDBRANCH  10  18
BRANCH   9  20
ATOM     20  O   UNL     1       5.832   3.520   3.150  0.00  0.00    -0.387 OA
ATOM     21  H   UNL     1       6.401   2.820   3.498  0.00  0.00    +0.210 HD
ENDBRANCH   9  20
BRANCH  11  22
ATOM     22  C   UNL     1       6.984   2.723  -1.562  0.00  0.00    +0.190 C 
BRANCH  22  23
ATOM     23  O   UNL     1       6.442   2.403  -2.845  0.00  0.00    -0.392 OA
ATOM     24  H   UNL     1       7.107   2.311  -3.541  0.00  0.00    +0.210 HD
ENDBRANCH  22  23
ENDBRANCH  11  22
ENDBRANCH   4   7
BRANCH   1  26
ATOM     25  C   UNL     1      -0.417   1.361  -1.819  0.00  0.00    +0.030 C 
ATOM     26  C   UNL     1       0.027   1.058  -0.387  0.00  0.00    +0.085 C 
ATOM     27  C   UNL     1      -0.937   1.722   0.598  0.00  0.00    +0.030 C 
ENDBRANCH   1  26
BRANCH   2  28
ATOM     28  C   UNL     1       2.499  -0.648   0.413  0.00  0.00    +0.305 C 
BRANCH  28  29
ATOM     29  O   UNL     1       2.787  -1.319  -0.815  0.00  0.00    -0.483 OA
BRANCH  29  30
ATOM     30  C   UNL     1       2.841  -2.677  -0.777  0.00  0.00    +0.139 A 
ATOM     31  C   UNL     1       2.621  -3.349   0.416  0.00  0.00    +0.047 A 
ATOM     32  C   UNL     1       2.676  -4.729   0.451  0.00  0.00    +0.004 A 
ATOM     33  C   UNL     1       2.950  -5.441  -0.702  0.00  0.00    +0.002 A 
ATOM     34  C   UNL     1       3.170  -4.775  -1.893  0.00  0.00    +0.023 A 
ATOM     35  C   UNL     1       3.111  -3.394  -1.935  0.00  0.00    +0.083 A 
ATOM     36 CL   UNL     1       3.380  -2.558  -3.433  0.00  0.00    -0.080 Cl
ENDBRANCH  29  30
ENDBRANCH  28  29
ENDBRANCH   2  28
TORSDOF 10
