REMARK  Name = ZINC36206439
REMARK  14 active torsions:
REMARK  status: ('A' for Active; 'I' for Inactive)
REMARK    1  A    between atoms: C_1  and  C_2
REMARK    2  A    between atoms: C_5  and  C_9
REMARK    3  A    between atoms: C_6  and  C_8
REMARK    4  A    between atoms: C_18  and  C_20
REMARK    5  A    between atoms: C_20  and  N_21
REMARK    6  A    between atoms: N_21  and  C_22
REMARK    7  A    between atoms: N_21  and  C_26
REMARK    8  A    between atoms: C_22  and  C_23
REMARK    9  A    between atoms: C_23  and  C_24
REMARK   10  A    between atoms: C_23  and  C_25
REMARK   11  A    between atoms: C_26  and  C_27
REMARK   12  A    between atoms: C_27  and  C_28
REMARK   13  A    between atoms: C_27  and  C_29
REMARK   14  A    between atoms: C_27  and  O_30
REMARK                            x       y       z     vdW  Elec       q    Type
REMARK                         _______ _______ _______ _____ _____    ______ ____
ROOT
ATOM      1  C   UNL     1      -2.155  -3.332  -0.782  0.00  0.00    +0.004 A 
ATOM      2  C   UNL     1      -0.842  -3.557  -1.028  0.00  0.00    +0.056 A 
ATOM      3  S   UNL     1      -0.609  -5.247  -0.514  0.00  0.00    -0.076 S 
ATOM      4  C   UNL     1      -2.263  -5.610   0.014  0.00  0.00    +0.116 A 
ATOM      5  C   UNL     1      -2.956  -4.410  -0.215  0.00  0.00    +0.080 A 
ATOM      6  C   UNL     1      -4.344  -4.419   0.136  0.00  0.00    +0.260 A 
ATOM      7  O   UNL     1      -5.031  -3.426  -0.031  0.00  0.00    -0.267 OA
ATOM      8  N   UNL     1      -4.880  -5.541   0.651  0.00  0.00    -0.312 N 
ATOM      9  H   UNL     1      -5.820  -5.553   0.890  0.00  0.00    +0.170 HD
ATOM     10  C   UNL     1      -4.130  -6.657   0.842  0.00  0.00    +0.094 A 
ATOM     11  N   UNL     1      -2.864  -6.683   0.523  0.00  0.00    -0.229 NA
ENDROOT
BRANCH   1  16
ATOM     12  C   UNL     1      -4.522   1.790  -1.931  0.00  0.00    +0.044 C 
ATOM     13  C   UNL     1      -3.902   0.449  -1.630  0.00  0.00    -0.050 A 
ATOM     14  C   UNL     1      -3.422  -0.336  -2.664  0.00  0.00    +0.004 A 
ATOM     15  C   UNL     1      -2.854  -1.564  -2.394  0.00  0.00    +0.009 A 
ATOM     16  C   UNL     1      -2.764  -2.013  -1.077  0.00  0.00    -0.014 A 
ATOM     17  C   UNL     1      -3.249  -1.218  -0.041  0.00  0.00    -0.042 A 
ATOM     18  C   UNL     1      -3.811   0.011  -0.322  0.00  0.00    +0.007 A 
ATOM     19  C   UNL     1      -3.156  -1.697   1.385  0.00  0.00    +0.044 C 
ENDBRANCH   1  16
BRANCH  10  20
ATOM     20  C   UNL     1      -4.773  -7.891   1.421  0.00  0.00    -0.003 C 
BRANCH  20  21
ATOM     21  N   UNL     1      -3.813  -9.002   1.392  0.00  0.00    +0.386 N 
ATOM     22  H   UNL     1      -2.958  -8.721   1.849  0.00  0.00    -0.081 HD
BRANCH  21  23
ATOM     23  C   UNL     1      -4.384 -10.160   2.093  0.00  0.00    -0.075 C 
BRANCH  23  24
ATOM     24  C   UNL     1      -3.345 -11.282   2.156  0.00  0.00    -0.034 C 
ATOM     25  C   UNL     1      -2.161 -10.832   3.014  0.00  0.00    +0.005 C 
ATOM     26  C   UNL     1      -3.978 -12.530   2.774  0.00  0.00    +0.005 C 
ENDBRANCH  23  24
ENDBRANCH  21  23
BRANCH  21  27
ATOM     27  C   UNL     1      -3.527  -9.366  -0.002  0.00  0.00    -0.044 C 
BRANCH  27  28
ATOM     28  C   UNL     1      -4.820  -9.313  -0.818  0.00  0.00    +0.046 C 
ATOM     29  C   UNL     1      -4.565  -9.884  -2.215  0.00  0.00    +0.039 C 
ATOM     30  C   UNL     1      -5.899 -10.142  -0.118  0.00  0.00    +0.039 C 
BRANCH  28  31
ATOM     31  O   UNL     1      -5.258  -7.957  -0.930  0.00  0.00    -0.391 OA
ATOM     32  H   UNL     1      -6.112  -7.855  -1.370  0.00  0.00    +0.210 HD
ENDBRANCH  28  31
ENDBRANCH  27  28
ENDBRANCH  21  27
ENDBRANCH  20  21
ENDBRANCH  10  20
TORSDOF 8
