REMARK  Name = ZINC40151466
REMARK  8 active torsions:
REMARK  status: ('A' for Active; 'I' for Inactive)
REMARK    1  A    between atoms: C_1  and  C_2
REMARK    2  A    between atoms: C_3  and  C_33
REMARK    3  A    between atoms: N_4  and  C_28
REMARK    4  A    between atoms: C_5  and  N_9
REMARK    5  A    between atoms: C_6  and  C_7
REMARK    6  A    between atoms: C_10  and  C_12
REMARK    7  A    between atoms: C_12  and  N_13
REMARK    8  A    between atoms: C_17  and  C_20
REMARK                            x       y       z     vdW  Elec       q    Type
REMARK                         _______ _______ _______ _____ _____    ______ ____
ROOT
ATOM      1  N   UNL     1       0.208  -3.410   1.440  0.00  0.00    -0.272 N 
ATOM      2  C   UNL     1       0.315  -4.610   0.834  0.00  0.00    +0.202 C 
ATOM      3  O   UNL     1       0.617  -4.672  -0.339  0.00  0.00    -0.278 OA
ATOM      4  H   UNL     1       0.046  -3.362   2.395  0.00  0.00    +0.156 HD
ENDROOT
BRANCH   1   9
ATOM      5  C   UNL     1       0.112  -0.029  -2.315  0.00  0.00    +0.047 C 
ATOM      6  C   UNL     1       0.299  -0.695  -0.976  0.00  0.00    -0.011 A 
ATOM      7  C   UNL     1       0.774  -0.125   0.144  0.00  0.00    +0.022 A 
ATOM      8  N   UNL     1       0.793  -1.053   1.151  0.00  0.00    -0.329 N 
ATOM      9  C   UNL     1       0.329  -2.245   0.697  0.00  0.00    +0.123 A 
ATOM     10  C   UNL     1      -0.008  -2.091  -0.641  0.00  0.00    +0.095 A 
ATOM     11  C   UNL     1       1.216   1.310   0.272  0.00  0.00    +0.064 C 
BRANCH   8  12
ATOM     12  C   UNL     1       1.250  -0.796   2.519  0.00  0.00    +0.089 C 
ATOM     13  C   UNL     1       2.302  -1.846   2.930  0.00  0.00    +0.025 C 
ATOM     14  C   UNL     1       2.003  -2.119   4.426  0.00  0.00    +0.002 C 
ATOM     15  C   UNL     1       0.455  -2.075   4.477  0.00  0.00    +0.002 C 
ATOM     16  C   UNL     1       0.075  -0.942   3.502  0.00  0.00    +0.025 C 
ENDBRANCH   8  12
BRANCH  10  17
ATOM     17  C   UNL     1      -0.543  -3.090  -1.516  0.00  0.00    +0.103 C 
ATOM     18  N   UNL     1      -0.968  -3.882  -2.210  0.00  0.00    -0.191 NA
ENDBRANCH  10  17
ENDBRANCH   1   9
BRANCH   2  19
ATOM     19  C   UNL     1       0.059  -5.873   1.615  0.00  0.00    +0.019 C 
BRANCH  19  20
ATOM     20  N   UNL     1       0.099  -7.027   0.706  0.00  0.00    +0.386 N 
ATOM     21  C   UNL     1      -1.022  -6.944  -0.238  0.00  0.00    -0.078 C 
ATOM     22  C   UNL     1      -0.938  -8.099  -1.238  0.00  0.00    -0.018 C 
ATOM     23  C   UNL     1      -1.004  -9.428  -0.480  0.00  0.00    +0.009 C 
ATOM     24  C   UNL     1       0.125  -9.472   0.553  0.00  0.00    +0.059 C 
ATOM     25  C   UNL     1       0.002  -8.266   1.487  0.00  0.00    -0.065 C 
ATOM     26  H   UNL     1       0.969  -7.020   0.195  0.00  0.00    -0.081 HD
BRANCH  24  27
ATOM     27  C   UNL     1       0.023 -10.744   1.356  0.00  0.00    +0.220 C 
ATOM     28  O   UNL     1      -0.129 -10.691   2.558  0.00  0.00    -0.275 OA
ATOM     29  N   UNL     1       0.101 -11.939   0.738  0.00  0.00    -0.263 N 
ATOM     30  C   UNL     1       0.006 -13.112   1.479  0.00  0.00    +0.187 A 
ATOM     31  N   UNL     1      -0.164 -13.264   2.778  0.00  0.00    -0.126 NA
ATOM     32  N   UNL     1      -0.231 -14.407   3.313  0.00  0.00    -0.148 NA
ATOM     33  C   UNL     1      -0.128 -15.478   2.553  0.00  0.00    +0.183 A 
ATOM     34  S   UNL     1       0.073 -14.712   0.951  0.00  0.00    -0.039 S 
ATOM     35  H   UNL     1       0.222 -11.981  -0.223  0.00  0.00    +0.157 HD
ENDBRANCH  24  27
ENDBRANCH  19  20
ENDBRANCH   2  19
TORSDOF 6
