REMARK  Name = ZINC09374466
REMARK  12 active torsions:
REMARK  status: ('A' for Active; 'I' for Inactive)
REMARK    1  A    between atoms: C_1  and  C_2
REMARK    2  A    between atoms: C_2  and  N_60
REMARK    3  A    between atoms: C_3  and  C_4
REMARK    4  A    between atoms: C_3  and  N_60
REMARK    5  A    between atoms: C_5  and  C_6
REMARK    6  A    between atoms: C_5  and  N_60
REMARK    7  A    between atoms: C_6  and  C_7
REMARK    8  A    between atoms: C_7  and  N_8
REMARK    9  A    between atoms: C_9  and  C_27
REMARK   10  A    between atoms: C_11  and  C_16
REMARK   11  A    between atoms: C_12  and  O_15
REMARK   12  A    between atoms: C_16  and  C_18
REMARK                            x       y       z     vdW  Elec       q    Type
REMARK                         _______ _______ _______ _____ _____    ______ ____
ROOT
ATOM      1  N   UNL     1      -1.710   6.264   0.559  0.00  0.00    -0.284 N 
ATOM      2  C   UNL     1      -0.664   5.635  -0.256  0.00  0.00    +0.145 C 
ATOM      3  C   UNL     1      -0.736   6.294  -1.614  0.00  0.00    +0.074 C 
ATOM      4  C   UNL     1      -1.734   7.207  -1.553  0.00  0.00    +0.188 C 
ATOM      5  C   UNL     1      -2.332   7.182  -0.202  0.00  0.00    +0.282 C 
ATOM      6  O   UNL     1      -3.251   7.887   0.166  0.00  0.00    -0.267 OA
ENDROOT
BRANCH   2   7
ATOM      7  C   UNL     1      -0.926   4.157  -0.384  0.00  0.00    -0.022 A 
ATOM      8  C   UNL     1       0.122   3.259  -0.295  0.00  0.00    +0.007 A 
ATOM      9  C   UNL     1      -0.117   1.903  -0.412  0.00  0.00    +0.015 A 
ATOM     10  C   UNL     1      -1.405   1.444  -0.619  0.00  0.00    +0.018 A 
ATOM     11  C   UNL     1      -2.453   2.342  -0.713  0.00  0.00    +0.015 A 
ATOM     12  C   UNL     1      -2.213   3.698  -0.590  0.00  0.00    +0.007 A 
ATOM     13 BR   UNL     1      -1.734  -0.412  -0.780  0.00  0.00    -0.050 Br
ENDBRANCH   2   7
BRANCH   4  14
ATOM     14  O   UNL     1      -2.121   8.014  -2.567  0.00  0.00    -0.502 OA
ATOM     15  H   UNL     1      -2.877   8.593  -2.262  0.00  0.00    +0.292 HD
ENDBRANCH   4  14
BRANCH   3  16
ATOM     16  C   UNL     1       0.111   6.002  -2.775  0.00  0.00    +0.230 C 
ATOM     17  O   UNL     1      -0.375   5.505  -3.775  0.00  0.00    -0.284 OA
BRANCH  16  18
ATOM     18  C   UNL     1       1.547   6.308  -2.732  0.00  0.00    +0.176 A 
ATOM     19  C   UNL     1       2.411   6.165  -3.774  0.00  0.00    +0.061 A 
ATOM     20  C   UNL     1       3.719   6.585  -3.276  0.00  0.00    +0.021 A 
ATOM     21  C   UNL     1       4.994   6.673  -3.841  0.00  0.00    +0.011 A 
ATOM     22  C   UNL     1       6.041   7.119  -3.084  0.00  0.00    +0.001 A 
ATOM     23  C   UNL     1       5.845   7.486  -1.760  0.00  0.00    +0.004 A 
ATOM     24  C   UNL     1       4.596   7.406  -1.183  0.00  0.00    +0.047 A 
ATOM     25  C   UNL     1       3.515   6.956  -1.933  0.00  0.00    +0.136 A 
ATOM     26  O   UNL     1       2.209   6.779  -1.654  0.00  0.00    -0.452 OA
ENDBRANCH  16  18
ENDBRANCH   3  16
BRANCH   1  27
ATOM     27  C   UNL     1      -2.021   5.949   1.956  0.00  0.00    +0.107 C 
BRANCH  27  28
ATOM     28  C   UNL     1      -1.186   6.840   2.878  0.00  0.00    +0.000 C 
BRANCH  28  29
ATOM     29  C   UNL     1      -1.511   6.510   4.336  0.00  0.00    -0.077 C 
BRANCH  29  30
ATOM     30  N   UNL     1      -0.682   7.364   5.214  0.00  0.00    +0.379 N 
ATOM     31  H   UNL     1       0.301   7.280   4.929  0.00  0.00    -0.082 HD
BRANCH  30  33
ATOM     32  C   UNL     1      -2.554   8.946   5.531  0.00  0.00    -0.017 C 
ATOM     33  C   UNL     1      -1.101   8.775   5.087  0.00  0.00    -0.082 C 
ENDBRANCH  30  33
BRANCH  30  34
ATOM     34  C   UNL     1      -0.814   6.922   6.618  0.00  0.00    -0.082 C 
ATOM     35  C   UNL     1       0.304   7.565   7.442  0.00  0.00    -0.017 C 
ENDBRANCH  30  34
ENDBRANCH  29  30
ENDBRANCH  28  29
ENDBRANCH  27  28
ENDBRANCH   1  27
TORSDOF 10
