REMARK  Name = ZINC40847013
REMARK  13 active torsions:
REMARK  status: ('A' for Active; 'I' for Inactive)
REMARK    1  A    between atoms: C_1  and  C_2
REMARK    2  A    between atoms: C_2  and  O_3
REMARK    3  A    between atoms: O_3  and  C_4
REMARK    4  A    between atoms: C_4  and  C_6
REMARK    5  A    between atoms: C_7  and  C_30
REMARK    6  A    between atoms: C_8  and  C_25
REMARK    7  A    between atoms: C_10  and  N_11
REMARK    8  A    between atoms: N_14  and  N_15
REMARK    9  A    between atoms: C_16  and  C_17
REMARK   10  A    between atoms: C_20  and  O_24
REMARK   11  A    between atoms: C_25  and  O_27
REMARK   12  A    between atoms: O_27  and  C_28
REMARK   13  A    between atoms: C_28  and  C_29
REMARK                            x       y       z     vdW  Elec       q    Type
REMARK                         _______ _______ _______ _____ _____    ______ ____
ROOT
ATOM      1  N   UNL     1      -3.037  -2.524   2.503  0.00  0.00    -0.262 N 
ATOM      2  C   UNL     1      -3.810  -2.867   3.552  0.00  0.00    +0.324 C 
ATOM      3  O   UNL     1      -4.915  -3.339   3.364  0.00  0.00    -0.251 OA
ATOM      4  N   UNL     1      -3.360  -2.687   4.809  0.00  0.00    -0.191 N 
ATOM      5  H   UNL     1      -2.155  -2.148   2.653  0.00  0.00    +0.157 HD
ATOM      6  H   UNL     1      -3.917  -2.933   5.564  0.00  0.00    +0.179 HD
ENDROOT
BRANCH   1  11
ATOM      7  C   UNL     1      -2.845  -2.417   0.016  0.00  0.00    +0.091 A 
ATOM      8  C   UNL     1      -3.515  -2.699  -1.166  0.00  0.00    -0.014 A 
ATOM      9  C   UNL     1      -4.768  -3.238  -1.040  0.00  0.00    +0.102 A 
ATOM     10  S   UNL     1      -4.977  -3.336   0.726  0.00  0.00    -0.066 S 
ATOM     11  C   UNL     1      -3.498  -2.709   1.216  0.00  0.00    +0.088 A 
ATOM     12  C   UNL     1      -2.898  -2.427  -2.514  0.00  0.00    +0.046 C 
BRANCH   7  13
ATOM     13  C   UNL     1      -1.497  -1.838   0.006  0.00  0.00    +0.342 C 
ATOM     14  O   UNL     1      -0.523  -2.565  -0.007  0.00  0.00    -0.245 OA
BRANCH  13  15
ATOM     15  O   UNL     1      -1.339  -0.499   0.012  0.00  0.00    -0.461 OA
BRANCH  15  17
ATOM     16  C   UNL     1      -0.019   1.526   0.010  0.00  0.00    +0.048 C 
ATOM     17  C   UNL     1       0.002  -0.004   0.002  0.00  0.00    +0.229 C 
ENDBRANCH  15  17
ENDBRANCH  13  15
ENDBRANCH   7  13
BRANCH   9  18
ATOM     18  C   UNL     1      -5.701  -3.634  -2.094  0.00  0.00    +0.346 C 
ATOM     19  O   UNL     1      -5.393  -3.496  -3.263  0.00  0.00    -0.244 OA
BRANCH  18  20
ATOM     20  O   UNL     1      -6.904  -4.152  -1.770  0.00  0.00    -0.461 OA
BRANCH  20  21
ATOM     21  C   UNL     1      -7.766  -4.517  -2.850  0.00  0.00    +0.229 C 
ATOM     22  C   UNL     1      -9.073  -5.081  -2.291  0.00  0.00    +0.048 C 
ENDBRANCH  20  21
ENDBRANCH  18  20
ENDBRANCH   9  18
ENDBRANCH   1  11
BRANCH   4  23
ATOM     23  N   UNL     1      -2.087  -2.142   5.026  0.00  0.00    -0.186 NA
ATOM     24  C   UNL     1      -1.653  -1.968   6.237  0.00  0.00    +0.138 C 
BRANCH  24  25
ATOM     25  C   UNL     1      -0.314  -1.396   6.464  0.00  0.00    -0.004 A 
ATOM     26  C   UNL     1       0.488  -1.034   5.378  0.00  0.00    +0.013 A 
ATOM     27  C   UNL     1       1.739  -0.500   5.596  0.00  0.00    +0.047 A 
ATOM     28  C   UNL     1       2.204  -0.320   6.892  0.00  0.00    +0.131 A 
ATOM     29  C   UNL     1       1.411  -0.678   7.975  0.00  0.00    +0.060 A 
ATOM     30  C   UNL     1       0.155  -1.208   7.767  0.00  0.00    +0.028 A 
ATOM     31 BR   UNL     1       2.052  -0.430   9.737  0.00  0.00    -0.047 Br
BRANCH  28  32
ATOM     32  O   UNL     1       3.439   0.208   7.101  0.00  0.00    -0.506 OA
ATOM     33  H   UNL     1       3.447   1.172   7.174  0.00  0.00    +0.292 HD
ENDBRANCH  28  32
ENDBRANCH  24  25
ENDBRANCH   4  23
TORSDOF 10
