REMARK  Name = ZINC38703893
REMARK  9 active torsions:
REMARK  status: ('A' for Active; 'I' for Inactive)
REMARK    1  A    between atoms: C_1  and  C_2
REMARK    2  A    between atoms: C_2  and  C_3
REMARK    3  A    between atoms: C_6  and  O_39
REMARK    4  A    between atoms: C_7  and  C_9
REMARK    5  A    between atoms: C_12  and  C_14
REMARK    6  A    between atoms: N_16  and  C_17
REMARK    7  A    between atoms: C_19  and  C_29
REMARK    8  A    between atoms: N_31  and  C_32
REMARK    9  A    between atoms: C_32  and  C_33
REMARK                            x       y       z     vdW  Elec       q    Type
REMARK                         _______ _______ _______ _____ _____    ______ ____
ROOT
ATOM      1  C   UNL     1      -4.843  -1.774  -6.136  0.00  0.00    +0.261 C 
ATOM      2  O   UNL     1      -3.897  -1.430  -6.820  0.00  0.00    -0.269 OA
ATOM      3  N   UNL     1      -5.984  -2.188  -6.724  0.00  0.00    -0.298 N 
ATOM      4  H   UNL     1      -6.738  -2.463  -6.180  0.00  0.00    +0.150 HD
ENDROOT
BRANCH   3   5
ATOM      5  C   UNL     1      -6.084  -2.223  -8.185  0.00  0.00    +0.144 C 
ATOM      6  C   UNL     1      -6.772  -3.514  -8.648  0.00  0.00    +0.109 C 
ATOM      7  C   UNL     1      -8.070  -3.316  -9.414  0.00  0.00    +0.016 C 
ATOM      8  C   UNL     1      -8.029  -4.203 -10.678  0.00  0.00    +0.005 C 
ATOM      9  C   UNL     1      -8.076  -3.255 -11.893  0.00  0.00    +0.001 C 
ATOM     10  C   UNL     1      -7.591  -1.892 -11.334  0.00  0.00    +0.014 C 
ATOM     11  C   UNL     1      -8.244  -1.867  -9.940  0.00  0.00    +0.052 C 
ATOM     12  S   UNL     1      -7.194  -0.892  -8.787  0.00  0.00    -0.134 S 
BRANCH   6  13
ATOM     13  C   UNL     1      -7.063  -4.356  -7.433  0.00  0.00    +0.219 C 
ATOM     14  O   UNL     1      -8.208  -4.639  -7.151  0.00  0.00    -0.275 OA
ATOM     15  N   UNL     1      -6.051  -4.796  -6.659  0.00  0.00    -0.313 N 
ATOM     16  H   UNL     1      -5.135  -4.569  -6.884  0.00  0.00    +0.149 HD
BRANCH  15  17
ATOM     17  C   UNL     1      -6.334  -5.615  -5.478  0.00  0.00    +0.135 C 
BRANCH  17  18
ATOM     18  C   UNL     1      -5.020  -5.978  -4.782  0.00  0.00    +0.135 C 
ATOM     19  C   UNL     1      -5.298  -6.940  -3.607  0.00  0.00    +0.035 C 
ATOM     20  C   UNL     1      -4.312  -6.428  -2.522  0.00  0.00    +0.031 C 
ATOM     21  C   UNL     1      -4.319  -4.906  -2.812  0.00  0.00    +0.160 C 
ATOM     22  O   UNL     1      -4.414  -4.797  -4.243  0.00  0.00    -0.375 OA
ENDBRANCH  17  18
ENDBRANCH  15  17
ENDBRANCH   6  13
ENDBRANCH   3   5
BRANCH   1  26
ATOM     23  C   UNL     1      -4.080  -1.500  -2.428  0.00  0.00    +0.080 C 
ATOM     24  N   UNL     1      -5.306  -1.946  -2.587  0.00  0.00    -0.153 NA
ATOM     25  N   UNL     1      -5.661  -2.074  -3.805  0.00  0.00    -0.148 NA
ATOM     26  C   UNL     1      -4.743  -1.739  -4.675  0.00  0.00    +0.131 C 
ATOM     27  C   UNL     1      -3.552  -1.300  -3.839  0.00  0.00    +0.120 C 
BRANCH  23  32
ATOM     28  C   UNL     1      -1.412  -0.526   0.013  0.00  0.00    -0.047 A 
ATOM     29  C   UNL     1      -2.049  -0.765   1.221  0.00  0.00    +0.007 A 
ATOM     30  C   UNL     1      -3.345  -1.243   1.247  0.00  0.00    +0.046 A 
ATOM     31  C   UNL     1      -4.020  -1.488   0.061  0.00  0.00    +0.126 A 
ATOM     32  C   UNL     1      -3.379  -1.246  -1.167  0.00  0.00    +0.040 A 
ATOM     33  C   UNL     1      -2.065  -0.756  -1.176  0.00  0.00    +0.017 A 
BRANCH  28  35
ATOM     34  C   UNL     1      -0.019   1.526   0.010  0.00  0.00    +0.009 C 
ATOM     35  C   UNL     1       0.002  -0.004   0.002  0.00  0.00    +0.032 C 
ENDBRANCH  28  35
BRANCH  31  36
ATOM     36  O   UNL     1      -5.292  -1.958   0.085  0.00  0.00    -0.506 OA
ATOM     37  H   UNL     1      -5.967  -1.266   0.096  0.00  0.00    +0.292 HD
ENDBRANCH  31  36
ENDBRANCH  23  32
ENDBRANCH   1  26
TORSDOF 8
