REMARK  Name = ZINC38653246
REMARK  14 active torsions:
REMARK  status: ('A' for Active; 'I' for Inactive)
REMARK    1  A    between atoms: C_1  and  C_2
REMARK    2  A    between atoms: C_4  and  C_36
REMARK    3  A    between atoms: C_8  and  C_12
REMARK    4  A    between atoms: C_12  and  C_14
REMARK    5  A    between atoms: C_12  and  S_15
REMARK    6  A    between atoms: S_15  and  C_16
REMARK    7  A    between atoms: C_20  and  C_23
REMARK    8  A    between atoms: N_21  and  N_22
REMARK    9  A    between atoms: C_23  and  O_24
REMARK   10  A    between atoms: O_24  and  C_25
REMARK   11  A    between atoms: C_28  and  C_31
REMARK   12  A    between atoms: C_31  and  C_32
REMARK   13  A    between atoms: C_31  and  C_33
REMARK   14  A    between atoms: C_31  and  C_34
REMARK                            x       y       z     vdW  Elec       q    Type
REMARK                         _______ _______ _______ _____ _____    ______ ____
ROOT
ATOM      1  C   UNL     1       7.539  -5.077  -0.589  0.00  0.00    +0.252 C 
ATOM      2  N   UNL     1       6.959  -6.208   0.156  0.00  0.00    -0.236 N 
ATOM      3  N   UNL     1       7.426  -6.088   1.471  0.00  0.00    -0.169 NA
ATOM      4  C   UNL     1       8.186  -5.064   1.610  0.00  0.00    +0.169 C 
ATOM      5  N   UNL     1       8.338  -4.361   0.421  0.00  0.00    -0.222 N 
ATOM      6  H   UNL     1       6.372  -6.897  -0.194  0.00  0.00    +0.171 HD
ENDROOT
BRANCH   5   7
ATOM      7  N   UNL     1       9.080  -3.231   0.225  0.00  0.00    -0.250 NA
ATOM      8  H   UNL     1       9.532  -2.943   1.080  0.00  0.00    +0.141 HD
ATOM      9  H   UNL     1       9.754  -3.364  -0.513  0.00  0.00    +0.141 HD
ENDBRANCH   5   7
BRANCH   1  10
ATOM     10  S   UNL     1       6.229  -4.005  -1.241  0.00  0.00    -0.106 S 
BRANCH  10  11
ATOM     11  C   UNL     1       5.277  -3.531   0.228  0.00  0.00    +0.112 C 
ATOM     12  C   UNL     1       6.154  -2.688   1.155  0.00  0.00    +0.027 C 
BRANCH  11  19
ATOM     13  C   UNL     1      -0.019   1.526   0.010  0.00  0.00    +0.024 C 
ATOM     14  C   UNL     1       0.002  -0.004   0.002  0.00  0.00    +0.076 C 
ATOM     15  C   UNL     1       0.769  -0.528  -1.190  0.00  0.00    -0.045 C 
ATOM     16  C   UNL     1       1.868  -1.261  -0.953  0.00  0.00    +0.071 C 
ATOM     17  C   UNL     1       2.243  -1.498   0.457  0.00  0.00    +0.111 C 
ATOM     18  N   UNL     1       3.306  -2.207   0.754  0.00  0.00    -0.226 NA
ATOM     19  C   UNL     1       4.072  -2.729  -0.191  0.00  0.00    +0.136 C 
ATOM     20  N   UNL     1       3.837  -2.585  -1.473  0.00  0.00    -0.160 NA
ATOM     21  C   UNL     1       2.796  -1.891  -1.945  0.00  0.00    +0.271 C 
ATOM     22  O   UNL     1       2.607  -1.777  -3.144  0.00  0.00    -0.268 OA
ATOM     23  S   UNL     1       0.997  -0.657   1.404  0.00  0.00    -0.098 S 
ATOM     24  C   UNL     1       0.315  -0.239  -2.598  0.00  0.00    +0.041 C 
ENDBRANCH  11  19
ENDBRANCH  10  11
ENDBRANCH   1  10
BRANCH   4  25
ATOM     25  C   UNL     1       8.840  -4.671   2.910  0.00  0.00    +0.303 C 
BRANCH  25  26
ATOM     26  O   UNL     1       8.477  -5.606   3.928  0.00  0.00    -0.484 OA
BRANCH  26  27
ATOM     27  C   UNL     1       8.986  -5.395   5.170  0.00  0.00    +0.121 A 
ATOM     28  C   UNL     1       9.812  -4.306   5.406  0.00  0.00    +0.046 A 
ATOM     29  C   UNL     1      10.328  -4.093   6.669  0.00  0.00    +0.008 A 
ATOM     30  C   UNL     1      10.021  -4.964   7.699  0.00  0.00    -0.042 A 
ATOM     31  C   UNL     1       9.198  -6.050   7.466  0.00  0.00    +0.008 A 
ATOM     32  C   UNL     1       8.675  -6.264   6.205  0.00  0.00    +0.046 A 
BRANCH  30  33
ATOM     33  C   UNL     1      10.585  -4.729   9.076  0.00  0.00    -0.013 C 
ATOM     34  C   UNL     1      10.120  -3.366   9.592  0.00  0.00    +0.015 C 
ATOM     35  C   UNL     1      10.096  -5.827  10.022  0.00  0.00    +0.015 C 
ATOM     36  C   UNL     1      12.114  -4.755   9.012  0.00  0.00    +0.015 C 
ENDBRANCH  30  33
ENDBRANCH  26  27
ENDBRANCH  25  26
ENDBRANCH   4  25
TORSDOF 8
