REMARK  Name = ZINC36544766
REMARK  13 active torsions:
REMARK  status: ('A' for Active; 'I' for Inactive)
REMARK    1  A    between atoms: C_1  and  C_2
REMARK    2  A    between atoms: C_2  and  C_3
REMARK    3  A    between atoms: C_3  and  C_4
REMARK    4  A    between atoms: C_4  and  N_5
REMARK    5  A    between atoms: C_6  and  C_8
REMARK    6  A    between atoms: C_8  and  C_10
REMARK    7  A    between atoms: C_8  and  N_19
REMARK    8  A    between atoms: C_11  and  O_18
REMARK    9  A    between atoms: C_13  and  O_17
REMARK   10  A    between atoms: C_15  and  O_16
REMARK   11  A    between atoms: N_19  and  C_20
REMARK   12  A    between atoms: C_27  and  C_29
REMARK   13  A    between atoms: C_30  and  C_31
REMARK                            x       y       z     vdW  Elec       q    Type
REMARK                         _______ _______ _______ _____ _____    ______ ____
ROOT
ATOM      1  C   UNL     1       2.298  -4.412   3.848  0.00  0.00    +0.205 C 
ENDROOT
BRANCH   1   2
ATOM      2  C   UNL     1       1.777  -3.420   4.856  0.00  0.00    +0.065 A 
ATOM      3  C   UNL     1       2.288  -3.407   6.145  0.00  0.00    +0.129 A 
ATOM      4  C   UNL     1       1.808  -2.494   7.072  0.00  0.00    +0.091 A 
ATOM      5  C   UNL     1       0.817  -1.594   6.710  0.00  0.00    +0.124 A 
ATOM      6  C   UNL     1       0.307  -1.607   5.420  0.00  0.00    +0.091 A 
ATOM      7  C   UNL     1       0.790  -2.517   4.492  0.00  0.00    +0.129 A 
BRANCH   7   8
ATOM      8  O   UNL     1       0.293  -2.526   3.227  0.00  0.00    -0.506 OA
ATOM      9  H   UNL     1      -0.472  -3.106   3.109  0.00  0.00    +0.292 HD
ENDBRANCH   7   8
BRANCH   5  10
ATOM     10  O   UNL     1       0.347  -0.700   7.618  0.00  0.00    -0.507 OA
ATOM     11  H   UNL     1       0.828   0.138   7.631  0.00  0.00    +0.292 HD
ENDBRANCH   5  10
BRANCH   3  12
ATOM     12  O   UNL     1       3.259  -4.290   6.499  0.00  0.00    -0.506 OA
ATOM     13  H   UNL     1       4.157  -3.976   6.327  0.00  0.00    +0.292 HD
ENDBRANCH   3  12
ENDBRANCH   1   2
BRANCH   1  15
ATOM     14  N   UNL     1       3.059  -2.578   2.374  0.00  0.00    -0.313 N 
ATOM     15  C   UNL     1       2.405  -3.749   2.499  0.00  0.00    +0.239 C 
ATOM     16  O   UNL     1       1.901  -4.270   1.526  0.00  0.00    -0.273 OA
ATOM     17  H   UNL     1       3.461  -2.161   3.152  0.00  0.00    +0.149 HD
BRANCH  14  18
ATOM     18  C   UNL     1       3.162  -1.933   1.062  0.00  0.00    +0.104 C 
BRANCH  18  19
ATOM     19  C   UNL     1       3.948  -0.627   1.196  0.00  0.00    +0.018 C 
BRANCH  19  21
ATOM     20  C   UNL     1       4.842   1.352  -0.040  0.00  0.00    +0.004 C 
ATOM     21  C   UNL     1       4.056   0.046  -0.174  0.00  0.00    -0.002 C 
ENDBRANCH  19  21
ENDBRANCH  18  19
ENDBRANCH  14  18
ENDBRANCH   1  15
BRANCH   1  22
ATOM     22  N   UNL     1       1.379  -5.550   3.762  0.00  0.00    -0.243 N 
ATOM     23  C   UNL     1       1.843  -6.805   3.920  0.00  0.00    +0.297 C 
ATOM     24  O   UNL     1       3.027  -6.994   4.135  0.00  0.00    -0.260 OA
BRANCH  22  25
ATOM     25  C   UNL     1       0.019  -5.333   3.516  0.00  0.00    +0.057 A 
ATOM     26  C   UNL     1      -0.470  -5.385   2.217  0.00  0.00    +0.025 A 
ATOM     27  C   UNL     1      -1.813  -5.170   1.977  0.00  0.00    +0.002 A 
ATOM     28  C   UNL     1      -2.671  -4.904   3.028  0.00  0.00    +0.002 A 
ATOM     29  C   UNL     1      -2.189  -4.852   4.323  0.00  0.00    +0.022 A 
ATOM     30  C   UNL     1      -0.847  -5.072   4.571  0.00  0.00    +0.062 A 
ATOM     31 CL   UNL     1      -0.243  -5.013   6.197  0.00  0.00    -0.082 Cl
ENDBRANCH  22  25
BRANCH  23  32
ATOM     32  C   UNL     1       0.945  -7.917   3.836  0.00  0.00    -0.002 C 
ATOM     33  C   UNL     1       0.208  -8.829   3.767  0.00  0.00    -0.057 C 
BRANCH  33  34
ATOM     34  C   UNL     1      -0.690  -9.940   3.683  0.00  0.00    +0.025 A 
ATOM     35  C   UNL     1      -2.049  -9.728   3.431  0.00  0.00    +0.017 A 
ATOM     36  C   UNL     1      -2.908 -10.804   3.351  0.00  0.00    +0.001 A 
ATOM     37  C   UNL     1      -2.428 -12.091   3.520  0.00  0.00    +0.000 A 
ATOM     38  C   UNL     1      -1.084 -12.309   3.770  0.00  0.00    +0.001 A 
ATOM     39  C   UNL     1      -0.212 -11.244   3.847  0.00  0.00    +0.017 A 
ENDBRANCH  33  34
ENDBRANCH  23  32
ENDBRANCH   1  22
TORSDOF 12
