REMARK  Name = ZINC33626658
REMARK  8 active torsions:
REMARK  status: ('A' for Active; 'I' for Inactive)
REMARK    1  A    between atoms: C_3  and  C_8
REMARK    2  A    between atoms: C_8  and  N_9
REMARK    3  A    between atoms: C_10  and  C_12
REMARK    4  A    between atoms: C_15  and  C_17
REMARK    5  A    between atoms: C_17  and  C_19
REMARK    6  A    between atoms: C_17  and  N_27
REMARK    7  A    between atoms: C_19  and  C_20
REMARK    8  A    between atoms: C_23  and  O_26
REMARK                            x       y       z     vdW  Elec       q    Type
REMARK                         _______ _______ _______ _____ _____    ______ ____
ROOT
ATOM      1  C   UNL     1      -4.479  -0.216   3.041  0.00  0.00    +0.163 A 
ATOM      2  C   UNL     1      -5.598  -0.879   3.440  0.00  0.00    +0.230 A 
ATOM      3  O   UNL     1      -5.588  -0.891   4.783  0.00  0.00    -0.449 OA
ATOM      4  C   UNL     1      -4.492  -0.241   5.199  0.00  0.00    +0.182 A 
ATOM      5  N   UNL     1      -3.818   0.168   4.167  0.00  0.00    -0.210 NA
ENDROOT
BRANCH   1   7
ATOM      6  N   UNL     1      -2.926   0.722   1.402  0.00  0.00    -0.306 N 
ATOM      7  C   UNL     1      -4.063   0.043   1.650  0.00  0.00    +0.266 C 
ATOM      8  O   UNL     1      -4.747  -0.357   0.727  0.00  0.00    -0.268 OA
ATOM      9  H   UNL     1      -2.308   1.083   2.237  0.00  0.00    +0.149 HD
BRANCH   6  10
ATOM     10  C   UNL     1      -2.514   0.979   0.020  0.00  0.00    +0.140 C 
BRANCH  10  13
ATOM     11  C   UNL     1       1.175   1.783   0.000  0.00  0.00    +0.001 A 
ATOM     12  C   UNL     1      -0.013   1.076   0.008  0.00  0.00    +0.005 A 
ATOM     13  C   UNL     1      -1.219   1.750   0.017  0.00  0.00    -0.029 A 
ATOM     14  C   UNL     1      -1.238   3.133   0.030  0.00  0.00    +0.019 A 
ATOM     15  C   UNL     1      -0.050   3.840   0.022  0.00  0.00    +0.014 A 
ATOM     16  C   UNL     1       1.157   3.165   0.008  0.00  0.00    +0.014 A 
ATOM     17  I   UNL     1      -0.079   5.935   0.032  0.00  0.00    -0.044 I 
ENDBRANCH  10  13
ENDBRANCH   6  10
ENDBRANCH   1   7
BRANCH   4  18
ATOM     18  C   UNL     1      -4.102  -0.021   6.638  0.00  0.00    +0.017 C 
BRANCH  18  19
ATOM     19  N   UNL     1      -5.279   0.411   7.404  0.00  0.00    +0.386 N 
ATOM     20  H   UNL     1      -4.994   0.572   8.454  0.00  0.00    -0.089 HD
ATOM     21  H   UNL     1      -6.057  -0.364   7.349  0.00  0.00    -0.089 HD
ATOM     22  H   UNL     1      -5.666   1.350   6.981  0.00  0.00    -0.089 HD
ENDBRANCH  18  19
BRANCH  18  23
ATOM     23  C   UNL     1      -3.563  -1.327   7.226  0.00  0.00    +0.028 C 
BRANCH  23  24
ATOM     24  C   UNL     1      -3.060  -1.079   8.625  0.00  0.00    -0.048 A 
ATOM     25  C   UNL     1      -1.741  -0.719   8.829  0.00  0.00    +0.007 A 
ATOM     26  C   UNL     1      -1.278  -0.485  10.110  0.00  0.00    +0.045 A 
ATOM     27  C   UNL     1      -2.136  -0.622  11.192  0.00  0.00    +0.117 A 
ATOM     28  C   UNL     1      -3.457  -0.990  10.984  0.00  0.00    +0.045 A 
ATOM     29  C   UNL     1      -3.916  -1.217   9.701  0.00  0.00    +0.007 A 
BRANCH  27  30
ATOM     30  O   UNL     1      -1.682  -0.398  12.453  0.00  0.00    -0.507 OA
ATOM     31  H   UNL     1      -2.362  -0.508  13.310  0.00  0.00    +0.292 HD
ENDBRANCH  27  30
ENDBRANCH  23  24
ENDBRANCH  18  23
ENDBRANCH   4  18
TORSDOF 8
