REMARK  Name = ZINC18191684
REMARK  6 active torsions:
REMARK  status: ('A' for Active; 'I' for Inactive)
REMARK    1  A    between atoms: C_4  and  S_7
REMARK    2  A    between atoms: S_7  and  N_10
REMARK    3  A    between atoms: N_10  and  C_11
REMARK    4  A    between atoms: N_10  and  C_26
REMARK    5  A    between atoms: C_11  and  C_12
REMARK    6  A    between atoms: N_14  and  N_15
REMARK                            x       y       z     vdW  Elec       q    Type
REMARK                         _______ _______ _______ _____ _____    ______ ____
ROOT
ATOM      1  C   UNL     1      -5.451  -2.724   0.024  0.00  0.00    +0.229 C 
ENDROOT
BRANCH   1   2
ATOM      2  C   UNL     1      -4.686  -1.433  -0.109  0.00  0.00    +0.251 C 
ATOM      3  O   UNL     1      -5.282  -0.379  -0.171  0.00  0.00    -0.272 OA
ATOM      4  N   UNL     1      -3.339  -1.450  -0.159  0.00  0.00    -0.205 N 
ATOM      5  H   UNL     1      -2.862  -2.293  -0.110  0.00  0.00    +0.177 HD
BRANCH   4   6
ATOM      6  N   UNL     1      -2.628  -0.249  -0.282  0.00  0.00    -0.174 NA
ATOM      7  C   UNL     1      -1.318  -0.266  -0.331  0.00  0.00    +0.152 C 
ATOM      8  C   UNL     1      -0.405   0.894  -0.459  0.00  0.00    +0.028 A 
ATOM      9  C   UNL     1      -0.616   2.265  -0.559  0.00  0.00    +0.012 A 
ATOM     10  C   UNL     1       0.465   3.118  -0.669  0.00  0.00    +0.001 A 
ATOM     11  C   UNL     1       1.752   2.608  -0.676  0.00  0.00    +0.002 A 
ATOM     12  C   UNL     1       1.972   1.249  -0.577  0.00  0.00    +0.024 A 
ATOM     13  C   UNL     1       0.896   0.375  -0.467  0.00  0.00    +0.043 A 
ATOM     14  N   UNL     1       0.839  -1.010  -0.354  0.00  0.00    -0.280 N 
ATOM     15  C   UNL     1      -0.430  -1.445  -0.271  0.00  0.00    +0.269 C 
ATOM     16  O   UNL     1      -0.785  -2.604  -0.165  0.00  0.00    -0.268 OA
ATOM     17  H   UNL     1       1.617  -1.589  -0.338  0.00  0.00    +0.155 HD
ENDBRANCH   4   6
ENDBRANCH   1   2
BRANCH   1  18
ATOM     18  N   UNL     1      -6.888  -2.440   0.056  0.00  0.00    -0.193 N 
BRANCH  18  19
ATOM     19  C   UNL     1      -7.507  -2.105   1.262  0.00  0.00    +0.070 A 
ATOM     20  C   UNL     1      -8.154  -0.880   1.409  0.00  0.00    +0.028 A 
ATOM     21  C   UNL     1      -8.757  -0.595   2.622  0.00  0.00    +0.022 A 
ATOM     22  C   UNL     1      -8.689  -1.524   3.644  0.00  0.00    +0.111 A 
ATOM     23  N   UNL     1      -8.064  -2.673   3.476  0.00  0.00    -0.261 NA
ATOM     24  C   UNL     1      -7.481  -2.985   2.336  0.00  0.00    +0.135 A 
ENDBRANCH  18  19
BRANCH  18  25
ATOM     25  S   UNL     1      -7.778  -2.515  -1.339  0.00  0.00    +0.075 S 
ATOM     26  O   UNL     1      -8.978  -1.795  -1.093  0.00  0.00    -0.150 OA
ATOM     27  O   UNL     1      -6.896  -2.184  -2.402  0.00  0.00    -0.150 OA
BRANCH  25  31
ATOM     28  C   UNL     1      -8.964  -6.842  -1.938  0.00  0.00    +0.000 A 
ATOM     29  C   UNL     1      -9.784  -5.994  -1.218  0.00  0.00    +0.002 A 
ATOM     30  C   UNL     1      -9.422  -4.673  -1.034  0.00  0.00    +0.029 A 
ATOM     31  C   UNL     1      -8.240  -4.199  -1.572  0.00  0.00    +0.109 A 
ATOM     32  C   UNL     1      -7.422  -5.046  -2.298  0.00  0.00    +0.029 A 
ATOM     33  C   UNL     1      -7.782  -6.368  -2.477  0.00  0.00    +0.002 A 
ENDBRANCH  25  31
ENDBRANCH  18  25
ENDBRANCH   1  18
TORSDOF 6
