REMARK  Name = ZINC39690505
REMARK  4 active torsions:
REMARK  status: ('A' for Active; 'I' for Inactive)
REMARK    1  A    between atoms: C_6  and  C_11
REMARK    2  A    between atoms: C_15  and  C_24
REMARK    3  A    between atoms: N_26  and  C_27
REMARK    4  A    between atoms: C_27  and  C_28
REMARK                            x       y       z     vdW  Elec       q    Type
REMARK                         _______ _______ _______ _____ _____    ______ ____
ROOT
ATOM      1  C   UNL     1       4.974  -2.712  -0.060  0.00  0.00    +0.247 C 
ATOM      2  O   UNL     1       6.012  -2.090  -0.174  0.00  0.00    -0.270 OA
ATOM      3  N   UNL     1       5.001  -4.056   0.035  0.00  0.00    -0.296 N 
ATOM      4  C   UNL     1       3.849  -4.989   0.052  0.00  0.00    +0.121 C 
ATOM      5  C   UNL     1       4.312  -6.196  -0.794  0.00  0.00    +0.100 C 
ATOM      6  C   UNL     1       5.848  -6.157  -0.726  0.00  0.00    -0.004 C 
ATOM      7  C   UNL     1       6.189  -4.936   0.141  0.00  0.00    +0.115 C 
ATOM      8  C   UNL     1       6.435  -5.984  -2.123  0.00  0.00    -0.010 C 
ATOM      9  C   UNL     1       7.964  -6.005  -2.036  0.00  0.00    -0.082 C 
ATOM     10  N   UNL     1       8.405  -7.277  -1.452  0.00  0.00    +0.379 N 
ATOM     11  C   UNL     1       7.913  -7.394  -0.074  0.00  0.00    -0.082 C 
ATOM     12  C   UNL     1       6.382  -7.431  -0.079  0.00  0.00    -0.010 C 
ATOM     13  H   UNL     1       8.043  -8.042  -2.003  0.00  0.00    -0.086 HD
ATOM     14  H   UNL     1       9.413  -7.314  -1.452  0.00  0.00    -0.086 HD
ENDROOT
BRANCH   1  20
ATOM     15  C   UNL     1      -1.034  -0.499   0.659  0.00  0.00    +0.001 A 
ATOM     16  C   UNL     1      -0.938  -1.756   1.254  0.00  0.00    +0.001 A 
ATOM     17  C   UNL     1       0.233  -2.448   1.243  0.00  0.00    +0.008 A 
ATOM     18  C   UNL     1       1.366  -1.890   0.624  0.00  0.00    -0.017 A 
ATOM     19  C   UNL     1       2.589  -2.577   0.594  0.00  0.00    +0.021 A 
ATOM     20  C   UNL     1       3.682  -1.994  -0.025  0.00  0.00    +0.037 A 
ATOM     21  C   UNL     1       3.573  -0.725  -0.622  0.00  0.00    +0.013 A 
ATOM     22  C   UNL     1       2.398  -0.046  -0.603  0.00  0.00    +0.009 A 
ATOM     23  C   UNL     1       1.269  -0.611   0.018  0.00  0.00    -0.018 A 
ATOM     24  C   UNL     1       0.042   0.072   0.050  0.00  0.00    +0.008 A 
ENDBRANCH   1  20
BRANCH   5  25
ATOM     25  C   UNL     1       3.791  -7.481  -0.204  0.00  0.00    +0.218 C 
ATOM     26  O   UNL     1       3.523  -7.541   0.977  0.00  0.00    -0.275 OA
ATOM     27  N   UNL     1       3.624  -8.564  -0.989  0.00  0.00    -0.311 N 
ATOM     28  H   UNL     1       3.839  -8.516  -1.933  0.00  0.00    +0.149 HD
BRANCH  27  29
ATOM     29  C   UNL     1       3.118  -9.813  -0.415  0.00  0.00    +0.140 C 
BRANCH  29  30
ATOM     30  C   UNL     1       3.024 -10.860  -1.495  0.00  0.00    -0.016 A 
ATOM     31  C   UNL     1       1.806 -11.133  -2.089  0.00  0.00    +0.006 A 
ATOM     32  C   UNL     1       1.720 -12.093  -3.080  0.00  0.00    +0.000 A 
ATOM     33  C   UNL     1       2.852 -12.781  -3.477  0.00  0.00    +0.001 A 
ATOM     34  C   UNL     1       4.070 -12.508  -2.883  0.00  0.00    +0.015 A 
ATOM     35  C   UNL     1       4.158 -11.544  -1.895  0.00  0.00    +0.023 A 
ATOM     36 BR   UNL     1       5.825 -11.166  -1.087  0.00  0.00    -0.050 Br
ENDBRANCH  29  30
ENDBRANCH  27  29
ENDBRANCH   5  25
TORSDOF 4
