REMARK  Name = ZINC36497833
REMARK  10 active torsions:
REMARK  status: ('A' for Active; 'I' for Inactive)
REMARK    1  A    between atoms: C_4  and  C_7
REMARK    2  A    between atoms: C_7  and  C_8
REMARK    3  A    between atoms: C_7  and  C_14
REMARK    4  A    between atoms: C_14  and  C_16
REMARK    5  A    between atoms: C_14  and  N_25
REMARK    6  A    between atoms: N_18  and  C_19
REMARK    7  A    between atoms: N_25  and  C_26
REMARK    8  A    between atoms: C_26  and  C_27
REMARK    9  A    between atoms: C_32  and  C_34
REMARK   10  A    between atoms: C_39  and  O_40
REMARK                            x       y       z     vdW  Elec       q    Type
REMARK                         _______ _______ _______ _____ _____    ______ ____
ROOT
ATOM      1  C   UNL     1       3.817  -2.134  -1.157  0.00  0.00    +0.174 C 
ENDROOT
BRANCH   1   2
ATOM      2  C   UNL     1       4.879  -1.918  -2.204  0.00  0.00    +0.235 C 
ATOM      3  O   UNL     1       6.018  -1.670  -1.871  0.00  0.00    -0.274 OA
ATOM      4  N   UNL     1       4.563  -2.002  -3.512  0.00  0.00    -0.311 N 
ATOM      5  H   UNL     1       3.651  -2.200  -3.778  0.00  0.00    +0.149 HD
BRANCH   4   6
ATOM      6  C   UNL     1       5.595  -1.793  -4.530  0.00  0.00    +0.073 C 
ATOM      7  C   UNL     1       5.738  -0.296  -4.811  0.00  0.00    +0.022 C 
ATOM      8  C   UNL     1       6.816  -0.077  -5.874  0.00  0.00    +0.002 C 
ATOM      9  C   UNL     1       6.417  -0.802  -7.162  0.00  0.00    +0.000 C 
ATOM     10  C   UNL     1       6.274  -2.299  -6.880  0.00  0.00    +0.002 C 
ATOM     11  C   UNL     1       5.196  -2.517  -5.817  0.00  0.00    +0.022 C 
ENDBRANCH   4   6
ENDBRANCH   1   2
BRANCH   1  12
ATOM     12  N   UNL     1       4.410  -1.990   0.176  0.00  0.00    -0.278 N 
ATOM     13  C   UNL     1       4.706  -3.086   0.902  0.00  0.00    +0.251 C 
ATOM     14  O   UNL     1       4.589  -4.192   0.410  0.00  0.00    -0.270 OA
BRANCH  13  15
ATOM     15  C   UNL     1       5.174  -2.944   2.294  0.00  0.00    +0.078 A 
ATOM     16  C   UNL     1       6.245  -2.098   2.593  0.00  0.00    +0.017 A 
ATOM     17  C   UNL     1       6.677  -1.969   3.895  0.00  0.00    +0.001 A 
ATOM     18  C   UNL     1       6.052  -2.675   4.911  0.00  0.00    +0.004 A 
ATOM     19  C   UNL     1       4.992  -3.513   4.630  0.00  0.00    +0.046 A 
ATOM     20  C   UNL     1       4.542  -3.651   3.326  0.00  0.00    +0.129 A 
BRANCH  20  21
ATOM     21  O   UNL     1       3.497  -4.471   3.049  0.00  0.00    -0.506 OA
ATOM     22  H   UNL     1       3.753  -5.381   2.850  0.00  0.00    +0.292 HD
ENDBRANCH  20  21
ENDBRANCH  13  15
BRANCH  12  23
ATOM     23  C   UNL     1       4.679  -0.657   0.718  0.00  0.00    +0.183 C 
BRANCH  23  24
ATOM     24  C   UNL     1       5.912  -0.088   0.064  0.00  0.00    +0.122 A 
ATOM     25  C   UNL     1       5.930   0.753  -0.985  0.00  0.00    +0.046 A 
ATOM     26  C   UNL     1       7.288   1.028  -1.267  0.00  0.00    +0.041 A 
ATOM     27  C   UNL     1       8.019   0.338  -0.373  0.00  0.00    +0.195 A 
ATOM     28  O   UNL     1       7.180  -0.332   0.434  0.00  0.00    -0.466 OA
ENDBRANCH  23  24
ENDBRANCH  12  23
ENDBRANCH   1  12
BRANCH   1  29
ATOM     29  C   UNL     1       2.707  -1.096  -1.335  0.00  0.00    +0.078 C 
BRANCH  29  33
ATOM     30  C   UNL     1       0.682  -1.802  -5.029  0.00  0.00    +0.000 A 
ATOM     31  C   UNL     1       1.254  -0.569  -4.780  0.00  0.00    +0.000 A 
ATOM     32  C   UNL     1       1.910  -0.340  -3.584  0.00  0.00    +0.004 A 
ATOM     33  C   UNL     1       1.992  -1.345  -2.638  0.00  0.00    -0.038 A 
ATOM     34  C   UNL     1       1.419  -2.578  -2.888  0.00  0.00    +0.004 A 
ATOM     35  C   UNL     1       0.764  -2.807  -4.084  0.00  0.00    +0.000 A 
ENDBRANCH  29  33
BRANCH  29  36
ATOM     36  C   UNL     1       1.728  -1.207  -0.195  0.00  0.00    -0.038 A 
ATOM     37  C   UNL     1       1.220  -0.064   0.393  0.00  0.00    +0.004 A 
ATOM     38  C   UNL     1       0.321  -0.166   1.439  0.00  0.00    +0.000 A 
ATOM     39  C   UNL     1      -0.070  -1.411   1.895  0.00  0.00    +0.000 A 
ATOM     40  C   UNL     1       0.437  -2.554   1.306  0.00  0.00    +0.000 A 
ATOM     41  C   UNL     1       1.333  -2.452   0.258  0.00  0.00    +0.004 A 
ENDBRANCH  29  36
ENDBRANCH   1  29
TORSDOF 10
