REMARK  Name = ZINC03768102
REMARK  7 active torsions:
REMARK  status: ('A' for Active; 'I' for Inactive)
REMARK    1  A    between atoms: C_1  and  C_2
REMARK    2  A    between atoms: C_2  and  C_3
REMARK    3  A    between atoms: C_3  and  N_4
REMARK    4  A    between atoms: N_7  and  N_8
REMARK    5  A    between atoms: C_11  and  C_14
REMARK    6  A    between atoms: C_17  and  C_20
REMARK    7  A    between atoms: N_23  and  C_24
REMARK                            x       y       z     vdW  Elec       q    Type
REMARK                         _______ _______ _______ _____ _____    ______ ____
ROOT
ATOM      1  N   UNL     1       2.297  -2.822  -0.034  0.00  0.00    -0.146 N 
ATOM      2  C   UNL     1       1.195  -1.976  -0.020  0.00  0.00    +0.186 A 
ATOM      3  N   UNL     1       1.155  -0.657  -0.018  0.00  0.00    -0.223 NA
ATOM      4  C   UNL     1       0.002  -0.004   0.002  0.00  0.00    +0.080 A 
ATOM      5  C   UNL     1      -1.168  -0.710   0.009  0.00  0.00    +0.077 A 
ATOM      6  S   UNL     1      -0.545  -2.386  -0.005  0.00  0.00    -0.058 S 
ATOM      7  C   UNL     1       2.121  -4.159  -0.039  0.00  0.00    +0.325 C 
ATOM      8  O   UNL     1       0.998  -4.624  -0.032  0.00  0.00    -0.251 OA
ATOM      9  N   UNL     1       3.190  -4.979  -0.053  0.00  0.00    -0.295 N 
ATOM     10  H   UNL     1       4.086  -4.608  -0.060  0.00  0.00    +0.151 HD
ENDROOT
BRANCH   4  11
ATOM     11  C   UNL     1      -0.018   1.479   0.010  0.00  0.00    +0.001 A 
ATOM     12  C   UNL     1      -1.233   2.162   0.020  0.00  0.00    +0.010 A 
ATOM     13  C   UNL     1      -1.246   3.542   0.033  0.00  0.00    +0.004 A 
ATOM     14  C   UNL     1      -0.056   4.247   0.025  0.00  0.00    -0.050 A 
ATOM     15  C   UNL     1       1.153   3.575   0.010  0.00  0.00    +0.004 A 
ATOM     16  C   UNL     1       1.178   2.195   0.003  0.00  0.00    +0.010 A 
ATOM     17  C   UNL     1      -0.076   5.754   0.033  0.00  0.00    +0.044 C 
ENDBRANCH   4  11
BRANCH   1  21
ATOM     18  N   UNL     1       3.843  -2.856   2.206  0.00  0.00    -0.298 N 
ATOM     19  C   UNL     1       4.340  -2.313   1.077  0.00  0.00    +0.317 C 
ATOM     20  O   UNL     1       5.463  -1.848   1.069  0.00  0.00    -0.251 OA
ATOM     21  N   UNL     1       3.591  -2.286  -0.043  0.00  0.00    -0.208 N 
ATOM     22  H   UNL     1       2.947  -3.227   2.213  0.00  0.00    +0.150 HD
ATOM     23  H   UNL     1       3.949  -1.896  -0.856  0.00  0.00    +0.175 HD
BRANCH  18  24
ATOM     24  C   UNL     1       4.657  -2.886   3.424  0.00  0.00    +0.105 C 
BRANCH  24  26
ATOM     25  C   UNL     1       4.713  -3.580   5.824  0.00  0.00    +0.005 C 
ATOM     26  C   UNL     1       3.864  -3.550   4.552  0.00  0.00    +0.015 C 
ENDBRANCH  24  26
ENDBRANCH  18  24
ENDBRANCH   1  21
BRANCH   9  27
ATOM     27  C   UNL     1       2.998  -6.432  -0.059  0.00  0.00    +0.074 C 
ATOM     28  C   UNL     1       2.820  -6.928   1.377  0.00  0.00    +0.022 C 
ATOM     29  C   UNL     1       2.620  -8.445   1.371  0.00  0.00    +0.002 C 
ATOM     30  C   UNL     1       3.844  -9.118   0.747  0.00  0.00    +0.000 C 
ATOM     31  C   UNL     1       4.022  -8.622  -0.689  0.00  0.00    +0.002 C 
ATOM     32  C   UNL     1       4.222  -7.105  -0.683  0.00  0.00    +0.022 C 
ENDBRANCH   9  27
TORSDOF 5
