REMARK  Name = ZINC16561784
REMARK  7 active torsions:
REMARK  status: ('A' for Active; 'I' for Inactive)
REMARK    1  A    between atoms: C_5  and  C_7
REMARK    2  A    between atoms: C_10  and  S_13
REMARK    3  A    between atoms: N_11  and  N_12
REMARK    4  A    between atoms: S_13  and  C_14
REMARK    5  A    between atoms: C_14  and  C_15
REMARK    6  A    between atoms: C_18  and  C_24
REMARK    7  A    between atoms: C_20  and  N_21
REMARK                            x       y       z     vdW  Elec       q    Type
REMARK                         _______ _______ _______ _____ _____    ______ ____
ROOT
ATOM      1  S   UNL     1       3.494   1.395   0.103  0.00  0.00    -0.080 S 
ENDROOT
BRANCH   1   5
ATOM      2  C   UNL     1      -0.344   0.988   0.714  0.00  0.00    +0.183 A 
ATOM      3  N   UNL     1      -0.161   2.277   0.881  0.00  0.00    -0.127 NA
ATOM      4  N   UNL     1       1.079   2.570   0.709  0.00  0.00    -0.121 NA
ATOM      5  C   UNL     1       1.763   1.485   0.421  0.00  0.00    +0.209 A 
ATOM      6  N   UNL     1       0.883   0.441   0.414  0.00  0.00    -0.224 N 
BRANCH   2  11
ATOM      7  C   UNL     1      -2.907  -1.576   1.696  0.00  0.00    +0.001 A 
ATOM      8  C   UNL     1      -4.028  -1.102   1.037  0.00  0.00    +0.001 A 
ATOM      9  C   UNL     1      -3.955   0.049   0.273  0.00  0.00    +0.016 A 
ATOM     10  C   UNL     1      -2.762   0.736   0.168  0.00  0.00    +0.029 A 
ATOM     11  C   UNL     1      -1.626   0.260   0.826  0.00  0.00    +0.035 A 
ATOM     12  C   UNL     1      -1.708  -0.902   1.595  0.00  0.00    +0.013 A 
ATOM     13 BR   UNL     1      -2.665   2.314  -0.870  0.00  0.00    -0.050 Br
ENDBRANCH   2  11
BRANCH   6  14
ATOM     14  N   UNL     1       1.162  -0.872   0.163  0.00  0.00    -0.295 N 
ATOM     15  H   UNL     1       1.136  -1.064  -0.828  0.00  0.00    +0.163 HD
ATOM     16  H   UNL     1       2.052  -1.135   0.559  0.00  0.00    +0.163 HD
ENDBRANCH   6  14
ENDBRANCH   1   5
BRANCH   1  17
ATOM     17  C   UNL     1       3.940   3.139   0.295  0.00  0.00    +0.114 C 
BRANCH  17  18
ATOM     18  C   UNL     1       5.419   3.308   0.062  0.00  0.00    -0.007 A 
ATOM     19  C   UNL     1       5.879   3.708  -1.181  0.00  0.00    +0.007 A 
ATOM     20  C   UNL     1       7.231   3.865  -1.401  0.00  0.00    +0.013 A 
ATOM     21  C   UNL     1       8.137   3.620  -0.367  0.00  0.00    +0.039 A 
ATOM     22  C   UNL     1       7.667   3.216   0.883  0.00  0.00    +0.046 A 
ATOM     23  C   UNL     1       6.311   3.068   1.092  0.00  0.00    +0.131 A 
BRANCH  21  24
ATOM     24  C   UNL     1       9.588   3.786  -0.596  0.00  0.00    +0.242 C 
ATOM     25  O   UNL     1      10.374   3.571   0.305  0.00  0.00    -0.270 OA
ATOM     26  N   UNL     1      10.039   4.175  -1.805  0.00  0.00    -0.325 N 
ATOM     27  H   UNL     1       9.412   4.347  -2.525  0.00  0.00    +0.145 HD
ATOM     28  H   UNL     1      10.991   4.284  -1.956  0.00  0.00    +0.145 HD
ENDBRANCH  21  24
BRANCH  23  29
ATOM     29  N   UNL     1       5.810   2.646   2.419  0.00  0.00    +0.057 N 
ATOM     30  O   UNL     1       6.580   2.545   3.357  0.00  0.00    -0.126 OA
ATOM     31  O   UNL     1       4.627   2.400   2.573  0.00  0.00    -0.126 OA
ENDBRANCH  23  29
ENDBRANCH  17  18
ENDBRANCH   1  17
TORSDOF 7
