REMARK  Name = ZINC09210195
REMARK  3 active torsions:
REMARK  status: ('A' for Active; 'I' for Inactive)
REMARK    1  A    between atoms: C_1  and  C_2
REMARK    2  A    between atoms: C_2  and  C_4
REMARK    3  A    between atoms: C_7  and  N_10
REMARK                            x       y       z     vdW  Elec       q    Type
REMARK                         _______ _______ _______ _____ _____    ______ ____
ROOT
ATOM      1  N   UNL     1      -0.007  -2.796  -4.896  0.00  0.00    -0.210 N 
ATOM      2  C   UNL     1       0.108  -4.128  -4.970  0.00  0.00    +0.228 C 
ATOM      3  O   UNL     1       0.226  -4.874  -4.023  0.00  0.00    -0.275 OA
ATOM      4  C   UNL     1       0.068  -4.555  -6.420  0.00  0.00    +0.074 C 
ATOM      5  C   UNL     1       1.451  -5.093  -6.833  0.00  0.00    -0.054 C 
ATOM      6  C   UNL     1       2.202  -5.582  -5.581  0.00  0.00    -0.016 C 
ATOM      7  C   UNL     1       3.003  -4.364  -5.080  0.00  0.00    -0.020 C 
ATOM      8  C   UNL     1       2.662  -3.235  -6.080  0.00  0.00    -0.076 C 
ATOM      9  C   UNL     1       1.200  -3.075  -7.999  0.00  0.00    +0.053 C 
ATOM     10  C   UNL     1      -0.091  -3.213  -7.185  0.00  0.00    +0.089 C 
ATOM     11  C   UNL     1      -0.130  -2.183  -6.078  0.00  0.00    +0.229 C 
ATOM     12  O   UNL     1      -0.251  -0.987  -6.238  0.00  0.00    -0.275 OA
ATOM     13  C   UNL     1       1.641  -1.640  -8.086  0.00  0.00    -0.026 A 
ATOM     14  C   UNL     1       1.978  -0.695  -7.144  0.00  0.00    +0.024 A 
ATOM     15  C   UNL     1       2.354   0.577  -7.542  0.00  0.00    +0.041 A 
ATOM     16  C   UNL     1       2.390   0.893  -8.889  0.00  0.00    +0.022 A 
ATOM     17  C   UNL     1       2.052  -0.051  -9.835  0.00  0.00    +0.025 A 
ATOM     18  C   UNL     1       1.672  -1.333  -9.443  0.00  0.00    +0.036 A 
ATOM     19  N   UNL     1       1.290  -2.444 -10.199  0.00  0.00    -0.286 N 
ATOM     20  C   UNL     1       0.998  -3.507  -9.426  0.00  0.00    +0.212 C 
ATOM     21  O   UNL     1       0.641  -4.602  -9.807  0.00  0.00    -0.277 OA
ATOM     22 CL   UNL     1       2.781   1.770  -6.355  0.00  0.00    -0.084 Cl
ATOM     23  H   UNL     1       1.242  -2.448 -11.168  0.00  0.00    +0.155 HD
ATOM     24  N   UNL     1       2.160  -3.923  -7.282  0.00  0.00    +0.395 N 
ATOM     25  H   UNL     1       2.939  -4.178  -7.899  0.00  0.00    -0.079 HD
ENDROOT
BRANCH   1  29
ATOM     26  C   UNL     1      -0.001  -0.731  -1.274  0.00  0.00    +0.017 A 
ATOM     27  C   UNL     1      -1.065  -1.582  -1.596  0.00  0.00    +0.013 A 
ATOM     28  C   UNL     1      -1.066  -2.257  -2.795  0.00  0.00    +0.024 A 
ATOM     29  C   UNL     1      -0.005  -2.105  -3.682  0.00  0.00    +0.044 A 
ATOM     30  C   UNL     1       1.058  -1.265  -3.365  0.00  0.00    +0.024 A 
ATOM     31  C   UNL     1       1.065  -0.581  -2.171  0.00  0.00    +0.013 A 
BRANCH  26  33
ATOM     32  C   UNL     1      -1.146  -0.168   0.965  0.00  0.00    +0.091 C 
ATOM     33  C   UNL     1       0.001  -0.004   0.002  0.00  0.00    +0.160 C 
ATOM     34  O   UNL     1       0.927   0.729   0.281  0.00  0.00    -0.292 OA
ENDBRANCH  26  33
ENDBRANCH   1  29
TORSDOF 2
