REMARK  Name = ZINC08918191
REMARK  14 active torsions:
REMARK  status: ('A' for Active; 'I' for Inactive)
REMARK    1  A    between atoms: C_4  and  C_7
REMARK    2  A    between atoms: C_7  and  C_8
REMARK    3  A    between atoms: C_8  and  C_10
REMARK    4  A    between atoms: C_8  and  N_13
REMARK    5  A    between atoms: C_14  and  C_16
REMARK    6  A    between atoms: C_16  and  N_17
REMARK    7  A    between atoms: C_18  and  C_20
REMARK    8  A    between atoms: C_20  and  N_21
REMARK    9  A    between atoms: C_22  and  C_24
REMARK   10  A    between atoms: C_24  and  C_26
REMARK   11  A    between atoms: C_24  and  N_55
REMARK   12  A    between atoms: C_26  and  C_27
REMARK   13  A    between atoms: C_27  and  S_28
REMARK   14  A    between atoms: S_28  and  C_29
REMARK                            x       y       z     vdW  Elec       q    Type
REMARK                         _______ _______ _______ _____ _____    ______ ____
ROOT
ATOM      1  N   UNL     1      -0.865  -0.854   5.562  0.00  0.00    -0.305 N 
ATOM      2  C   UNL     1      -0.047  -1.562   6.367  0.00  0.00    +0.231 C 
ATOM      3  O   UNL     1       0.723  -2.368   5.890  0.00  0.00    -0.274 OA
ATOM      4  H   UNL     1      -1.480  -0.209   5.944  0.00  0.00    +0.149 HD
ENDROOT
BRANCH   1   5
ATOM      5  C   UNL     1      -0.824  -1.059   4.112  0.00  0.00    +0.200 C 
BRANCH   5   7
ATOM      6  N   UNL     1      -1.968  -0.170   2.108  0.00  0.00    -0.302 N 
ATOM      7  C   UNL     1      -1.829  -0.153   3.448  0.00  0.00    +0.231 C 
ATOM      8  O   UNL     1      -2.511   0.591   4.120  0.00  0.00    -0.274 OA
ATOM      9  H   UNL     1      -1.422  -0.765   1.571  0.00  0.00    +0.150 HD
BRANCH   6  10
ATOM     10  C   UNL     1      -2.945   0.711   1.462  0.00  0.00    +0.163 C 
BRANCH  10  11
ATOM     11  C   UNL     1      -4.299   0.049   1.467  0.00  0.00    +0.231 C 
ATOM     12  O   UNL     1      -4.434  -1.051   1.961  0.00  0.00    -0.274 OA
ATOM     13  N   UNL     1      -5.359   0.678   0.922  0.00  0.00    -0.328 N 
ATOM     14  H   UNL     1      -5.250   1.557   0.527  0.00  0.00    +0.145 HD
ATOM     15  H   UNL     1      -6.230   0.252   0.925  0.00  0.00    +0.145 HD
ENDBRANCH  10  11
BRANCH  10  16
ATOM     16  C   UNL     1      -2.514   0.980   0.019  0.00  0.00    +0.067 C 
BRANCH  16  20
ATOM     17  C   UNL     1       1.156   3.165   0.008  0.00  0.00    +0.000 A 
ATOM     18  C   UNL     1       1.175   1.783   0.000  0.00  0.00    +0.000 A 
ATOM     19  C   UNL     1      -0.013   1.076   0.008  0.00  0.00    +0.004 A 
ATOM     20  C   UNL     1      -1.219   1.751   0.017  0.00  0.00    -0.045 A 
ATOM     21  C   UNL     1      -1.238   3.133   0.030  0.00  0.00    +0.004 A 
ATOM     22  C   UNL     1      -0.050   3.840   0.022  0.00  0.00    +0.000 A 
ENDBRANCH  16  20
ENDBRANCH  10  16
ENDBRANCH   6  10
ENDBRANCH   5   7
ENDBRANCH   1   5
BRANCH   2  23
ATOM     23  C   UNL     1      -0.088  -1.350   7.858  0.00  0.00    +0.200 C 
BRANCH  23  24
ATOM     24  N   UNL     1       0.888  -2.231   8.504  0.00  0.00    -0.308 N 
ATOM     25  C   UNL     1       1.028  -2.214   9.844  0.00  0.00    +0.199 C 
ATOM     26  O   UNL     1       0.345  -1.470  10.516  0.00  0.00    -0.278 OA
ATOM     27  H   UNL     1       1.434  -2.826   7.966  0.00  0.00    +0.149 HD
BRANCH  25  28
ATOM     28  C   UNL     1       2.033  -3.120  10.508  0.00  0.00    +0.013 C 
BRANCH  28  31
ATOM     29  H   UNL     1       1.515  -2.567  12.422  0.00  0.00    -0.089 HD
ATOM     30  H   UNL     1       3.063  -3.160  12.290  0.00  0.00    -0.089 HD
ATOM     31  N   UNL     1       2.352  -2.584  11.843  0.00  0.00    +0.386 N 
ATOM     32  H   UNL     1       2.711  -1.626  11.745  0.00  0.00    -0.089 HD
ENDBRANCH  28  31
BRANCH  28  33
ATOM     33  C   UNL     1       1.449  -4.530  10.625  0.00  0.00    +0.004 C 
BRANCH  33  34
ATOM     34  C   UNL     1       2.513  -5.477  11.184  0.00  0.00    +0.076 C 
BRANCH  34  35
ATOM     35  S   UNL     1       1.821  -7.148  11.322  0.00  0.00    -0.052 S 
BRANCH  35  36
ATOM     36  C   UNL     1       3.189  -8.135  11.991  0.00  0.00    +0.443 C 
ATOM     37  F   UNL     1       3.572  -7.619  13.233  0.00  0.00    -0.160 F 
ATOM     38  F   UNL     1       2.774  -9.463  12.145  0.00  0.00    -0.160 F 
ATOM     39  F   UNL     1       4.274  -8.085  11.110  0.00  0.00    -0.160 F 
ENDBRANCH  35  36
ENDBRANCH  34  35
ENDBRANCH  33  34
ENDBRANCH  28  33
ENDBRANCH  25  28
ENDBRANCH  23  24
ENDBRANCH   2  23
TORSDOF 14
