REMARK  Name = ZINC04671106
REMARK  3 active torsions:
REMARK  status: ('A' for Active; 'I' for Inactive)
REMARK    1  A    between atoms: C_4  and  N_7
REMARK    2  A    between atoms: C_8  and  C_22
REMARK    3  A    between atoms: C_16  and  N_54
REMARK                            x       y       z     vdW  Elec       q    Type
REMARK                         _______ _______ _______ _____ _____    ______ ____
ROOT
ATOM      1  N   UNL     1       1.590   1.499  -0.083  0.00  0.00    -0.246 N 
ATOM      2  C   UNL     1       2.117   0.507  -1.052  0.00  0.00    +0.146 C 
ATOM      3  C   UNL     1       1.033  -0.601  -1.118  0.00  0.00    +0.036 C 
ATOM      4  C   UNL     1       0.542  -0.691  -2.550  0.00  0.00    +0.007 C 
ATOM      5  C   UNL     1      -0.838  -1.326  -2.653  0.00  0.00    +0.000 C 
ATOM      6  C   UNL     1      -1.825  -0.481  -1.839  0.00  0.00    +0.001 C 
ATOM      7  C   UNL     1      -1.433  -0.573  -0.369  0.00  0.00    +0.019 C 
ATOM      8  C   UNL     1      -0.016  -0.144  -0.116  0.00  0.00    +0.073 C 
ATOM      9  O   UNL     1       0.124   1.289  -0.058  0.00  0.00    -0.282 OA
ENDROOT
BRANCH   2  10
ATOM     10  C   UNL     1       3.422  -0.064  -0.562  0.00  0.00    -0.022 A 
ATOM     11  C   UNL     1       3.624  -0.266   0.790  0.00  0.00    +0.007 A 
ATOM     12  C   UNL     1       4.819  -0.796   1.240  0.00  0.00    +0.020 A 
ATOM     13  C   UNL     1       5.818  -1.113   0.336  0.00  0.00    +0.041 A 
ATOM     14  C   UNL     1       5.617  -0.905  -1.017  0.00  0.00    +0.020 A 
ATOM     15  C   UNL     1       4.420  -0.381  -1.465  0.00  0.00    +0.007 A 
ATOM     16 CL   UNL     1       7.321  -1.772   0.900  0.00  0.00    -0.084 Cl
ENDBRANCH   2  10
BRANCH   1  20
ATOM     17  C   UNL     1       2.520   5.381  -1.267  0.00  0.00    +0.000 A 
ATOM     18  C   UNL     1       1.200   5.014  -1.082  0.00  0.00    +0.002 A 
ATOM     19  C   UNL     1       0.888   3.727  -0.690  0.00  0.00    +0.028 A 
ATOM     20  C   UNL     1       1.902   2.801  -0.481  0.00  0.00    +0.065 A 
ATOM     21  C   UNL     1       3.228   3.175  -0.662  0.00  0.00    +0.028 A 
ATOM     22  C   UNL     1       3.532   4.462  -1.059  0.00  0.00    +0.002 A 
ENDBRANCH   1  20
BRANCH   8  27
ATOM     23  C   UNL     1      -0.626  -0.302   2.236  0.00  0.00    -0.075 C 
ATOM     24  C   UNL     1      -0.368  -1.335   3.362  0.00  0.00    -0.020 C 
ATOM     25  C   UNL     1      -0.048  -2.628   2.578  0.00  0.00    -0.020 C 
ATOM     26  C   UNL     1       0.405  -2.153   1.185  0.00  0.00    -0.075 C 
ATOM     27  N   UNL     1       0.366  -0.690   1.221  0.00  0.00    +0.401 N 
ATOM     28  H   UNL     1       1.290  -0.325   1.482  0.00  0.00    -0.077 HD
ENDBRANCH   8  27
TORSDOF 3
