REMARK  Name = ZINC20608393
REMARK  8 active torsions:
REMARK  status: ('A' for Active; 'I' for Inactive)
REMARK    1  A    between atoms: C_1  and  C_2
REMARK    2  A    between atoms: C_3  and  O_34
REMARK    3  A    between atoms: C_6  and  C_10
REMARK    4  A    between atoms: C_7  and  O_8
REMARK    5  A    between atoms: O_8  and  C_9
REMARK    6  A    between atoms: C_15  and  C_29
REMARK    7  A    between atoms: C_17  and  C_25
REMARK    8  A    between atoms: O_34  and  C_35
REMARK                            x       y       z     vdW  Elec       q    Type
REMARK                         _______ _______ _______ _____ _____    ______ ____
ROOT
ATOM      1  C   UNL     1      -0.610  -6.456   0.284  0.00  0.00    +0.193 C 
ATOM      2  N   UNL     1       0.177  -5.258   0.581  0.00  0.00    -0.321 N 
ATOM      3  C   UNL     1       0.080  -4.318  -0.459  0.00  0.00    +0.058 A 
ATOM      4  C   UNL     1       0.162  -2.874  -0.286  0.00  0.00    +0.040 A 
ATOM      5  C   UNL     1       0.323  -2.139   0.931  0.00  0.00    +0.031 A 
ATOM      6  C   UNL     1       0.385  -0.750   0.869  0.00  0.00    +0.044 A 
ATOM      7  C   UNL     1       0.291  -0.103  -0.349  0.00  0.00    +0.146 A 
ATOM      8  N   UNL     1       0.135  -0.791  -1.465  0.00  0.00    -0.235 NA
ATOM      9  C   UNL     1       0.075  -2.106  -1.467  0.00  0.00    +0.112 A 
ATOM     10  S   UNL     1      -0.125  -3.317  -2.754  0.00  0.00    -0.062 S 
ATOM     11  C   UNL     1      -0.094  -4.775  -1.760  0.00  0.00    +0.097 A 
ATOM     12  C   UNL     1      -0.214  -6.132  -2.106  0.00  0.00    +0.254 C 
ATOM     13  O   UNL     1      -0.187  -6.517  -3.262  0.00  0.00    -0.270 OA
ATOM     14  N   UNL     1      -0.364  -6.984  -1.056  0.00  0.00    -0.289 N 
ATOM     15  H   UNL     1       0.742  -5.191   1.523  0.00  0.00    +0.148 HD
ATOM     16  H   UNL     1      -0.300  -8.071  -1.215  0.00  0.00    +0.151 HD
ENDROOT
BRANCH   1  22
ATOM     17  C   UNL     1      -1.237  -8.497   4.819  0.00  0.00    +0.051 C 
ATOM     18  C   UNL     1      -0.571  -8.498   3.468  0.00  0.00    +0.033 A 
ATOM     19  C   UNL     1       0.358  -9.478   3.152  0.00  0.00    +0.126 A 
ATOM     20  C   UNL     1       0.971  -9.476   1.907  0.00  0.00    +0.046 A 
ATOM     21  C   UNL     1       0.652  -8.501   0.980  0.00  0.00    +0.014 A 
ATOM     22  C   UNL     1      -0.269  -7.521   1.295  0.00  0.00    +0.033 A 
ATOM     23  C   UNL     1      -0.884  -7.518   2.539  0.00  0.00    +0.133 A 
BRANCH  23  24
ATOM     24  O   UNL     1      -1.794  -6.557   2.845  0.00  0.00    -0.494 OA
ATOM     25  C   UNL     1      -3.168  -6.861   2.599  0.00  0.00    +0.277 C 
ENDBRANCH  23  24
BRANCH  19  26
ATOM     26  O   UNL     1       0.667 -10.440   4.061  0.00  0.00    -0.495 OA
ATOM     27  C   UNL     1       1.632 -11.418   3.667  0.00  0.00    +0.277 C 
ENDBRANCH  19  26
ENDBRANCH   1  22
BRANCH   5  28
ATOM     28  C   UNL     1       0.421  -2.838   2.224  0.00  0.00    +0.136 A 
ATOM     29  C   UNL     1       1.381  -2.639   3.170  0.00  0.00    +0.050 A 
ATOM     30  C   UNL     1       1.087  -3.510   4.235  0.00  0.00    +0.042 A 
ATOM     31  C   UNL     1      -0.021  -4.198   3.890  0.00  0.00    +0.196 A 
ATOM     32  O   UNL     1      -0.420  -3.789   2.675  0.00  0.00    -0.463 OA
ENDBRANCH   5  28
BRANCH   7  33
ATOM     33  C   UNL     1       0.360   1.401  -0.403  0.00  0.00    +0.434 C 
ATOM     34  F   UNL     1       1.692   1.801  -0.555  0.00  0.00    -0.164 F 
ATOM     35  F   UNL     1      -0.393   1.864  -1.487  0.00  0.00    -0.164 F 
ATOM     36  F   UNL     1      -0.154   1.934   0.784  0.00  0.00    -0.164 F 
ENDBRANCH   7  33
TORSDOF 5
