REMARK  Name = ZINC57313143
REMARK  9 active torsions:
REMARK  status: ('A' for Active; 'I' for Inactive)
REMARK    1  A    between atoms: C_1  and  C_2
REMARK    2  A    between atoms: C_4  and  N_20
REMARK    3  A    between atoms: C_7  and  N_8
REMARK    4  A    between atoms: C_9  and  C_11
REMARK    5  A    between atoms: C_21  and  C_23
REMARK    6  A    between atoms: C_23  and  C_24
REMARK    7  A    between atoms: C_23  and  C_25
REMARK    8  A    between atoms: C_23  and  O_26
REMARK    9  A    between atoms: O_26  and  C_27
REMARK                            x       y       z     vdW  Elec       q    Type
REMARK                         _______ _______ _______ _____ _____    ______ ____
ROOT
ATOM      1  C   UNL     1      -0.200   1.048   0.023  0.00  0.00    +0.046 C 
ATOM      2  C   UNL     1       0.105  -0.427  -0.006  0.00  0.00    -0.027 A 
ATOM      3  C   UNL     1      -0.008  -1.133  -1.187  0.00  0.00    +0.028 A 
ATOM      4  C   UNL     1       0.274  -2.492  -1.214  0.00  0.00    +0.034 A 
ATOM      5  C   UNL     1       0.669  -3.142  -0.052  0.00  0.00    +0.025 A 
ATOM      6  C   UNL     1       0.782  -2.437   1.129  0.00  0.00    +0.025 A 
ATOM      7  C   UNL     1       0.506  -1.076   1.155  0.00  0.00    +0.037 A 
ENDROOT
BRANCH   7   8
ATOM      8  N   UNL     1       0.626  -0.359   2.351  0.00  0.00    -0.279 N 
ATOM      9  C   UNL     1       0.445  -0.984   3.531  0.00  0.00    +0.284 C 
ATOM     10  O   UNL     1       0.249  -2.184   3.561  0.00  0.00    -0.266 OA
ATOM     11  H   UNL     1       0.840   0.587   2.330  0.00  0.00    +0.155 HD
BRANCH   9  12
ATOM     12  C   UNL     1       0.484  -0.215   4.783  0.00  0.00    +0.191 A 
ATOM     13  C   UNL     1       0.321  -0.737   6.027  0.00  0.00    +0.063 A 
ATOM     14  C   UNL     1       0.437   0.387   6.956  0.00  0.00    +0.021 A 
ATOM     15  C   UNL     1       0.366   0.512   8.345  0.00  0.00    +0.011 A 
ATOM     16  C   UNL     1       0.521   1.741   8.923  0.00  0.00    +0.001 A 
ATOM     17  C   UNL     1       0.749   2.863   8.138  0.00  0.00    +0.004 A 
ATOM     18  C   UNL     1       0.823   2.760   6.766  0.00  0.00    +0.047 A 
ATOM     19  C   UNL     1       0.668   1.521   6.155  0.00  0.00    +0.136 A 
ATOM     20  O   UNL     1       0.693   1.115   4.871  0.00  0.00    -0.450 OA
ENDBRANCH   9  12
ENDBRANCH   7   8
BRANCH   4  21
ATOM     21  N   UNL     1       0.158  -3.208  -2.412  0.00  0.00    -0.282 N 
ATOM     22  C   UNL     1       0.495  -2.625  -3.580  0.00  0.00    +0.261 C 
ATOM     23  O   UNL     1       0.822  -1.458  -3.603  0.00  0.00    -0.271 OA
ATOM     24  H   UNL     1      -0.164  -4.123  -2.402  0.00  0.00    +0.155 HD
BRANCH  22  25
ATOM     25  C   UNL     1       0.465  -3.425  -4.857  0.00  0.00    +0.180 C 
ATOM     26  C   UNL     1       1.429  -4.607  -4.742  0.00  0.00    +0.065 C 
ATOM     27  C   UNL     1      -0.954  -3.946  -5.099  0.00  0.00    +0.065 C 
BRANCH  25  28
ATOM     28  O   UNL     1       0.859  -2.592  -5.950  0.00  0.00    -0.477 OA
BRANCH  28  29
ATOM     29  C   UNL     1       0.088  -1.502  -6.205  0.00  0.00    +0.122 A 
ATOM     30  C   UNL     1      -0.949  -1.169  -5.346  0.00  0.00    +0.047 A 
ATOM     31  C   UNL     1      -1.731  -0.061  -5.607  0.00  0.00    +0.019 A 
ATOM     32  C   UNL     1      -1.480   0.717  -6.723  0.00  0.00    +0.018 A 
ATOM     33  C   UNL     1      -0.446   0.386  -7.581  0.00  0.00    +0.019 A 
ATOM     34  C   UNL     1       0.342  -0.718  -7.320  0.00  0.00    +0.047 A 
ATOM     35 BR   UNL     1      -2.553   2.234  -7.078  0.00  0.00    -0.050 Br
ENDBRANCH  28  29
ENDBRANCH  25  28
ENDBRANCH  22  25
ENDBRANCH   4  21
TORSDOF 6
