REMARK  Name = ZINC06149121
REMARK  10 active torsions:
REMARK  status: ('A' for Active; 'I' for Inactive)
REMARK    1  A    between atoms: C_1  and  C_2
REMARK    2  A    between atoms: C_2  and  C_3
REMARK    3  A    between atoms: C_3  and  C_4
REMARK    4  A    between atoms: C_3  and  C_5
REMARK    5  A    between atoms: C_3  and  N_6
REMARK    6  A    between atoms: C_7  and  C_11
REMARK    7  A    between atoms: C_11  and  C_13
REMARK    8  A    between atoms: C_11  and  N_75
REMARK    9  A    between atoms: C_17  and  C_26
REMARK   10  A    between atoms: C_19  and  C_25
REMARK                            x       y       z     vdW  Elec       q    Type
REMARK                         _______ _______ _______ _____ _____    ______ ____
ROOT
ATOM      1  C   UNL     1      -1.160  -0.786  -0.167  0.00  0.00    +0.039 C 
ENDROOT
BRANCH   1   2
ATOM      2  C   UNL     1      -1.610  -0.905   1.266  0.00  0.00    +0.011 A 
ATOM      3  C   UNL     1      -0.813  -0.452   2.265  0.00  0.00    +0.017 A 
ATOM      4  C   UNL     1      -1.280  -0.582   3.647  0.00  0.00    -0.001 A 
ATOM      5  C   UNL     1      -0.501  -0.133   4.719  0.00  0.00    +0.013 A 
ATOM      6  C   UNL     1      -0.966  -0.268   5.996  0.00  0.00    -0.050 A 
ATOM      7  C   UNL     1      -2.204  -0.848   6.240  0.00  0.00    +0.008 A 
ATOM      8  C   UNL     1      -2.988  -1.296   5.199  0.00  0.00    -0.026 A 
ATOM      9  C   UNL     1      -2.535  -1.169   3.890  0.00  0.00    +0.052 A 
ATOM     10  N   UNL     1      -3.299  -1.610   2.830  0.00  0.00    -0.322 N 
ATOM     11  H   UNL     1      -4.188  -2.031   3.005  0.00  0.00    +0.169 HD
ATOM     12  C   UNL     1      -2.864  -1.481   1.564  0.00  0.00    +0.251 A 
ATOM     13  O   UNL     1      -3.567  -1.877   0.651  0.00  0.00    -0.268 OA
ATOM     14  C   UNL     1      -4.330  -1.923   5.479  0.00  0.00    +0.046 C 
ATOM     15  C   UNL     1      -0.127   0.215   7.151  0.00  0.00    +0.044 C 
ENDBRANCH   1   2
BRANCH   1  26
ATOM     16  C   UNL     1      -1.711   0.181  -2.316  0.00  0.00    -0.077 C 
ATOM     17  C   UNL     1      -2.830   0.847  -3.120  0.00  0.00    -0.018 C 
ATOM     18  C   UNL     1      -3.188   2.189  -2.474  0.00  0.00    +0.003 C 
ATOM     19  C   UNL     1      -3.601   1.951  -1.019  0.00  0.00    -0.044 C 
ATOM     20  C   UNL     1      -2.460   1.253  -0.276  0.00  0.00    -0.071 C 
ATOM     21  C   UNL     1      -4.849   1.067  -0.982  0.00  0.00    +0.005 C 
ATOM     22  C   UNL     1      -5.989   1.763  -1.730  0.00  0.00    +0.000 C 
ATOM     23  C   UNL     1      -6.293   3.105  -1.060  0.00  0.00    +0.000 C 
ATOM     24  C   UNL     1      -5.044   3.988  -1.096  0.00  0.00    +0.000 C 
ATOM     25  C   UNL     1      -3.904   3.292  -0.349  0.00  0.00    +0.005 C 
ATOM     26  N   UNL     1      -2.181  -0.042  -0.932  0.00  0.00    +0.390 N 
ATOM     27  H   UNL     1      -3.046  -0.594  -0.959  0.00  0.00    -0.080 HD
ENDBRANCH   1  26
BRANCH   1  29
ATOM     28  N   UNL     1       1.367  -0.624  -0.475  0.00  0.00    -0.225 N 
ATOM     29  C   UNL     1       0.166  -0.072  -0.219  0.00  0.00    +0.143 A 
ATOM     30  N   UNL     1       0.374   1.207  -0.022  0.00  0.00    -0.115 NA
ATOM     31  N   UNL     1       1.637   1.430  -0.151  0.00  0.00    -0.023 NA
ATOM     32  N   UNL     1       2.240   0.325  -0.425  0.00  0.00    -0.043 NA
BRANCH  28  33
ATOM     33  C   UNL     1       1.633  -2.036  -0.758  0.00  0.00    +0.061 C 
ATOM     34  C   UNL     1       1.091  -2.896   0.386  0.00  0.00    +0.036 C 
ATOM     35  C   UNL     1       0.944  -2.434  -2.064  0.00  0.00    +0.036 C 
BRANCH  33  37
ATOM     36  C   UNL     1       3.419  -3.730  -1.185  0.00  0.00    +0.006 C 
ATOM     37  C   UNL     1       3.141  -2.255  -0.890  0.00  0.00    +0.026 C 
ENDBRANCH  33  37
ENDBRANCH  28  33
ENDBRANCH   1  29
TORSDOF 5
