REMARK  Name = ZINC06410042
REMARK  10 active torsions:
REMARK  status: ('A' for Active; 'I' for Inactive)
REMARK    1  A    between atoms: C_1  and  C_2
REMARK    2  A    between atoms: C_7  and  C_14
REMARK    3  A    between atoms: C_14  and  C_16
REMARK    4  A    between atoms: C_14  and  N_68
REMARK    5  A    between atoms: N_20  and  C_21
REMARK    6  A    between atoms: C_21  and  C_22
REMARK    7  A    between atoms: C_28  and  C_29
REMARK    8  A    between atoms: C_28  and  N_68
REMARK    9  A    between atoms: C_36  and  C_37
REMARK   10  A    between atoms: C_36  and  N_68
REMARK                            x       y       z     vdW  Elec       q    Type
REMARK                         _______ _______ _______ _____ _____    ______ ____
ROOT
ATOM      1  C   UNL     1       2.411   1.163   0.079  0.00  0.00    +0.040 C 
ENDROOT
BRANCH   1   8
ATOM      2  C   UNL     1      -3.723   6.262   0.065  0.00  0.00    +0.044 C 
ATOM      3  C   UNL     1      -2.727   5.132   0.081  0.00  0.00    -0.048 A 
ATOM      4  C   UNL     1      -3.177   3.821   0.154  0.00  0.00    +0.004 A 
ATOM      5  C   UNL     1      -2.291   2.781   0.169  0.00  0.00    +0.010 A 
ATOM      6  C   UNL     1      -0.917   3.040   0.105  0.00  0.00    -0.001 A 
ATOM      7  C   UNL     1       0.060   1.950   0.125  0.00  0.00    +0.017 A 
ATOM      8  C   UNL     1       1.379   2.261   0.066  0.00  0.00    +0.011 A 
ATOM      9  C   UNL     1       1.788   3.610  -0.008  0.00  0.00    +0.251 A 
ATOM     10  O   UNL     1       2.978   3.868  -0.060  0.00  0.00    -0.268 OA
ATOM     11  N   UNL     1       0.897   4.618  -0.021  0.00  0.00    -0.322 N 
ATOM     12  H   UNL     1       1.213   5.534  -0.072  0.00  0.00    +0.169 HD
ATOM     13  C   UNL     1      -0.457   4.368   0.036  0.00  0.00    +0.049 A 
ATOM     14  C   UNL     1      -1.378   5.410   0.022  0.00  0.00    +0.029 A 
ENDBRANCH   1   8
BRANCH   1  15
ATOM     15  C   UNL     1       3.271   1.297   1.309  0.00  0.00    +0.143 A 
ATOM     16  N   UNL     1       4.220   2.178   1.508  0.00  0.00    -0.115 NA
ATOM     17  N   UNL     1       4.718   1.969   2.678  0.00  0.00    -0.023 NA
ATOM     18  N   UNL     1       4.117   0.972   3.227  0.00  0.00    -0.044 NA
ATOM     19  N   UNL     1       3.217   0.530   2.414  0.00  0.00    -0.228 N 
BRANCH  19  20
ATOM     20  C   UNL     1       2.309  -0.595   2.649  0.00  0.00    +0.178 C 
BRANCH  20  21
ATOM     21  C   UNL     1       2.959  -1.888   2.153  0.00  0.00    +0.140 C 
ATOM     22  C   UNL     1       1.965  -3.061   2.291  0.00  0.00    +0.035 C 
ATOM     23  C   UNL     1       2.886  -4.220   2.759  0.00  0.00    +0.031 C 
ATOM     24  C   UNL     1       3.911  -3.449   3.629  0.00  0.00    +0.160 C 
ATOM     25  O   UNL     1       4.105  -2.195   2.956  0.00  0.00    -0.375 OA
ENDBRANCH  20  21
ENDBRANCH  19  20
ENDBRANCH   1  15
BRANCH   1  26
ATOM     26  N   UNL     1       3.271   1.290  -1.117  0.00  0.00    +0.397 N 
ATOM     27  H   UNL     1       3.937   2.056  -0.968  0.00  0.00    -0.079 HD
BRANCH  26  28
ATOM     28  C   UNL     1       2.444   1.595  -2.303  0.00  0.00    -0.041 C 
BRANCH  28  29
ATOM     29  C   UNL     1       3.322   2.228  -3.352  0.00  0.00    -0.064 A 
ATOM     30  C   UNL     1       3.589   3.583  -3.303  0.00  0.00    +0.004 A 
ATOM     31  C   UNL     1       4.398   4.164  -4.262  0.00  0.00    +0.038 A 
ATOM     32  C   UNL     1       4.932   3.390  -5.277  0.00  0.00    +0.123 A 
ATOM     33  C   UNL     1       4.660   2.033  -5.328  0.00  0.00    +0.038 A 
ATOM     34  C   UNL     1       3.855   1.454  -4.366  0.00  0.00    +0.004 A 
ATOM     35  F   UNL     1       5.719   3.957  -6.217  0.00  0.00    -0.205 F 
ENDBRANCH  28  29
ENDBRANCH  26  28
BRANCH  26  36
ATOM     36  C   UNL     1       4.022   0.035  -1.333  0.00  0.00    -0.001 C 
BRANCH  36  37
ATOM     37  C   UNL     1       3.076  -1.111  -1.584  0.00  0.00    +0.089 A 
ATOM     38  C   UNL     1       2.718  -1.586  -2.791  0.00  0.00    +0.042 A 
ATOM     39  C   UNL     1       1.823  -2.656  -2.561  0.00  0.00    +0.041 A 
ATOM     40  C   UNL     1       1.681  -2.765  -1.228  0.00  0.00    +0.195 A 
ATOM     41  O   UNL     1       2.442  -1.827  -0.641  0.00  0.00    -0.470 OA
ENDBRANCH  36  37
ENDBRANCH  26  36
ENDBRANCH   1  26
TORSDOF 9
