REMARK  Name = ZINC09090453
REMARK  7 active torsions:
REMARK  status: ('A' for Active; 'I' for Inactive)
REMARK    1  A    between atoms: C_3  and  C_10
REMARK    2  A    between atoms: C_5  and  N_7
REMARK    3  A    between atoms: C_11  and  C_12
REMARK    4  A    between atoms: N_14  and  C_15
REMARK    5  A    between atoms: N_14  and  S_22
REMARK    6  A    between atoms: S_22  and  C_25
REMARK    7  A    between atoms: C_29  and  N_31
REMARK                            x       y       z     vdW  Elec       q    Type
REMARK                         _______ _______ _______ _____ _____    ______ ____
ROOT
ATOM      1  C   UNL     1      -2.743   0.698   0.053  0.00  0.00    +0.263 C 
ATOM      2  O   UNL     1      -2.985  -0.494   0.085  0.00  0.00    -0.269 OA
ATOM      3  N   UNL     1      -3.748   1.588  -0.067  0.00  0.00    -0.136 N 
ENDROOT
BRANCH   3   4
ATOM      4  C   UNL     1      -5.074   1.146  -0.084  0.00  0.00    +0.061 A 
ATOM      5  C   UNL     1      -5.515   0.303  -1.097  0.00  0.00    +0.025 A 
ATOM      6  C   UNL     1      -6.824  -0.136  -1.108  0.00  0.00    +0.003 A 
ATOM      7  C   UNL     1      -7.700   0.271  -0.118  0.00  0.00    +0.020 A 
ATOM      8  C   UNL     1      -7.266   1.114   0.890  0.00  0.00    +0.043 A 
ATOM      9  C   UNL     1      -5.955   1.553   0.909  0.00  0.00    +0.045 A 
ATOM     10 CL   UNL     1      -8.369   1.622   2.131  0.00  0.00    -0.083 Cl
ENDBRANCH   3   4
BRANCH   3  11
ATOM     11  S   UNL     1      -3.412   3.204  -0.196  0.00  0.00    +0.081 S 
ATOM     12  O   UNL     1      -4.644   3.890  -0.019  0.00  0.00    -0.149 OA
ATOM     13  O   UNL     1      -2.279   3.450   0.624  0.00  0.00    -0.149 OA
BRANCH  11  14
ATOM     14  C   UNL     1      -2.905   3.500  -1.858  0.00  0.00    +0.111 A 
ATOM     15  C   UNL     1      -1.567   3.414  -2.197  0.00  0.00    +0.030 A 
ATOM     16  C   UNL     1      -1.165   3.641  -3.500  0.00  0.00    +0.024 A 
ATOM     17  C   UNL     1      -2.099   3.965  -4.466  0.00  0.00    +0.062 A 
ATOM     18  C   UNL     1      -3.444   4.058  -4.127  0.00  0.00    +0.045 A 
ATOM     19  C   UNL     1      -3.844   3.824  -2.818  0.00  0.00    +0.053 A 
ATOM     20 CL   UNL     1      -1.593   4.255  -6.101  0.00  0.00    -0.082 Cl
BRANCH  18  21
ATOM     21  N   UNL     1      -4.391   4.385  -5.101  0.00  0.00    -0.357 N 
ATOM     22  H   UNL     1      -5.329   4.449  -4.863  0.00  0.00    +0.142 HD
ATOM     23  H   UNL     1      -4.110   4.548  -6.015  0.00  0.00    +0.142 HD
ENDBRANCH  18  21
ENDBRANCH  11  14
ENDBRANCH   3  11
BRANCH   1  25
ATOM     24  C   UNL     1      -0.364   0.287   0.384  0.00  0.00    +0.013 C 
ATOM     25  C   UNL     1      -1.359   1.166   0.146  0.00  0.00    +0.070 C 
BRANCH  24  28
ATOM     26  C   UNL     1       2.630   2.546   0.397  0.00  0.00    +0.003 A 
ATOM     27  C   UNL     1       1.323   2.114   0.308  0.00  0.00    +0.008 A 
ATOM     28  C   UNL     1       1.028   0.757   0.472  0.00  0.00    -0.023 A 
ATOM     29  C   UNL     1       2.063  -0.153   0.713  0.00  0.00    +0.040 A 
ATOM     30  C   UNL     1       3.364   0.295   0.793  0.00  0.00    +0.127 A 
ATOM     31  C   UNL     1       3.648   1.640   0.636  0.00  0.00    +0.033 A 
BRANCH  30  32
ATOM     32  N   UNL     1       4.461  -0.666   1.048  0.00  0.00    +0.056 N 
ATOM     33  O   UNL     1       4.213  -1.851   1.186  0.00  0.00    -0.126 OA
ATOM     34  O   UNL     1       5.611  -0.273   1.119  0.00  0.00    -0.126 OA
ENDBRANCH  30  32
ENDBRANCH  24  28
ENDBRANCH   1  25
TORSDOF 7
