REMARK  Name = ZINC09429674
REMARK  9 active torsions:
REMARK  status: ('A' for Active; 'I' for Inactive)
REMARK    1  A    between atoms: C_1  and  C_2
REMARK    2  A    between atoms: C_2  and  O_3
REMARK    3  A    between atoms: O_3  and  C_4
REMARK    4  A    between atoms: C_7  and  N_10
REMARK    5  A    between atoms: C_11  and  C_13
REMARK    6  A    between atoms: C_23  and  S_26
REMARK    7  A    between atoms: S_26  and  C_29
REMARK    8  A    between atoms: C_32  and  O_35
REMARK    9  A    between atoms: O_35  and  C_36
REMARK                            x       y       z     vdW  Elec       q    Type
REMARK                         _______ _______ _______ _____ _____    ______ ____
ROOT
ATOM      1  C   UNL     1      -3.388  -7.989   0.201  0.00  0.00    +0.039 A 
ATOM      2  C   UNL     1      -2.261  -8.819   0.196  0.00  0.00    +0.014 A 
ATOM      3  C   UNL     1      -2.401 -10.173   0.292  0.00  0.00    +0.014 A 
ATOM      4  C   UNL     1      -3.673 -10.736   0.396  0.00  0.00    +0.047 A 
ATOM      5  C   UNL     1      -4.812  -9.914   0.402  0.00  0.00    +0.054 A 
ATOM      6  C   UNL     1      -4.662  -8.535   0.309  0.00  0.00    +0.039 A 
ATOM      7  N   UNL     1      -6.064 -10.485   0.505  0.00  0.00    -0.320 N 
ATOM      8  H   UNL     1      -6.848  -9.913   0.508  0.00  0.00    +0.169 HD
ATOM      9  C   UNL     1      -6.225 -11.831   0.600  0.00  0.00    +0.278 A 
ATOM     10  O   UNL     1      -7.475 -12.332   0.698  0.00  0.00    -0.266 OA
ATOM     11  C   UNL     1      -5.169 -12.691   0.600  0.00  0.00    +0.204 A 
ATOM     12  C   UNL     1      -3.857 -12.197   0.501  0.00  0.00    +0.218 A 
ATOM     13  O   UNL     1      -2.898 -12.953   0.499  0.00  0.00    -0.285 OA
ENDROOT
BRANCH   1  15
ATOM     14  N   UNL     1      -1.988  -5.989  -0.010  0.00  0.00    -0.281 N 
ATOM     15  C   UNL     1      -3.222  -6.522   0.095  0.00  0.00    +0.248 C 
ATOM     16  O   UNL     1      -4.198  -5.798   0.104  0.00  0.00    -0.270 OA
ATOM     17  H   UNL     1      -1.215  -6.569  -0.094  0.00  0.00    +0.155 HD
BRANCH  14  21
ATOM     18  C   UNL     1      -1.497  -1.849   0.025  0.00  0.00    +0.121 A 
ATOM     19  C   UNL     1      -0.648  -2.642  -0.734  0.00  0.00    +0.047 A 
ATOM     20  C   UNL     1      -0.810  -4.013  -0.746  0.00  0.00    +0.027 A 
ATOM     21  C   UNL     1      -1.823  -4.599   0.002  0.00  0.00    +0.034 A 
ATOM     22  C   UNL     1      -2.673  -3.805   0.761  0.00  0.00    +0.027 A 
ATOM     23  C   UNL     1      -2.506  -2.434   0.776  0.00  0.00    +0.047 A 
BRANCH  18  24
ATOM     24  O   UNL     1      -1.337  -0.499   0.036  0.00  0.00    -0.492 OA
BRANCH  24  26
ATOM     25  C   UNL     1      -0.254   1.559  -0.621  0.00  0.00    +0.048 C 
ATOM     26  C   UNL     1      -0.278   0.035  -0.760  0.00  0.00    +0.225 C 
ENDBRANCH  24  26
ENDBRANCH  18  24
ENDBRANCH  14  21
ENDBRANCH   1  15
BRANCH  11  27
ATOM     27  S   UNL     1      -5.448 -14.426   0.727  0.00  0.00    +0.034 S 
ATOM     28  O   UNL     1      -4.575 -14.905   1.741  0.00  0.00    -0.164 OA
ATOM     29  O   UNL     1      -6.856 -14.608   0.785  0.00  0.00    -0.164 OA
BRANCH  27  30
ATOM     30  C   UNL     1      -4.909 -15.152  -0.785  0.00  0.00    +0.094 A 
ATOM     31  C   UNL     1      -5.793 -15.289  -1.839  0.00  0.00    +0.031 A 
ATOM     32  C   UNL     1      -5.373 -15.858  -3.026  0.00  0.00    +0.047 A 
ATOM     33  C   UNL     1      -4.062 -16.293  -3.159  0.00  0.00    +0.120 A 
ATOM     34  C   UNL     1      -3.177 -16.154  -2.100  0.00  0.00    +0.047 A 
ATOM     35  C   UNL     1      -3.600 -15.580  -0.918  0.00  0.00    +0.031 A 
BRANCH  33  36
ATOM     36  O   UNL     1      -3.647 -16.854  -4.325  0.00  0.00    -0.495 OA
ATOM     37  C   UNL     1      -2.284 -17.278  -4.391  0.00  0.00    +0.277 C 
ENDBRANCH  33  36
ENDBRANCH  27  30
ENDBRANCH  11  27
TORSDOF 7
