REMARK  Name = ZINC19881786
REMARK  10 active torsions:
REMARK  status: ('A' for Active; 'I' for Inactive)
REMARK    1  A    between atoms: C_1  and  C_2
REMARK    2  A    between atoms: C_5  and  C_35
REMARK    3  A    between atoms: C_6  and  O_8
REMARK    4  A    between atoms: O_8  and  C_9
REMARK    5  A    between atoms: C_9  and  C_10
REMARK    6  A    between atoms: C_10  and  N_11
REMARK    7  A    between atoms: C_13  and  C_20
REMARK    8  A    between atoms: C_30  and  C_32
REMARK    9  A    between atoms: C_32  and  C_33
REMARK   10  A    between atoms: C_32  and  C_34
REMARK                            x       y       z     vdW  Elec       q    Type
REMARK                         _______ _______ _______ _____ _____    ______ ____
ROOT
ATOM      1  N   UNL     1       0.150  -2.399   6.069  0.00  0.00    -0.343 N 
ATOM      2  C   UNL     1       1.230  -1.992   6.764  0.00  0.00    +0.095 A 
ATOM      3  C   UNL     1       0.829  -1.183   7.810  0.00  0.00    +0.001 A 
ATOM      4  C   UNL     1      -0.643  -1.100   7.725  0.00  0.00    +0.007 A 
ATOM      5  C   UNL     1      -1.007  -1.877   6.613  0.00  0.00    +0.050 A 
ATOM      6  C   UNL     1      -2.350  -1.988   6.271  0.00  0.00    +0.026 A 
ATOM      7  C   UNL     1      -3.307  -1.337   7.020  0.00  0.00    +0.002 A 
ATOM      8  C   UNL     1      -2.945  -0.568   8.115  0.00  0.00    +0.001 A 
ATOM      9  C   UNL     1      -1.619  -0.452   8.475  0.00  0.00    +0.010 A 
ENDROOT
BRANCH   3  10
ATOM     10  C   UNL     1       1.661  -0.559   8.768  0.00  0.00    +0.026 C 
ATOM     11  C   UNL     1       2.970  -0.249   8.449  0.00  0.00    +0.079 C 
ATOM     12  C   UNL     1       3.490  -0.374   7.061  0.00  0.00    +0.132 C 
ATOM     13  N   UNL     1       2.758  -0.160   5.998  0.00  0.00    -0.385 N 
ATOM     14  N   UNL     1       4.850  -0.746   7.002  0.00  0.00    -0.154 N 
ATOM     15  C   UNL     1       5.632  -0.471   8.104  0.00  0.00    +0.181 C 
ATOM     16  N   UNL     1       5.245   0.016   9.255  0.00  0.00    -0.152 NA
ATOM     17  C   UNL     1       3.929   0.231   9.472  0.00  0.00    +0.273 C 
ATOM     18  O   UNL     1       3.540   0.799  10.480  0.00  0.00    -0.268 OA
ATOM     19  S   UNL     1       7.242  -0.966   7.549  0.00  0.00    -0.038 S 
ATOM     20  C   UNL     1       6.755  -1.592   5.947  0.00  0.00    +0.102 C 
ATOM     21  N   UNL     1       5.475  -1.352   5.934  0.00  0.00    -0.169 NA
ATOM     22  H   UNL     1       1.853   0.178   6.092  0.00  0.00    +0.157 HD
ATOM     23  H   UNL     1       3.119  -0.340   5.116  0.00  0.00    +0.157 HD
BRANCH  20  24
ATOM     24  C   UNL     1       7.608  -2.234   4.883  0.00  0.00    +0.040 C 
ATOM     25  C   UNL     1       7.749  -3.729   5.176  0.00  0.00    +0.014 C 
ATOM     26  C   UNL     1       6.949  -2.041   3.516  0.00  0.00    +0.014 C 
ENDBRANCH  20  24
ENDBRANCH   3  10
BRANCH   1  27
ATOM     27  C   UNL     1       0.197  -3.270   4.892  0.00  0.00    +0.163 C 
BRANCH  27  28
ATOM     28  C   UNL     1       0.208  -2.414   3.624  0.00  0.00    +0.250 C 
BRANCH  28  29
ATOM     29  O   UNL     1       0.254  -3.264   2.476  0.00  0.00    -0.490 OA
BRANCH  29  35
ATOM     30  C   UNL     1       0.228   0.844  -0.159  0.00  0.00    +0.044 C 
ATOM     31  C   UNL     1       0.258  -0.659  -0.064  0.00  0.00    -0.047 A 
ATOM     32  C   UNL     1       0.302  -1.424  -1.216  0.00  0.00    +0.004 A 
ATOM     33  C   UNL     1       0.330  -2.803  -1.132  0.00  0.00    +0.007 A 
ATOM     34  C   UNL     1       0.314  -3.422   0.103  0.00  0.00    -0.009 A 
ATOM     35  C   UNL     1       0.270  -2.658   1.260  0.00  0.00    +0.124 A 
ATOM     36  C   UNL     1       0.248  -1.273   1.173  0.00  0.00    +0.049 A 
ATOM     37  C   UNL     1       0.344  -4.926   0.194  0.00  0.00    +0.047 C 
ENDBRANCH  29  35
ENDBRANCH  28  29
ENDBRANCH  27  28
ENDBRANCH   1  27
TORSDOF 6
