REMARK  Name = ZINC39466974
REMARK  8 active torsions:
REMARK  status: ('A' for Active; 'I' for Inactive)
REMARK    1  A    between atoms: C_1  and  C_2
REMARK    2  A    between atoms: C_2  and  C_3
REMARK    3  A    between atoms: C_2  and  S_4
REMARK    4  A    between atoms: S_4  and  C_7
REMARK    5  A    between atoms: P_16  and  C_32
REMARK    6  A    between atoms: C_24  and  C_25
REMARK    7  A    between atoms: C_30  and  O_31
REMARK    8  A    between atoms: C_32  and  C_33
REMARK                            x       y       z     vdW  Elec       q    Type
REMARK                         _______ _______ _______ _____ _____    ______ ____
ROOT
ATOM      1  C   UNL     1      -1.536  -2.381   0.152  0.00  0.00    +0.092 C 
ATOM      2  C   UNL     1      -1.983  -3.010   1.232  0.00  0.00    +0.004 C 
ATOM      3  C   UNL     1      -1.852  -4.505   1.342  0.00  0.00    +0.017 C 
ATOM      4  C   UNL     1      -2.910  -5.062   2.283  0.00  0.00    -0.003 C 
ATOM      5  C   UNL     1      -3.241  -6.522   1.944  0.00  0.00    -0.020 C 
ATOM      6  C   UNL     1      -3.688  -7.163   3.266  0.00  0.00    +0.156 C 
ATOM      7  O   UNL     1      -4.052  -8.537   3.058  0.00  0.00    -0.319 OA
ATOM      8  P   UNL     1      -2.985  -9.480   2.270  0.00  0.00    +0.262 P 
ATOM      9  O   UNL     1      -3.667 -10.661   1.696  0.00  0.00    -0.274 OA
ATOM     10  N   UNL     1      -2.384  -8.525   1.069  0.00  0.00    -0.291 NA
ATOM     11  N   UNL     1      -2.091  -7.210   1.369  0.00  0.00    +0.397 N 
ATOM     12  C   UNL     1      -1.689  -6.638   0.075  0.00  0.00    -0.046 C 
ATOM     13  C   UNL     1      -2.039  -5.146  -0.031  0.00  0.00    +0.005 C 
ATOM     14  C   UNL     1      -1.138  -4.474  -1.033  0.00  0.00    -0.014 C 
ATOM     15  C   UNL     1      -0.905  -3.156  -0.938  0.00  0.00    +0.006 C 
ATOM     16  H   UNL     1      -2.236  -8.883   0.179  0.00  0.00    +0.111 HD
ATOM     17  H   UNL     1      -1.316  -7.166   2.013  0.00  0.00    -0.055 HD
ENDROOT
BRANCH  15  18
ATOM     18  C   UNL     1      -0.016  -2.484  -1.915  0.00  0.00    +0.025 A 
ATOM     19  C   UNL     1      -0.557  -1.674  -2.912  0.00  0.00    +0.012 A 
ATOM     20  C   UNL     1       0.275  -1.050  -3.819  0.00  0.00    +0.001 A 
ATOM     21  C   UNL     1       1.646  -1.227  -3.744  0.00  0.00    +0.004 A 
ATOM     22  C   UNL     1       2.193  -2.029  -2.760  0.00  0.00    +0.046 A 
ATOM     23  C   UNL     1       1.370  -2.656  -1.839  0.00  0.00    +0.125 A 
BRANCH  23  24
ATOM     24  O   UNL     1       1.907  -3.440  -0.868  0.00  0.00    -0.506 OA
ATOM     25  H   UNL     1       2.005  -4.368  -1.121  0.00  0.00    +0.292 HD
ENDBRANCH  23  24
ENDBRANCH  15  18
BRANCH   1  26
ATOM     26  S   UNL     1      -1.700  -0.632   0.015  0.00  0.00    -0.001 S 
ATOM     27  O   UNL     1      -2.359  -0.234   1.209  0.00  0.00    -0.169 OA
ATOM     28  O   UNL     1      -2.308  -0.423  -1.252  0.00  0.00    -0.169 OA
BRANCH  26  30
ATOM     29  C   UNL     1      -0.019   1.526   0.010  0.00  0.00    +0.032 C 
ATOM     30  C   UNL     1       0.002  -0.004   0.002  0.00  0.00    +0.130 C 
ATOM     31  C   UNL     1       0.742  -0.511   1.242  0.00  0.00    +0.032 C 
ENDBRANCH  26  30
ENDBRANCH   1  26
BRANCH   8  32
ATOM     32  C   UNL     1      -1.650 -10.004   3.396  0.00  0.00    +0.147 C 
BRANCH  32  33
ATOM     33  C   UNL     1      -2.238 -10.782   4.544  0.00  0.00    -0.037 A 
ATOM     34  C   UNL     1      -2.640 -10.124   5.692  0.00  0.00    +0.004 A 
ATOM     35  C   UNL     1      -3.179 -10.837   6.745  0.00  0.00    +0.000 A 
ATOM     36  C   UNL     1      -3.318 -12.210   6.652  0.00  0.00    +0.000 A 
ATOM     37  C   UNL     1      -2.918 -12.868   5.504  0.00  0.00    +0.000 A 
ATOM     38  C   UNL     1      -2.382 -12.154   4.449  0.00  0.00    +0.004 A 
ENDBRANCH  32  33
ENDBRANCH   8  32
TORSDOF 6
