REMARK  Name = ZINC36598477
REMARK  19 active torsions:
REMARK  status: ('A' for Active; 'I' for Inactive)
REMARK    1  A    between atoms: C_1  and  C_2
REMARK    2  A    between atoms: C_5  and  C_7
REMARK    3  A    between atoms: C_7  and  N_8
REMARK    4  A    between atoms: N_8  and  C_9
REMARK    5  A    between atoms: C_9  and  C_11
REMARK    6  A    between atoms: C_9  and  C_18
REMARK    7  A    between atoms: C_14  and  O_17
REMARK    8  A    between atoms: N_20  and  C_21
REMARK    9  A    between atoms: C_21  and  C_22
REMARK   10  A    between atoms: C_21  and  C_23
REMARK   11  A    between atoms: C_21  and  C_24
REMARK   12  A    between atoms: C_24  and  C_25
REMARK   13  A    between atoms: C_25  and  C_26
REMARK   14  A    between atoms: C_25  and  C_27
REMARK   15  A    between atoms: C_25  and  C_28
REMARK   16  A    between atoms: C_29  and  C_31
REMARK   17  A    between atoms: C_31  and  C_32
REMARK   18  A    between atoms: C_32  and  C_34
REMARK   19  A    between atoms: C_32  and  C_35
REMARK                            x       y       z     vdW  Elec       q    Type
REMARK                         _______ _______ _______ _____ _____    ______ ____
ROOT
ATOM      1  C   UNL     1       2.599  -1.564  -1.926  0.00  0.00    +0.193 C 
ENDROOT
BRANCH   1   2
ATOM      2  C   UNL     1       3.582  -1.859  -0.823  0.00  0.00    -0.018 A 
ATOM      3  C   UNL     1       3.469  -1.213   0.394  0.00  0.00    +0.009 A 
ATOM      4  C   UNL     1       4.369  -1.481   1.407  0.00  0.00    +0.046 A 
ATOM      5  C   UNL     1       5.388  -2.401   1.202  0.00  0.00    +0.117 A 
ATOM      6  C   UNL     1       5.500  -3.048  -0.020  0.00  0.00    +0.046 A 
ATOM      7  C   UNL     1       4.593  -2.780  -1.028  0.00  0.00    +0.009 A 
BRANCH   5   8
ATOM      8  O   UNL     1       6.276  -2.666   2.196  0.00  0.00    -0.507 OA
ATOM      9  H   UNL     1       6.008  -3.390   2.779  0.00  0.00    +0.292 HD
ENDBRANCH   5   8
ENDBRANCH   1   2
BRANCH   1  10
ATOM     10  C   UNL     1       2.913  -0.221  -2.534  0.00  0.00    +0.239 C 
ATOM     11  O   UNL     1       2.111   0.685  -2.451  0.00  0.00    -0.273 OA
ATOM     12  N   UNL     1       4.086  -0.027  -3.169  0.00  0.00    -0.308 N 
ATOM     13  H   UNL     1       4.728  -0.751  -3.235  0.00  0.00    +0.149 HD
BRANCH  12  14
ATOM     14  C   UNL     1       4.392   1.278  -3.759  0.00  0.00    +0.030 C 
ATOM     15  C   UNL     1       3.443   1.544  -4.930  0.00  0.00    +0.031 C 
ATOM     16  C   UNL     1       4.215   2.370  -2.702  0.00  0.00    +0.031 C 
BRANCH  14  17
ATOM     17  C   UNL     1       5.837   1.285  -4.263  0.00  0.00    +0.031 C 
BRANCH  17  18
ATOM     18  C   UNL     1       6.719   0.502  -3.288  0.00  0.00    -0.036 C 
ATOM     19  C   UNL     1       6.681  -0.985  -3.648  0.00  0.00    +0.010 C 
ATOM     20  C   UNL     1       8.159   1.012  -3.382  0.00  0.00    +0.010 C 
ATOM     21  C   UNL     1       6.201   0.696  -1.862  0.00  0.00    +0.010 C 
ENDBRANCH  17  18
ENDBRANCH  14  17
ENDBRANCH  12  14
ENDBRANCH   1  10
BRANCH   1  22
ATOM     22  N   UNL     1       1.240  -1.545  -1.377  0.00  0.00    -0.279 N 
ATOM     23  C   UNL     1       0.671  -2.689  -0.949  0.00  0.00    +0.217 C 
ATOM     24  O   UNL     1       1.283  -3.734  -1.019  0.00  0.00    -0.276 OA
BRANCH  22  25
ATOM     25  C   UNL     1       0.501  -0.283  -1.294  0.00  0.00    +0.183 C 
BRANCH  25  30
ATOM     26  C   UNL     1      -0.534   1.438  -5.920  0.00  0.00    +0.086 C 
ATOM     27  C   UNL     1      -0.669   0.713  -4.606  0.00  0.00    +0.102 A 
ATOM     28  C   UNL     1      -1.713  -0.047  -4.230  0.00  0.00    +0.045 A 
ATOM     29  C   UNL     1      -1.423  -0.529  -2.933  0.00  0.00    +0.046 A 
ATOM     30  C   UNL     1      -0.218  -0.036  -2.594  0.00  0.00    +0.122 A 
ATOM     31  O   UNL     1       0.236   0.711  -3.614  0.00  0.00    -0.463 OA
ENDBRANCH  25  30
ENDBRANCH  22  25
BRANCH  23  32
ATOM     32  C   UNL     1      -0.726  -2.671  -0.385  0.00  0.00    +0.104 C 
BRANCH  32  33
ATOM     33  C   UNL     1      -1.131  -4.089   0.023  0.00  0.00    +0.025 C 
ATOM     34  C   UNL     1      -1.209  -4.975  -1.222  0.00  0.00    +0.013 C 
BRANCH  33  35
ATOM     35  C   UNL     1      -2.477  -4.052   0.699  0.00  0.00    -0.044 A 
ATOM     36  C   UNL     1      -3.581  -3.579   0.016  0.00  0.00    +0.004 A 
ATOM     37  C   UNL     1      -4.816  -3.545   0.636  0.00  0.00    +0.000 A 
ATOM     38  C   UNL     1      -4.947  -3.986   1.940  0.00  0.00    +0.000 A 
ATOM     39  C   UNL     1      -3.843  -4.460   2.623  0.00  0.00    +0.000 A 
ATOM     40  C   UNL     1      -2.609  -4.497   2.001  0.00  0.00    +0.004 A 
ENDBRANCH  33  35
ENDBRANCH  32  33
ENDBRANCH  23  32
ENDBRANCH   1  22
TORSDOF 12
