REMARK  Name = ZINC54116322
REMARK  9 active torsions:
REMARK  status: ('A' for Active; 'I' for Inactive)
REMARK    1  A    between atoms: C_1  and  C_2
REMARK    2  A    between atoms: C_2  and  C_3
REMARK    3  A    between atoms: C_2  and  N_9
REMARK    4  A    between atoms: N_9  and  C_10
REMARK    5  A    between atoms: C_13  and  C_19
REMARK    6  A    between atoms: C_15  and  N_16
REMARK    7  A    between atoms: N_21  and  C_22
REMARK    8  A    between atoms: C_22  and  C_23
REMARK    9  A    between atoms: C_27  and  O_29
REMARK                            x       y       z     vdW  Elec       q    Type
REMARK                         _______ _______ _______ _____ _____    ______ ____
ROOT
ATOM      1  C   UNL     1      -2.002  -0.916   1.241  0.00  0.00    +0.058 A 
ATOM      2  C   UNL     1      -1.340  -0.677   2.443  0.00  0.00    +0.026 A 
ATOM      3  C   UNL     1      -2.054  -0.571   3.614  0.00  0.00    +0.015 A 
ATOM      4  C   UNL     1      -3.446  -0.702   3.597  0.00  0.00    +0.039 A 
ATOM      5  C   UNL     1      -4.108  -0.941   2.389  0.00  0.00    +0.047 A 
ATOM      6  C   UNL     1      -3.388  -1.042   1.220  0.00  0.00    +0.148 A 
ENDROOT
BRANCH   4   7
ATOM      7  C   UNL     1      -4.215  -0.589   4.851  0.00  0.00    +0.244 C 
ATOM      8  O   UNL     1      -5.425  -0.703   4.834  0.00  0.00    -0.270 OA
ATOM      9  N   UNL     1      -3.576  -0.358   6.014  0.00  0.00    -0.307 N 
ATOM     10  H   UNL     1      -2.610  -0.267   6.028  0.00  0.00    +0.149 HD
BRANCH   9  11
ATOM     11  C   UNL     1      -4.339  -0.245   7.260  0.00  0.00    +0.140 C 
BRANCH  11  12
ATOM     12  C   UNL     1      -3.395   0.011   8.406  0.00  0.00    -0.027 A 
ATOM     13  C   UNL     1      -2.849  -1.052   9.102  0.00  0.00    +0.005 A 
ATOM     14  C   UNL     1      -1.983  -0.821  10.154  0.00  0.00    +0.004 A 
ATOM     15  C   UNL     1      -1.661   0.474  10.514  0.00  0.00    +0.045 A 
ATOM     16  C   UNL     1      -2.208   1.542   9.818  0.00  0.00    +0.117 A 
ATOM     17  C   UNL     1      -3.072   1.307   8.758  0.00  0.00    +0.050 A 
BRANCH  16  18
ATOM     18  O   UNL     1      -1.893   2.816  10.169  0.00  0.00    -0.507 OA
ATOM     19  H   UNL     1      -1.118   3.170   9.712  0.00  0.00    +0.292 HD
ENDBRANCH  16  18
ENDBRANCH  11  12
ENDBRANCH   9  11
ENDBRANCH   4   7
BRANCH   6  20
ATOM     20  N   UNL     1      -4.088  -1.290  -0.060  0.00  0.00    +0.058 N 
ATOM     21  O   UNL     1      -3.704  -0.753  -1.073  0.00  0.00    -0.126 OA
ATOM     22  O   UNL     1      -5.044  -2.029  -0.093  0.00  0.00    -0.126 OA
ENDBRANCH   6  20
BRANCH   1  23
ATOM     23  N   UNL     1      -1.277  -1.023   0.059  0.00  0.00    -0.334 N 
ATOM     24  H   UNL     1      -1.726  -1.270  -0.764  0.00  0.00    +0.147 HD
BRANCH  23  26
ATOM     25  C   UNL     1       0.411   0.740  -0.099  0.00  0.00    +0.034 C 
ATOM     26  C   UNL     1       0.164  -0.762   0.058  0.00  0.00    +0.116 C 
BRANCH  26  27
ATOM     27  C   UNL     1       0.807  -1.499  -1.089  0.00  0.00    +0.061 A 
ATOM     28  C   UNL     1       2.143  -1.847  -1.014  0.00  0.00    +0.025 A 
ATOM     29  C   UNL     1       2.724  -2.525  -2.075  0.00  0.00    +0.003 A 
ATOM     30  C   UNL     1       1.937  -2.828  -3.175  0.00  0.00    +0.020 A 
ATOM     31  C   UNL     1       0.609  -2.448  -3.179  0.00  0.00    +0.111 A 
ATOM     32  N   UNL     1       0.087  -1.809  -2.149  0.00  0.00    -0.258 NA
ENDBRANCH  26  27
ENDBRANCH  23  26
ENDBRANCH   1  23
TORSDOF 8
