REMARK  Name = ZINC13275712
REMARK  5 active torsions:
REMARK  status: ('A' for Active; 'I' for Inactive)
REMARK    1  A    between atoms: C_3  and  O_13
REMARK    2  A    between atoms: C_4  and  C_11
REMARK    3  A    between atoms: C_6  and  S_7
REMARK    4  A    between atoms: S_7  and  N_10
REMARK    5  A    between atoms: O_13  and  C_14
REMARK                            x       y       z     vdW  Elec       q    Type
REMARK                         _______ _______ _______ _____ _____    ______ ____
ROOT
ATOM      1  C   UNL     1       0.956   7.237  -0.178  0.00  0.00    +0.032 A 
ATOM      2  C   UNL     1       1.023   5.861  -0.080  0.00  0.00    +0.049 A 
ATOM      3  C   UNL     1       2.254   5.222  -0.096  0.00  0.00    +0.143 A 
ATOM      4  C   UNL     1       3.429   5.980  -0.207  0.00  0.00    +0.107 A 
ATOM      5  C   UNL     1       3.346   7.371  -0.311  0.00  0.00    +0.047 A 
ATOM      6  C   UNL     1       2.114   7.989  -0.293  0.00  0.00    +0.106 A 
ENDROOT
BRANCH   6   7
ATOM      7  S   UNL     1       2.011   9.743  -0.418  0.00  0.00    +0.056 S 
ATOM      8  O   UNL     1       3.201  10.175  -1.064  0.00  0.00    -0.153 OA
ATOM      9  O   UNL     1       0.718  10.039  -0.926  0.00  0.00    -0.153 OA
BRANCH   7  10
ATOM     10  N   UNL     1       2.064  10.348   1.123  0.00  0.00    -0.204 NA
ATOM     11  H   UNL     1       2.139   9.744   1.879  0.00  0.00    +0.144 HD
ATOM     12  H   UNL     1       2.020  11.305   1.270  0.00  0.00    +0.144 HD
ENDBRANCH   7  10
ENDBRANCH   6   7
BRANCH   4  13
ATOM     13  C   UNL     1       4.743   5.313  -0.219  0.00  0.00    +0.390 C 
ATOM     14  O   UNL     1       4.811   4.103  -0.133  0.00  0.00    -0.240 OA
ATOM     15  O   UNL     1       5.870   6.045  -0.326  0.00  0.00    -0.240 OA
ENDBRANCH   4  13
BRANCH   3  16
ATOM     16  O   UNL     1       2.322   3.871   0.001  0.00  0.00    -0.452 OA
BRANCH  16  17
ATOM     17  C   UNL     1       1.156   3.172  -0.005  0.00  0.00    +0.164 A 
ATOM     18  C   UNL     1       0.603   2.733   1.190  0.00  0.00    +0.050 A 
ATOM     19  C   UNL     1      -0.581   2.022   1.182  0.00  0.00    +0.019 A 
ATOM     20  C   UNL     1      -1.220   1.752  -0.015  0.00  0.00    +0.021 A 
ATOM     21  C   UNL     1      -0.670   2.183  -1.208  0.00  0.00    +0.057 A 
ATOM     22  C   UNL     1       0.516   2.895  -1.206  0.00  0.00    +0.166 A 
ATOM     23  F   UNL     1       1.051   3.321  -2.371  0.00  0.00    -0.202 F 
ATOM     24 BR   UNL     1      -2.846   0.785  -0.019  0.00  0.00    -0.050 Br
ENDBRANCH  16  17
ENDBRANCH   3  16
TORSDOF 5
