REMARK  Name = ZINC08756102
REMARK  9 active torsions:
REMARK  status: ('A' for Active; 'I' for Inactive)
REMARK    1  A    between atoms: C_1  and  C_2
REMARK    2  A    between atoms: C_5  and  N_8
REMARK    3  A    between atoms: C_9  and  C_11
REMARK    4  A    between atoms: C_17  and  C_18
REMARK    5  A    between atoms: C_18  and  O_20
REMARK    6  A    between atoms: O_20  and  C_21
REMARK    7  A    between atoms: C_23  and  N_36
REMARK    8  A    between atoms: C_24  and  C_34
REMARK    9  A    between atoms: C_25  and  C_27
REMARK                            x       y       z     vdW  Elec       q    Type
REMARK                         _______ _______ _______ _____ _____    ______ ____
ROOT
ATOM      1  C   UNL     1      -3.723   2.903   0.221  0.00  0.00    +0.058 C 
ATOM      2  C   UNL     1      -3.559   1.561   0.330  0.00  0.00    +0.099 A 
ATOM      3  N   UNL     1      -2.334   0.923   0.324  0.00  0.00    -0.257 N 
ATOM      4  C   UNL     1      -2.325  -0.420   0.440  0.00  0.00    +0.272 A 
ATOM      5  O   UNL     1      -1.280  -1.040   0.441  0.00  0.00    -0.266 OA
ATOM      6  C   UNL     1      -3.626  -1.118   0.566  0.00  0.00    +0.086 A 
ATOM      7  C   UNL     1      -3.884  -2.445   0.695  0.00  0.00    +0.112 C 
ATOM      8  S   UNL     1      -4.762   0.258   0.504  0.00  0.00    -0.065 S 
ATOM      9  C   UNL     1      -1.168   1.688   0.199  0.00  0.00    +0.118 C 
ATOM     10  C   UNL     1      -1.163   3.034   0.088  0.00  0.00    +0.079 C 
ATOM     11  C   UNL     1      -2.488   3.770   0.083  0.00  0.00    +0.100 C 
ENDROOT
BRANCH  11  12
ATOM     12  C   UNL     1      -2.596   4.543  -1.206  0.00  0.00    -0.032 A 
ATOM     13  C   UNL     1      -2.602   5.925  -1.185  0.00  0.00    +0.005 A 
ATOM     14  C   UNL     1      -2.701   6.635  -2.367  0.00  0.00    +0.003 A 
ATOM     15  C   UNL     1      -2.794   5.963  -3.571  0.00  0.00    +0.038 A 
ATOM     16  C   UNL     1      -2.789   4.579  -3.594  0.00  0.00    +0.124 A 
ATOM     17  C   UNL     1      -2.684   3.869  -2.409  0.00  0.00    +0.043 A 
ATOM     18  F   UNL     1      -2.880   3.922  -4.770  0.00  0.00    -0.205 F 
ENDBRANCH  11  12
BRANCH   1  20
ATOM     19  N   UNL     1      -5.153   4.811   0.127  0.00  0.00    -0.282 N 
ATOM     20  C   UNL     1      -5.009   3.476   0.236  0.00  0.00    +0.248 C 
ATOM     21  O   UNL     1      -5.992   2.764   0.347  0.00  0.00    -0.270 OA
ATOM     22  H   UNL     1      -4.376   5.372  -0.025  0.00  0.00    +0.155 HD
BRANCH  19  27
ATOM     23  C   UNL     1     -10.301   7.154   0.552  0.00  0.00    +0.044 C 
ATOM     24  C   UNL     1      -8.933   6.532   0.439  0.00  0.00    -0.050 A 
ATOM     25  C   UNL     1      -7.830   7.196   0.942  0.00  0.00    +0.005 A 
ATOM     26  C   UNL     1      -6.575   6.628   0.840  0.00  0.00    +0.023 A 
ATOM     27  C   UNL     1      -6.422   5.389   0.232  0.00  0.00    +0.034 A 
ATOM     28  C   UNL     1      -7.532   4.727  -0.277  0.00  0.00    +0.023 A 
ATOM     29  C   UNL     1      -8.785   5.298  -0.168  0.00  0.00    +0.005 A 
ENDBRANCH  19  27
ENDBRANCH   1  20
BRANCH   9  30
ATOM     30  N   UNL     1       0.040   1.033   0.196  0.00  0.00    -0.343 N 
ATOM     31  H   UNL     1       0.798   1.417  -0.271  0.00  0.00    +0.144 HD
ATOM     32  H   UNL     1       0.135   0.189   0.664  0.00  0.00    +0.144 HD
ENDBRANCH   9  30
BRANCH   7  33
ATOM     33  C   UNL     1      -5.265  -2.914   0.805  0.00  0.00    +0.333 C 
ATOM     34  O   UNL     1      -6.182  -2.116   0.781  0.00  0.00    -0.246 OA
BRANCH  33  35
ATOM     35  O   UNL     1      -5.522  -4.233   0.933  0.00  0.00    -0.465 OA
ATOM     36  C   UNL     1      -6.894  -4.620   1.035  0.00  0.00    +0.280 C 
ENDBRANCH  33  35
ENDBRANCH   7  33
BRANCH  10  37
ATOM     37  C   UNL     1       0.070   3.752  -0.030  0.00  0.00    +0.099 C 
ATOM     38  N   UNL     1       1.049   4.322  -0.124  0.00  0.00    -0.191 NA
ENDBRANCH  10  37
TORSDOF 7
