REMARK  Name = ZINC51668323
REMARK  6 active torsions:
REMARK  status: ('A' for Active; 'I' for Inactive)
REMARK    1  A    between atoms: C_3  and  C_9
REMARK    2  A    between atoms: C_5  and  C_7
REMARK    3  A    between atoms: C_9  and  N_10
REMARK    4  A    between atoms: N_10  and  C_11
REMARK    5  A    between atoms: C_14  and  N_20
REMARK    6  A    between atoms: C_16  and  C_17
REMARK                            x       y       z     vdW  Elec       q    Type
REMARK                         _______ _______ _______ _____ _____    ______ ____
ROOT
ATOM      1  C   UNL     1       5.259   3.182   1.599  0.00  0.00    +0.042 A 
ATOM      2  C   UNL     1       6.072   3.572   0.543  0.00  0.00    +0.025 A 
ATOM      3  C   UNL     1       7.246   4.253   0.787  0.00  0.00    +0.024 A 
ATOM      4  C   UNL     1       7.626   4.556   2.092  0.00  0.00    +0.025 A 
ATOM      5  C   UNL     1       6.829   4.176   3.155  0.00  0.00    +0.039 A 
ATOM      6  C   UNL     1       5.633   3.489   2.918  0.00  0.00    +0.086 A 
ENDROOT
BRANCH   6   7
ATOM      7  C   UNL     1       4.776   3.086   4.043  0.00  0.00    +0.388 C 
ATOM      8  O   UNL     1       5.047   3.448   5.179  0.00  0.00    -0.241 OA
ATOM      9  O   UNL     1       3.791   2.388   3.842  0.00  0.00    -0.241 OA
ENDBRANCH   6   7
BRANCH   4  10
ATOM     10  N   UNL     1       8.821   5.248   2.328  0.00  0.00    -0.358 N 
ATOM     11  H   UNL     1       9.382   5.515   1.583  0.00  0.00    +0.142 HD
ATOM     12  H   UNL     1       9.087   5.459   3.236  0.00  0.00    +0.142 HD
ENDBRANCH   4  10
BRANCH   1  13
ATOM     13  N   UNL     1       4.076   2.495   1.352  0.00  0.00    -0.339 N 
ATOM     14  H   UNL     1       3.551   2.151   2.092  0.00  0.00    +0.146 HD
BRANCH  13  15
ATOM     15  C   UNL     1       3.623   2.290  -0.026  0.00  0.00    +0.137 C 
BRANCH  15  18
ATOM     16  C   UNL     1      -0.074   1.508   0.037  0.00  0.00    +0.002 A 
ATOM     17  C   UNL     1       1.122   2.204   0.031  0.00  0.00    +0.005 A 
ATOM     18  C   UNL     1       2.325   1.523  -0.019  0.00  0.00    -0.029 A 
ATOM     19  C   UNL     1       2.340   0.144  -0.063  0.00  0.00    +0.024 A 
ATOM     20  C   UNL     1       1.137  -0.564  -0.057  0.00  0.00    +0.052 A 
ATOM     21  C   UNL     1      -0.074   0.130  -0.007  0.00  0.00    +0.019 A 
BRANCH  20  22
ATOM     22  C   UNL     1       1.145  -1.995  -0.103  0.00  0.00    +0.099 C 
ATOM     23  N   UNL     1       1.151  -3.131  -0.139  0.00  0.00    -0.191 NA
ENDBRANCH  20  22
ENDBRANCH  15  18
ENDBRANCH  13  15
ENDBRANCH   1  13
TORSDOF 6
