REMARK  Name = ZINC63503232
REMARK  12 active torsions:
REMARK  status: ('A' for Active; 'I' for Inactive)
REMARK    1  A    between atoms: C_1  and  C_2
REMARK    2  A    between atoms: C_9  and  C_12
REMARK    3  A    between atoms: C_15  and  N_18
REMARK    4  A    between atoms: C_19  and  C_21
REMARK    5  A    between atoms: C_21  and  C_23
REMARK    6  A    between atoms: C_21  and  N_33
REMARK    7  A    between atoms: C_23  and  C_24
REMARK    8  A    between atoms: C_34  and  O_36
REMARK    9  A    between atoms: O_36  and  C_37
REMARK   10  A    between atoms: C_37  and  C_38
REMARK   11  A    between atoms: C_38  and  C_39
REMARK   12  A    between atoms: C_38  and  C_40
REMARK                            x       y       z     vdW  Elec       q    Type
REMARK                         _______ _______ _______ _____ _____    ______ ____
ROOT
ATOM      1  N   UNL     1      -4.556  -7.973   2.280  0.00  0.00    -0.284 N 
ATOM      2  C   UNL     1      -4.508  -9.015   3.133  0.00  0.00    +0.238 C 
ATOM      3  O   UNL     1      -3.505  -9.223   3.782  0.00  0.00    -0.273 OA
ATOM      4  H   UNL     1      -5.382  -7.761   1.819  0.00  0.00    +0.155 HD
ENDROOT
BRANCH   1   8
ATOM      5  C   UNL     1      -1.152  -5.663   1.621  0.00  0.00    -0.017 A 
ATOM      6  C   UNL     1      -1.028  -7.016   1.878  0.00  0.00    +0.008 A 
ATOM      7  C   UNL     1      -2.155  -7.785   2.097  0.00  0.00    +0.023 A 
ATOM      8  C   UNL     1      -3.413  -7.197   2.059  0.00  0.00    +0.033 A 
ATOM      9  C   UNL     1      -3.533  -5.838   1.802  0.00  0.00    +0.023 A 
ATOM     10  C   UNL     1      -2.403  -5.074   1.589  0.00  0.00    +0.008 A 
BRANCH   5  19
ATOM     11  C   UNL     1       5.338  -6.873  -1.776  0.00  0.00    +0.044 C 
ATOM     12  C   UNL     1       4.277  -6.506  -0.770  0.00  0.00    -0.049 A 
ATOM     13  C   UNL     1       4.467  -6.763   0.575  0.00  0.00    +0.005 A 
ATOM     14  C   UNL     1       3.507  -6.433   1.504  0.00  0.00    +0.024 A 
ATOM     15  C   UNL     1       2.300  -5.824   1.118  0.00  0.00    +0.042 A 
ATOM     16  C   UNL     1       2.137  -5.578  -0.248  0.00  0.00    +0.031 A 
ATOM     17  C   UNL     1       3.100  -5.902  -1.178  0.00  0.00    +0.020 A 
ATOM     18  S   UNL     1       0.537  -4.816  -0.396  0.00  0.00    -0.096 S 
ATOM     19  C   UNL     1       0.079  -4.827   1.383  0.00  0.00    +0.164 C 
ATOM     20  N   UNL     1       1.268  -5.452   1.979  0.00  0.00    -0.327 N 
ATOM     21  H   UNL     1       1.331  -5.602   2.935  0.00  0.00    +0.147 HD
ENDBRANCH   5  19
ENDBRANCH   1   8
BRANCH   2  22
ATOM     22  C   UNL     1      -5.702  -9.922   3.282  0.00  0.00    +0.166 C 
BRANCH  22  23
ATOM     23  N   UNL     1      -5.401 -10.969   4.262  0.00  0.00    -0.270 N 
ATOM     24  C   UNL     1      -6.055 -12.147   4.212  0.00  0.00    +0.401 C 
ATOM     25  O   UNL     1      -6.894 -12.340   3.354  0.00  0.00    -0.226 OA
ATOM     26  H   UNL     1      -4.731 -10.815   4.946  0.00  0.00    +0.153 HD
BRANCH  24  27
ATOM     27  O   UNL     1      -5.778 -13.109   5.112  0.00  0.00    -0.450 OA
BRANCH  27  28
ATOM     28  C   UNL     1      -6.509 -14.332   5.000  0.00  0.00    +0.236 C 
BRANCH  28  29
ATOM     29  C   UNL     1      -6.061 -15.296   6.100  0.00  0.00    +0.021 C 
ATOM     30  C   UNL     1      -6.440 -14.722   7.467  0.00  0.00    +0.010 C 
ATOM     31  C   UNL     1      -6.752 -16.648   5.906  0.00  0.00    +0.010 C 
ENDBRANCH  28  29
ENDBRANCH  27  28
ENDBRANCH  24  27
ENDBRANCH  22  23
BRANCH  22  32
ATOM     32  C   UNL     1      -6.906  -9.107   3.760  0.00  0.00    +0.065 C 
BRANCH  32  33
ATOM     33  C   UNL     1      -8.128  -9.988   3.791  0.00  0.00    -0.039 C 
ATOM     34  C   UNL     1      -8.622 -10.657   4.858  0.00  0.00    -0.001 A 
ATOM     35  C   UNL     1      -8.184 -10.762   6.255  0.00  0.00    +0.010 A 
ATOM     36  C   UNL     1      -8.899 -11.527   7.111  0.00  0.00    +0.001 A 
ATOM     37  C   UNL     1     -10.045 -12.221   6.698  0.00  0.00    +0.002 A 
ATOM     38  C   UNL     1     -10.509 -12.173   5.431  0.00  0.00    +0.026 A 
ATOM     39  C   UNL     1      -9.835 -11.399   4.447  0.00  0.00    +0.043 A 
ATOM     40  N   UNL     1     -10.082 -11.196   3.176  0.00  0.00    -0.380 N 
ATOM     41  C   UNL     1      -9.056 -10.297   2.637  0.00  0.00    +0.144 C 
ATOM     42  H   UNL     1     -10.823 -11.574   2.676  0.00  0.00    +0.160 HD
ENDBRANCH  32  33
ENDBRANCH  22  32
ENDBRANCH   2  22
TORSDOF 9
