REMARK  Name = ZINC19646973
REMARK  16 active torsions:
REMARK  status: ('A' for Active; 'I' for Inactive)
REMARK    1  A    between atoms: C_1  and  C_2
REMARK    2  A    between atoms: C_2  and  C_3
REMARK    3  A    between atoms: C_3  and  C_4
REMARK    4  A    between atoms: C_4  and  C_5
REMARK    5  A    between atoms: C_5  and  N_6
REMARK    6  A    between atoms: N_6  and  C_7
REMARK    7  A    between atoms: N_6  and  C_12
REMARK    8  A    between atoms: C_7  and  C_8
REMARK    9  A    between atoms: C_8  and  C_9
REMARK   10  A    between atoms: C_9  and  C_10
REMARK   11  A    between atoms: C_10  and  C_11
REMARK   12  A    between atoms: C_12  and  C_13
REMARK   13  A    between atoms: C_13  and  C_15
REMARK   14  A    between atoms: C_13  and  N_16
REMARK   15  A    between atoms: C_17  and  C_19
REMARK   16  A    between atoms: N_22  and  C_24
REMARK                            x       y       z     vdW  Elec       q    Type
REMARK                         _______ _______ _______ _____ _____    ______ ____
ROOT
ATOM      1  C   UNL     1      -2.110  -4.565   0.686  0.00  0.00    -0.057 C 
ENDROOT
BRANCH   1   2
ATOM      2  N   UNL     1      -1.373  -4.459   1.953  0.00  0.00    +0.381 N 
ATOM      3  H   UNL     1      -2.010  -3.923   2.671  0.00  0.00    -0.082 HD
BRANCH   2   4
ATOM      4  C   UNL     1      -1.087  -5.789   2.508  0.00  0.00    -0.079 C 
BRANCH   4   5
ATOM      5  C   UNL     1      -0.693  -5.653   3.980  0.00  0.00    -0.019 C 
BRANCH   5   6
ATOM      6  C   UNL     1      -0.394  -7.037   4.558  0.00  0.00    -0.002 C 
BRANCH   6   8
ATOM      7  C   UNL     1       0.300  -8.286   6.609  0.00  0.00    +0.004 C 
ATOM      8  C   UNL     1       0.001  -6.901   6.030  0.00  0.00    -0.003 C 
ENDBRANCH   6   8
ENDBRANCH   5   6
ENDBRANCH   4   5
ENDBRANCH   2   4
BRANCH   2   9
ATOM      9  C   UNL     1      -0.137  -3.684   1.780  0.00  0.00    -0.079 C 
BRANCH   9  10
ATOM     10  C   UNL     1       0.703  -4.307   0.663  0.00  0.00    -0.019 C 
BRANCH  10  11
ATOM     11  C   UNL     1       2.042  -3.573   0.562  0.00  0.00    -0.002 C 
BRANCH  11  12
ATOM     12  C   UNL     1       2.882  -4.196  -0.555  0.00  0.00    -0.003 C 
ATOM     13  C   UNL     1       4.221  -3.462  -0.655  0.00  0.00    +0.004 C 
ENDBRANCH  11  12
ENDBRANCH  10  11
ENDBRANCH   9  10
ENDBRANCH   2   9
ENDBRANCH   1   2
BRANCH   1  14
ATOM     14  C   UNL     1      -2.789  -3.229   0.379  0.00  0.00    +0.054 C 
ATOM     15  C   UNL     1      -3.597  -3.354  -0.914  0.00  0.00    +0.026 C 
BRANCH  14  16
ATOM     16  N   UNL     1      -1.770  -2.189   0.219  0.00  0.00    -0.309 N 
ATOM     17  C   UNL     1      -2.021  -0.930   0.632  0.00  0.00    +0.265 C 
ATOM     18  O   UNL     1      -3.093  -0.659   1.137  0.00  0.00    -0.268 OA
ATOM     19  H   UNL     1      -0.800  -2.434  -0.238  0.00  0.00    +0.149 HD
BRANCH  17  20
ATOM     20  C   UNL     1      -0.994   0.118   0.471  0.00  0.00    +0.160 A 
ATOM     21  C   UNL     1      -1.110   1.476   0.854  0.00  0.00    +0.063 A 
ATOM     22  C   UNL     1       0.069   2.050   0.512  0.00  0.00    +0.123 A 
ATOM     23  N   UNL     1       0.837   1.086  -0.040  0.00  0.00    -0.273 N 
ATOM     24  N   UNL     1       0.204  -0.032  -0.057  0.00  0.00    -0.166 NA
ATOM     25  C   UNL     1       2.197   1.287  -0.547  0.00  0.00    +0.172 C 
ATOM     26  I   UNL     1      -2.760   2.405   1.750  0.00  0.00    -0.040 I 
ENDBRANCH  17  20
ENDBRANCH  14  16
ENDBRANCH   1  14
TORSDOF 12
