REMARK  Name = ZINC14671951
REMARK  5 active torsions:
REMARK  status: ('A' for Active; 'I' for Inactive)
REMARK    1  A    between atoms: C_7  and  C_11
REMARK    2  A    between atoms: C_11  and  C_12
REMARK    3  A    between atoms: C_12  and  N_13
REMARK    4  A    between atoms: N_13  and  C_14
REMARK    5  A    between atoms: N_19  and  C_22
REMARK                            x       y       z     vdW  Elec       q    Type
REMARK                         _______ _______ _______ _____ _____    ______ ____
ROOT
ATOM      1  N   UNL     1      -0.650  -4.458  -1.701  0.00  0.00    +0.387 N 
ATOM      2  H   UNL     1      -0.044  -5.140  -1.270  0.00  0.00    -0.085 HD
ATOM      3  H   UNL     1      -1.419  -4.253  -1.082  0.00  0.00    -0.085 HD
ENDROOT
BRANCH   1   4
ATOM      4  C   UNL     1      -1.168  -4.994  -2.966  0.00  0.00    +0.026 C 
ATOM      5  C   UNL     1      -2.029  -6.248  -2.712  0.00  0.00    +0.090 C 
ATOM      6  C   UNL     1      -1.294  -7.339  -3.459  0.00  0.00    +0.225 C 
ATOM      7  O   UNL     1      -1.637  -8.501  -3.522  0.00  0.00    -0.275 OA
ATOM      8  N   UNL     1      -0.207  -6.819  -4.042  0.00  0.00    -0.212 N 
ATOM      9  C   UNL     1      -0.037  -5.504  -3.832  0.00  0.00    +0.213 C 
ATOM     10  O   UNL     1       0.874  -4.833  -4.264  0.00  0.00    -0.277 OA
BRANCH   8  11
ATOM     11  C   UNL     1       0.683  -7.585  -4.809  0.00  0.00    +0.045 A 
ATOM     12  C   UNL     1       0.273  -8.115  -6.026  0.00  0.00    +0.025 A 
ATOM     13  C   UNL     1       1.150  -8.868  -6.781  0.00  0.00    +0.023 A 
ATOM     14  C   UNL     1       2.437  -9.096  -6.327  0.00  0.00    +0.059 A 
ATOM     15  C   UNL     1       2.849  -8.569  -5.114  0.00  0.00    +0.061 A 
ATOM     16  C   UNL     1       1.976  -7.809  -4.357  0.00  0.00    +0.045 A 
ATOM     17 CL   UNL     1       4.464  -8.856  -4.547  0.00  0.00    -0.082 Cl
ATOM     18 CL   UNL     1       3.537 -10.043  -7.278  0.00  0.00    -0.082 Cl
ENDBRANCH   8  11
ENDBRANCH   1   4
BRANCH   1  19
ATOM     19  C   UNL     1       0.108  -3.227  -1.964  0.00  0.00    -0.077 C 
BRANCH  19  20
ATOM     20  C   UNL     1       0.649  -2.669  -0.646  0.00  0.00    +0.018 C 
BRANCH  20  27
ATOM     21  C   UNL     1      -0.597   1.825  -1.124  0.00  0.00    +0.001 A 
ATOM     22  C   UNL     1       0.483   2.662  -1.370  0.00  0.00    +0.002 A 
ATOM     23  C   UNL     1       1.761   2.155  -1.453  0.00  0.00    +0.026 A 
ATOM     24  C   UNL     1       1.974   0.790  -1.288  0.00  0.00    +0.047 A 
ATOM     25  C   UNL     1       0.877  -0.054  -1.039  0.00  0.00    +0.003 A 
ATOM     26  C   UNL     1      -0.410   0.481  -0.959  0.00  0.00    +0.010 A 
ATOM     27  C   UNL     1       1.426  -1.407  -0.916  0.00  0.00    -0.024 A 
ATOM     28  C   UNL     1       2.754  -1.308  -1.090  0.00  0.00    +0.087 A 
ATOM     29  N   UNL     1       3.100  -0.004  -1.313  0.00  0.00    -0.360 N 
ATOM     30  H   UNL     1       4.003   0.315  -1.466  0.00  0.00    +0.165 HD
ENDBRANCH  20  27
ENDBRANCH  19  20
ENDBRANCH   1  19
TORSDOF 5
