REMARK  Name = ZINC63122541
REMARK  10 active torsions:
REMARK  status: ('A' for Active; 'I' for Inactive)
REMARK    1  A    between atoms: C_2  and  C_3
REMARK    2  A    between atoms: C_3  and  N_4
REMARK    3  A    between atoms: C_8  and  C_10
REMARK    4  A    between atoms: C_10  and  O_11
REMARK    5  A    between atoms: O_11  and  C_12
REMARK    6  A    between atoms: C_12  and  C_14
REMARK    7  A    between atoms: C_14  and  C_16
REMARK    8  A    between atoms: C_14  and  N_26
REMARK    9  A    between atoms: C_16  and  C_17
REMARK   10  A    between atoms: C_27  and  C_29
REMARK                            x       y       z     vdW  Elec       q    Type
REMARK                         _______ _______ _______ _____ _____    ______ ____
ROOT
ATOM      1  C   UNL     1       6.389  -7.415   4.686  0.00  0.00    +0.186 C 
ENDROOT
BRANCH   1   2
ATOM      2  N   UNL     1       6.587  -7.951   6.034  0.00  0.00    -0.298 N 
ATOM      3  C   UNL     1       5.681  -8.797   6.563  0.00  0.00    +0.251 C 
ATOM      4  O   UNL     1       4.698  -9.115   5.920  0.00  0.00    -0.270 OA
ATOM      5  H   UNL     1       7.371  -7.698   6.547  0.00  0.00    +0.150 HD
BRANCH   3   6
ATOM      6  C   UNL     1       5.879  -9.333   7.913  0.00  0.00    +0.074 A 
ATOM      7  C   UNL     1       5.080 -10.210   8.631  0.00  0.00    +0.021 A 
ATOM      8  C   UNL     1       5.531 -10.535   9.888  0.00  0.00    +0.008 A 
ATOM      9  C   UNL     1       6.692  -9.995  10.332  0.00  0.00    +0.046 A 
ATOM     10  S   UNL     1       7.214  -9.035   9.056  0.00  0.00    -0.092 S 
ENDBRANCH   3   6
ENDBRANCH   1   2
BRANCH   1  11
ATOM     11  C   UNL     1       5.097  -6.641   4.637  0.00  0.00    +0.328 C 
ATOM     12  O   UNL     1       4.247  -6.831   5.475  0.00  0.00    -0.249 OA
BRANCH  11  13
ATOM     13  O   UNL     1       4.891  -5.739   3.664  0.00  0.00    -0.454 OA
BRANCH  13  14
ATOM     14  C   UNL     1       3.644  -5.042   3.680  0.00  0.00    +0.328 C 
BRANCH  14  19
ATOM     15  N   UNL     1       1.367  -1.676   1.111  0.00  0.00    -0.296 N 
ATOM     16  C   UNL     1       2.457  -2.447   1.299  0.00  0.00    +0.306 C 
ATOM     17  O   UNL     1       3.397  -2.366   0.533  0.00  0.00    -0.252 OA
ATOM     18  N   UNL     1       2.503  -3.308   2.335  0.00  0.00    -0.237 N 
ATOM     19  C   UNL     1       3.592  -4.079   2.522  0.00  0.00    +0.258 C 
ATOM     20  O   UNL     1       4.531  -3.998   1.758  0.00  0.00    -0.272 OA
ATOM     21  H   UNL     1       0.617  -1.740   1.722  0.00  0.00    +0.151 HD
ATOM     22  H   UNL     1       1.752  -3.372   2.945  0.00  0.00    +0.159 HD
BRANCH  15  23
ATOM     23  C   UNL     1       1.317  -0.740  -0.015  0.00  0.00    +0.132 C 
BRANCH  23  25
ATOM     24  C   UNL     1      -0.016   1.306   0.009  0.00  0.00    +0.005 C 
ATOM     25  C   UNL     1       0.002  -0.004   0.002  0.00  0.00    -0.016 C 
ENDBRANCH  23  25
ENDBRANCH  15  23
ENDBRANCH  14  19
ENDBRANCH  13  14
ENDBRANCH  11  13
ENDBRANCH   1  11
BRANCH   1  26
ATOM     26  C   UNL     1       6.330  -8.569   3.682  0.00  0.00    +0.067 C 
BRANCH  26  27
ATOM     27  C   UNL     1       7.664  -9.268   3.641  0.00  0.00    -0.039 C 
ATOM     28  C   UNL     1       8.025 -10.373   4.333  0.00  0.00    -0.001 A 
ATOM     29  C   UNL     1       7.311 -11.221   5.295  0.00  0.00    +0.010 A 
ATOM     30  C   UNL     1       7.950 -12.283   5.834  0.00  0.00    +0.001 A 
ATOM     31  C   UNL     1       9.275 -12.594   5.499  0.00  0.00    +0.002 A 
ATOM     32  C   UNL     1       9.997 -11.862   4.624  0.00  0.00    +0.026 A 
ATOM     33  C   UNL     1       9.423 -10.722   3.995  0.00  0.00    +0.043 A 
ATOM     34  N   UNL     1       9.908  -9.867   3.128  0.00  0.00    -0.380 N 
ATOM     35  C   UNL     1       8.869  -8.880   2.813  0.00  0.00    +0.144 C 
ATOM     36  H   UNL     1      10.803  -9.885   2.755  0.00  0.00    +0.160 HD
ENDBRANCH  26  27
ENDBRANCH   1  26
TORSDOF 10
