REMARK  Name = ZINC08644742
REMARK  5 active torsions:
REMARK  status: ('A' for Active; 'I' for Inactive)
REMARK    1  A    between atoms: C_1  and  C_2
REMARK    2  A    between atoms: C_2  and  C_19
REMARK    3  A    between atoms: N_5  and  C_9
REMARK    4  A    between atoms: C_9  and  C_10
REMARK    5  A    between atoms: N_15  and  C_16
REMARK                            x       y       z     vdW  Elec       q    Type
REMARK                         _______ _______ _______ _____ _____    ______ ____
ROOT
ATOM      1  C   UNL     1       9.966  -1.449  -1.649  0.00  0.00    +0.047 C 
ATOM      2  C   UNL     1       9.724  -0.653  -2.933  0.00  0.00    +0.136 C 
ATOM      3  C   UNL     1       8.239  -0.520  -3.207  0.00  0.00    +0.251 C 
ATOM      4  O   UNL     1       7.449  -1.418  -3.407  0.00  0.00    -0.272 OA
ATOM      5  N   UNL     1       7.981   0.802  -3.182  0.00  0.00    -0.215 N 
ATOM      6  C   UNL     1       9.085   1.516  -2.939  0.00  0.00    +0.310 C 
ATOM      7  O   UNL     1       9.104   2.730  -2.873  0.00  0.00    -0.252 OA
ATOM      8  N   UNL     1      10.172   0.741  -2.771  0.00  0.00    -0.281 N 
ATOM      9  H   UNL     1      11.075   1.042  -2.584  0.00  0.00    +0.152 HD
ENDROOT
BRANCH   2  10
ATOM     10  C   UNL     1      10.422  -1.305  -4.099  0.00  0.00    -0.008 A 
ATOM     11  C   UNL     1      11.367  -0.621  -4.801  0.00  0.00    +0.007 A 
ATOM     12  C   UNL     1      12.023  -1.208  -5.881  0.00  0.00    +0.001 A 
ATOM     13  C   UNL     1      11.738  -2.482  -6.266  0.00  0.00    +0.008 A 
ATOM     14  C   UNL     1      10.768  -3.219  -5.566  0.00  0.00    -0.018 A 
ATOM     15  C   UNL     1      10.105  -2.624  -4.464  0.00  0.00    -0.012 A 
ATOM     16  C   UNL     1       9.131  -3.360  -3.767  0.00  0.00    +0.009 A 
ATOM     17  C   UNL     1       8.846  -4.634  -4.152  0.00  0.00    +0.001 A 
ATOM     18  C   UNL     1       9.502  -5.221  -5.233  0.00  0.00    +0.001 A 
ATOM     19  C   UNL     1      10.447  -4.537  -5.934  0.00  0.00    +0.008 A 
ENDBRANCH   2  10
BRANCH   5  20
ATOM     20  C   UNL     1       6.655   1.385  -3.402  0.00  0.00    +0.214 C 
BRANCH  20  21
ATOM     21  C   UNL     1       5.936   1.508  -2.083  0.00  0.00    +0.238 C 
ATOM     22  O   UNL     1       6.477   1.144  -1.061  0.00  0.00    -0.274 OA
ATOM     23  N   UNL     1       4.691   2.022  -2.040  0.00  0.00    -0.239 N 
ATOM     24  C   UNL     1       4.048   2.132  -0.860  0.00  0.00    +0.306 C 
ATOM     25  O   UNL     1       4.590   1.767   0.164  0.00  0.00    -0.252 OA
ATOM     26  N   UNL     1       2.803   2.646  -0.817  0.00  0.00    -0.296 N 
ATOM     27  H   UNL     1       4.258   2.314  -2.857  0.00  0.00    +0.159 HD
ATOM     28  H   UNL     1       2.369   2.938  -1.635  0.00  0.00    +0.151 HD
BRANCH  26  29
ATOM     29  C   UNL     1       2.104   2.765   0.465  0.00  0.00    +0.075 C 
ATOM     30  C   UNL     1       1.013   3.832   0.578  0.00  0.00    +0.024 C 
ATOM     31  C   UNL     1       0.631   2.352   0.508  0.00  0.00    +0.024 C 
ENDBRANCH  26  29
ENDBRANCH  20  21
ENDBRANCH   5  20
TORSDOF 4
