REMARK  Name = ZINC16488871
REMARK  6 active torsions:
REMARK  status: ('A' for Active; 'I' for Inactive)
REMARK    1  A    between atoms: C_4  and  N_7
REMARK    2  A    between atoms: C_12  and  C_20
REMARK    3  A    between atoms: C_14  and  C_18
REMARK    4  A    between atoms: C_15  and  N_17
REMARK    5  A    between atoms: C_23  and  O_26
REMARK    6  A    between atoms: C_27  and  C_29
REMARK                            x       y       z     vdW  Elec       q    Type
REMARK                         _______ _______ _______ _____ _____    ______ ____
ROOT
ATOM      1  N   UNL     1      -0.130  -0.288   0.631  0.00  0.00    -0.185 N 
ATOM      2  C   UNL     1      -1.252  -1.013  -0.042  0.00  0.00    +0.294 C 
ATOM      3  C   UNL     1      -0.428  -1.984  -0.903  0.00  0.00    +0.118 C 
ATOM      4  C   UNL     1      -1.147  -3.247  -1.276  0.00  0.00    +0.079 C 
ATOM      5  C   UNL     1      -2.045  -3.742  -0.180  0.00  0.00    +0.094 C 
ATOM      6  C   UNL     1      -2.392  -2.944   0.852  0.00  0.00    +0.194 C 
ATOM      7  O   UNL     1      -1.932  -1.690   1.016  0.00  0.00    -0.455 OA
ATOM      8  C   UNL     1       0.840  -2.166  -0.121  0.00  0.00    +0.148 C 
ATOM      9  N   UNL     1       0.930  -1.202   0.716  0.00  0.00    -0.176 NA
ENDROOT
BRANCH   1  13
ATOM     10  C   UNL     1      -0.144   3.656   1.964  0.00  0.00    +0.000 A 
ATOM     11  C   UNL     1       0.986   2.876   2.129  0.00  0.00    +0.002 A 
ATOM     12  C   UNL     1       0.994   1.568   1.688  0.00  0.00    +0.025 A 
ATOM     13  C   UNL     1      -0.135   1.035   1.078  0.00  0.00    +0.055 A 
ATOM     14  C   UNL     1      -1.267   1.823   0.910  0.00  0.00    +0.025 A 
ATOM     15  C   UNL     1      -1.270   3.129   1.358  0.00  0.00    +0.002 A 
ENDBRANCH   1  13
BRANCH   4  16
ATOM     16  C   UNL     1      -0.129  -4.312  -1.592  0.00  0.00    -0.038 A 
ATOM     17  C   UNL     1       0.624  -4.226  -2.748  0.00  0.00    +0.008 A 
ATOM     18  C   UNL     1       1.562  -5.199  -3.037  0.00  0.00    +0.045 A 
ATOM     19  C   UNL     1       1.739  -6.269  -2.171  0.00  0.00    +0.117 A 
ATOM     20  C   UNL     1       0.978  -6.356  -1.015  0.00  0.00    +0.045 A 
ATOM     21  C   UNL     1       0.045  -5.378  -0.728  0.00  0.00    +0.008 A 
BRANCH  19  22
ATOM     22  O   UNL     1       2.658  -7.229  -2.456  0.00  0.00    -0.507 OA
ATOM     23  H   UNL     1       2.308  -7.965  -2.977  0.00  0.00    +0.292 HD
ENDBRANCH  19  22
ENDBRANCH   4  16
BRANCH   8  24
ATOM     24  C   UNL     1       1.836  -3.283  -0.297  0.00  0.00    +0.432 C 
ATOM     25  F   UNL     1       3.047  -2.927   0.305  0.00  0.00    -0.165 F 
ATOM     26  F   UNL     1       1.341  -4.447   0.303  0.00  0.00    -0.165 F 
ATOM     27  F   UNL     1       2.042  -3.514  -1.661  0.00  0.00    -0.165 F 
ENDBRANCH   8  24
BRANCH   6  28
ATOM     28  N   UNL     1      -3.277  -3.430   1.783  0.00  0.00    -0.329 N 
ATOM     29  H   UNL     1      -3.635  -4.326   1.689  0.00  0.00    +0.145 HD
ATOM     30  H   UNL     1      -3.543  -2.877   2.534  0.00  0.00    +0.145 HD
ENDBRANCH   6  28
BRANCH   5  31
ATOM     31  C   UNL     1      -2.541  -5.085  -0.229  0.00  0.00    +0.100 C 
ATOM     32  N   UNL     1      -2.934  -6.150  -0.268  0.00  0.00    -0.191 NA
ENDBRANCH   5  31
TORSDOF 6
