REMARK  Name = ZINC17090757
REMARK  5 active torsions:
REMARK  status: ('A' for Active; 'I' for Inactive)
REMARK    1  A    between atoms: C_6  and  C_25
REMARK    2  A    between atoms: C_7  and  N_9
REMARK    3  A    between atoms: C_10  and  C_12
REMARK    4  A    between atoms: C_14  and  C_22
REMARK    5  A    between atoms: N_27  and  C_28
REMARK                            x       y       z     vdW  Elec       q    Type
REMARK                         _______ _______ _______ _____ _____    ______ ____
ROOT
ATOM      1  C   UNL     1      -0.461   1.302  -0.033  0.00  0.00    +0.005 C 
ATOM      2  C   UNL     1       0.944   1.911  -0.062  0.00  0.00    +0.005 C 
ATOM      3  C   UNL     1       1.623   1.661   1.292  0.00  0.00    +0.043 C 
ATOM      4  C   UNL     1       1.439   0.218   1.651  0.00  0.00    -0.004 A 
ATOM      5  C   UNL     1       0.571  -0.652   1.092  0.00  0.00    -0.023 A 
ATOM      6  C   UNL     1       0.626  -1.990   1.655  0.00  0.00    +0.069 A 
ATOM      7  C   UNL     1       1.538  -2.212   2.674  0.00  0.00    +0.084 A 
ATOM      8  S   UNL     1       2.290  -0.724   2.882  0.00  0.00    -0.077 S 
ATOM      9  C   UNL     1      -0.367  -0.225  -0.028  0.00  0.00    +0.037 C 
ENDROOT
BRANCH   7  10
ATOM     10  N   UNL     1       1.776  -3.391   3.364  0.00  0.00    -0.279 N 
ATOM     11  C   UNL     1       2.710  -3.427   4.335  0.00  0.00    +0.222 C 
ATOM     12  O   UNL     1       3.406  -2.456   4.543  0.00  0.00    -0.275 OA
ATOM     13  H   UNL     1       1.270  -4.190   3.148  0.00  0.00    +0.155 HD
BRANCH  11  14
ATOM     14  C   UNL     1       2.889  -4.673   5.163  0.00  0.00    +0.092 C 
ATOM     15  C   UNL     1       2.619  -4.353   6.634  0.00  0.00    +0.117 C 
ATOM     16  C   UNL     1       3.872  -4.652   7.460  0.00  0.00    +0.004 C 
ATOM     17  C   UNL     1       4.233  -6.132   7.319  0.00  0.00    +0.004 C 
ATOM     18  C   UNL     1       4.503  -6.453   5.847  0.00  0.00    +0.004 C 
ATOM     19  C   UNL     1       4.322  -5.187   5.007  0.00  0.00    +0.002 C 
ATOM     20  C   UNL     1       5.303  -4.114   5.483  0.00  0.00    +0.004 C 
ATOM     21  C   UNL     1       5.032  -3.793   6.955  0.00  0.00    +0.004 C 
BRANCH  15  22
ATOM     22  C   UNL     1       2.262  -2.895   6.773  0.00  0.00    +0.360 C 
ATOM     23  O   UNL     1       1.281  -2.450   6.202  0.00  0.00    -0.246 OA
ATOM     24  O   UNL     1       2.955  -2.160   7.456  0.00  0.00    -0.246 OA
ENDBRANCH  15  22
ENDBRANCH  11  14
ENDBRANCH   7  10
BRANCH   6  25
ATOM     25  C   UNL     1      -0.248  -3.061   1.165  0.00  0.00    +0.247 C 
ATOM     26  O   UNL     1       0.119  -3.775   0.250  0.00  0.00    -0.270 OA
ATOM     27  N   UNL     1      -1.457  -3.255   1.728  0.00  0.00    -0.308 N 
ATOM     28  H   UNL     1      -1.749  -2.686   2.458  0.00  0.00    +0.149 HD
BRANCH  27  29
ATOM     29  C   UNL     1      -2.329  -4.325   1.239  0.00  0.00    +0.073 C 
ATOM     30  C   UNL     1      -3.812  -3.997   1.051  0.00  0.00    +0.024 C 
ATOM     31  C   UNL     1      -3.367  -4.890   2.211  0.00  0.00    +0.024 C 
ENDBRANCH  27  29
ENDBRANCH   6  25
TORSDOF 5
