REMARK  Name = ZINC39675233
REMARK  11 active torsions:
REMARK  status: ('A' for Active; 'I' for Inactive)
REMARK    1  A    between atoms: C_1  and  C_2
REMARK    2  A    between atoms: C_2  and  C_4
REMARK    3  A    between atoms: C_2  and  N_14
REMARK    4  A    between atoms: C_4  and  C_5
REMARK    5  A    between atoms: C_5  and  C_6
REMARK    6  A    between atoms: C_9  and  O_12
REMARK    7  A    between atoms: O_12  and  C_13
REMARK    8  A    between atoms: C_15  and  C_17
REMARK    9  A    between atoms: C_28  and  C_30
REMARK   10  A    between atoms: C_30  and  C_31
REMARK   11  A    between atoms: C_31  and  C_32
REMARK                            x       y       z     vdW  Elec       q    Type
REMARK                         _______ _______ _______ _____ _____    ______ ____
ROOT
ATOM      1  C   UNL     1       2.783  -1.099   2.395  0.00  0.00    +0.100 C 
ATOM      2  C   UNL     1       2.274  -2.504   2.788  0.00  0.00    +0.121 C 
ATOM      3  N   UNL     1       3.225  -3.441   2.144  0.00  0.00    -0.300 N 
ATOM      4  C   UNL     1       4.548  -2.793   2.309  0.00  0.00    +0.115 C 
ATOM      5  C   UNL     1       4.277  -1.293   2.085  0.00  0.00    -0.004 C 
ATOM      6  C   UNL     1       4.569  -0.916   0.635  0.00  0.00    -0.010 C 
ATOM      7  C   UNL     1       6.069  -1.062   0.367  0.00  0.00    -0.082 C 
ATOM      8  N   UNL     1       6.818  -0.191   1.281  0.00  0.00    +0.379 N 
ATOM      9  C   UNL     1       6.605  -0.619   2.669  0.00  0.00    -0.082 C 
ATOM     10  C   UNL     1       5.127  -0.454   3.034  0.00  0.00    -0.010 C 
ATOM     11  C   UNL     1       2.949  -4.615   1.544  0.00  0.00    +0.216 C 
ATOM     12  O   UNL     1       3.845  -5.274   1.060  0.00  0.00    -0.276 OA
ATOM     13  H   UNL     1       7.802  -0.243   1.062  0.00  0.00    -0.086 HD
ATOM     14  H   UNL     1       6.502   0.760   1.171  0.00  0.00    -0.086 HD
ENDROOT
BRANCH   1  16
ATOM     15  N   UNL     1       1.886   0.724   0.983  0.00  0.00    -0.312 N 
ATOM     16  C   UNL     1       2.054  -0.600   1.174  0.00  0.00    +0.218 C 
ATOM     17  O   UNL     1       1.618  -1.389   0.362  0.00  0.00    -0.275 OA
ATOM     18  H   UNL     1       2.234   1.355   1.632  0.00  0.00    +0.149 HD
BRANCH  15  20
ATOM     19  C   UNL     1       2.156   1.313  -1.375  0.00  0.00    +0.028 C 
ATOM     20  C   UNL     1       1.177   1.209  -0.204  0.00  0.00    +0.070 C 
BRANCH  20  21
ATOM     21  C   UNL     1       0.581   2.588   0.087  0.00  0.00    +0.026 C 
BRANCH  21  22
ATOM     22  C   UNL     1      -0.489   2.462   1.173  0.00  0.00    +0.037 C 
BRANCH  22  23
ATOM     23  C   UNL     1      -1.077   3.820   1.460  0.00  0.00    -0.047 A 
ATOM     24  C   UNL     1      -0.509   4.627   2.428  0.00  0.00    +0.007 A 
ATOM     25  C   UNL     1      -1.046   5.872   2.692  0.00  0.00    +0.046 A 
ATOM     26  C   UNL     1      -2.156   6.312   1.985  0.00  0.00    +0.120 A 
ATOM     27  C   UNL     1      -2.723   5.500   1.014  0.00  0.00    +0.046 A 
ATOM     28  C   UNL     1      -2.179   4.258   0.749  0.00  0.00    +0.007 A 
BRANCH  26  29
ATOM     29  O   UNL     1      -2.686   7.537   2.244  0.00  0.00    -0.495 OA
ATOM     30  C   UNL     1      -3.828   7.924   1.477  0.00  0.00    +0.277 C 
ENDBRANCH  26  29
ENDBRANCH  22  23
ENDBRANCH  21  22
ENDBRANCH  20  21
ENDBRANCH  15  20
ENDBRANCH   1  16
BRANCH  11  31
ATOM     31  C   UNL     1       1.527  -5.111   1.475  0.00  0.00    +0.096 C 
BRANCH  31  32
ATOM     32  C   UNL     1       1.491  -6.456   0.748  0.00  0.00    +0.013 C 
BRANCH  32  33
ATOM     33  C   UNL     1       0.047  -6.959   0.678  0.00  0.00    -0.011 C 
ATOM     34  C   UNL     1      -0.455  -7.322   2.090  0.00  0.00    +0.003 C 
ATOM     35  C   UNL     1      -1.339  -8.575   1.869  0.00  0.00    +0.000 C 
ATOM     36  C   UNL     1      -0.563  -9.351   0.775  0.00  0.00    +0.000 C 
ATOM     37  C   UNL     1      -0.021  -8.249  -0.158  0.00  0.00    +0.003 C 
ENDBRANCH  32  33
ENDBRANCH  31  32
ENDBRANCH  11  31
TORSDOF 9
