REMARK  Name = ZINC45314461
REMARK  5 active torsions:
REMARK  status: ('A' for Active; 'I' for Inactive)
REMARK    1  A    between atoms: C_3  and  S_23
REMARK    2  A    between atoms: C_6  and  N_7
REMARK    3  A    between atoms: C_8  and  C_10
REMARK    4  A    between atoms: C_10  and  N_11
REMARK    5  A    between atoms: S_23  and  N_26
REMARK                            x       y       z     vdW  Elec       q    Type
REMARK                         _______ _______ _______ _____ _____    ______ ____
ROOT
ATOM      1  N   UNL     1      -1.199  -0.722   0.010  0.00  0.00    -0.287 N 
ATOM      2  C   UNL     1      -1.183  -2.065  -0.099  0.00  0.00    +0.201 C 
ATOM      3  O   UNL     1      -0.125  -2.659  -0.113  0.00  0.00    -0.278 OA
ATOM      4  H   UNL     1      -2.044  -0.252   0.089  0.00  0.00    +0.155 HD
ENDROOT
BRANCH   1  10
ATOM      5  C   UNL     1       0.065   1.248  -0.586  0.00  0.00    +0.025 A 
ATOM      6  C   UNL     1       1.253   1.953  -0.584  0.00  0.00    +0.030 A 
ATOM      7  C   UNL     1       2.378   1.413   0.010  0.00  0.00    +0.105 A 
ATOM      8  C   UNL     1       2.319   0.166   0.604  0.00  0.00    +0.030 A 
ATOM      9  C   UNL     1       1.135  -0.544   0.606  0.00  0.00    +0.025 A 
ATOM     10  C   UNL     1       0.003  -0.005   0.010  0.00  0.00    +0.033 A 
BRANCH   7  11
ATOM     11  S   UNL     1       3.892   2.316   0.009  0.00  0.00    +0.056 S 
ATOM     12  O   UNL     1       4.934   1.360   0.148  0.00  0.00    -0.153 OA
ATOM     13  O   UNL     1       3.826   3.217  -1.087  0.00  0.00    -0.153 OA
BRANCH  11  14
ATOM     14  N   UNL     1       3.911   3.240   1.383  0.00  0.00    -0.204 NA
ATOM     15  H   UNL     1       4.755   3.462   1.806  0.00  0.00    +0.144 HD
ATOM     16  H   UNL     1       3.078   3.560   1.764  0.00  0.00    +0.144 HD
ENDBRANCH  11  14
ENDBRANCH   7  11
ENDBRANCH   1  10
BRANCH   2  17
ATOM     17  C   UNL     1      -2.478  -2.828  -0.204  0.00  0.00    +0.019 C 
BRANCH  17  18
ATOM     18  N   UNL     1      -2.191  -4.265  -0.312  0.00  0.00    +0.386 N 
ATOM     19  C   UNL     1      -1.469  -4.525  -1.562  0.00  0.00    -0.078 C 
ATOM     20  C   UNL     1      -1.103  -6.009  -1.653  0.00  0.00    -0.015 C 
ATOM     21  C   UNL     1      -2.386  -6.842  -1.614  0.00  0.00    -0.011 C 
ATOM     22  C   UNL     1      -2.046  -8.332  -1.632  0.00  0.00    +0.004 C 
ATOM     23  C   UNL     1      -3.343  -9.145  -1.598  0.00  0.00    +0.000 C 
ATOM     24  C   UNL     1      -4.127  -8.811  -0.329  0.00  0.00    +0.000 C 
ATOM     25  C   UNL     1      -4.455  -7.316  -0.302  0.00  0.00    +0.002 C 
ATOM     26  C   UNL     1      -3.153  -6.514  -0.329  0.00  0.00    -0.025 C 
ATOM     27  C   UNL     1      -3.454  -5.016  -0.293  0.00  0.00    -0.074 C 
ATOM     28  H   UNL     1      -1.620  -4.552   0.469  0.00  0.00    -0.081 HD
ENDBRANCH  17  18
ENDBRANCH   2  17
TORSDOF 5
