REMARK  Name = ZINC09942141
REMARK  9 active torsions:
REMARK  status: ('A' for Active; 'I' for Inactive)
REMARK    1  A    between atoms: C_1  and  C_2
REMARK    2  A    between atoms: C_2  and  C_3
REMARK    3  A    between atoms: C_3  and  C_4
REMARK    4  A    between atoms: C_4  and  S_5
REMARK    5  A    between atoms: S_5  and  C_6
REMARK    6  A    between atoms: C_8  and  C_29
REMARK    7  A    between atoms: C_11  and  C_14
REMARK    8  A    between atoms: C_17  and  C_20
REMARK    9  A    between atoms: C_32  and  C_35
REMARK                            x       y       z     vdW  Elec       q    Type
REMARK                         _______ _______ _______ _____ _____    ______ ____
ROOT
ATOM      1  C   UNL     1       2.826   6.250  -0.636  0.00  0.00    +0.150 C 
ATOM      2  N   UNL     1       2.320   5.086  -0.888  0.00  0.00    -0.254 NA
ATOM      3  C   UNL     1       2.451   3.937  -0.001  0.00  0.00    +0.164 C 
ATOM      4  C   UNL     1       2.777   4.392   1.424  0.00  0.00    +0.172 C 
ATOM      5  C   UNL     1       3.951   5.381   1.358  0.00  0.00    +0.129 C 
ATOM      6  N   UNL     1       3.526   6.511   0.518  0.00  0.00    -0.316 N 
ATOM      7  C   UNL     1       3.174   3.205   2.254  0.00  0.00    +0.240 C 
ATOM      8  O   UNL     1       4.125   2.537   1.910  0.00  0.00    -0.274 OA
ATOM      9  N   UNL     1       2.506   2.863   3.365  0.00  0.00    -0.239 N 
ATOM     10  C   UNL     1       1.445   3.561   3.798  0.00  0.00    +0.312 C 
ATOM     11  O   UNL     1       0.876   3.206   4.812  0.00  0.00    -0.252 OA
ATOM     12  N   UNL     1       0.996   4.641   3.141  0.00  0.00    -0.239 N 
ATOM     13  C   UNL     1       1.581   5.081   2.018  0.00  0.00    +0.240 C 
ATOM     14  O   UNL     1       1.133   6.063   1.466  0.00  0.00    -0.274 OA
ATOM     15  H   UNL     1       3.735   7.423   0.774  0.00  0.00    +0.149 HD
ATOM     16  H   UNL     1       2.797   2.088   3.870  0.00  0.00    +0.159 HD
ATOM     17  H   UNL     1       0.226   5.117   3.488  0.00  0.00    +0.159 HD
ENDROOT
BRANCH   5  18
ATOM     18  C   UNL     1       4.289   5.870   2.743  0.00  0.00    -0.026 A 
ATOM     19  C   UNL     1       3.510   6.843   3.342  0.00  0.00    +0.006 A 
ATOM     20  C   UNL     1       3.817   7.288   4.614  0.00  0.00    +0.004 A 
ATOM     21  C   UNL     1       4.909   6.768   5.284  0.00  0.00    -0.050 A 
ATOM     22  C   UNL     1       5.691   5.799   4.683  0.00  0.00    +0.004 A 
ATOM     23  C   UNL     1       5.381   5.350   3.413  0.00  0.00    +0.006 A 
ATOM     24  C   UNL     1       5.247   7.257   6.668  0.00  0.00    +0.044 C 
ENDBRANCH   5  18
BRANCH   3  25
ATOM     25  C   UNL     1       1.156   3.165   0.008  0.00  0.00    -0.022 A 
ATOM     26  C   UNL     1       1.175   1.783   0.000  0.00  0.00    +0.006 A 
ATOM     27  C   UNL     1      -0.013   1.076   0.008  0.00  0.00    +0.004 A 
ATOM     28  C   UNL     1      -1.219   1.751   0.017  0.00  0.00    -0.050 A 
ATOM     29  C   UNL     1      -1.238   3.133   0.030  0.00  0.00    +0.004 A 
ATOM     30  C   UNL     1      -0.050   3.840   0.022  0.00  0.00    +0.006 A 
ATOM     31  C   UNL     1      -2.514   0.980   0.019  0.00  0.00    +0.044 C 
ENDBRANCH   3  25
BRANCH   1  32
ATOM     32  S   UNL     1       2.610   7.544  -1.812  0.00  0.00    -0.091 S 
BRANCH  32  33
ATOM     33  C   UNL     1       1.655   6.667  -3.075  0.00  0.00    +0.077 C 
BRANCH  33  34
ATOM     34  C   UNL     1       1.341   7.619  -4.230  0.00  0.00    +0.011 C 
BRANCH  34  36
ATOM     35  C   UNL     1       0.220   7.829  -6.453  0.00  0.00    +0.004 C 
ATOM     36  C   UNL     1       0.534   6.877  -5.297  0.00  0.00    -0.003 C 
ENDBRANCH  34  36
ENDBRANCH  33  34
ENDBRANCH  32  33
ENDBRANCH   1  32
TORSDOF 6
