REMARK  Name = ZINC39487618
REMARK  14 active torsions:
REMARK  status: ('A' for Active; 'I' for Inactive)
REMARK    1  A    between atoms: C_1  and  C_2
REMARK    2  A    between atoms: C_2  and  C_3
REMARK    3  A    between atoms: C_2  and  C_4
REMARK    4  A    between atoms: C_4  and  C_5
REMARK    5  A    between atoms: C_5  and  C_37
REMARK    6  A    between atoms: N_7  and  S_31
REMARK    7  A    between atoms: N_10  and  C_11
REMARK    8  A    between atoms: C_11  and  C_12
REMARK    9  A    between atoms: C_12  and  C_25
REMARK   10  A    between atoms: N_15  and  C_18
REMARK   11  A    between atoms: C_18  and  C_19
REMARK   12  A    between atoms: S_31  and  C_34
REMARK   13  A    between atoms: C_34  and  C_35
REMARK   14  A    between atoms: C_34  and  C_36
REMARK                            x       y       z     vdW  Elec       q    Type
REMARK                         _______ _______ _______ _____ _____    ______ ____
ROOT
ATOM      1  C   UNL     1      -4.491  -5.000  -1.510  0.00  0.00    -0.014 C 
ATOM      2  C   UNL     1      -3.137  -5.190  -2.199  0.00  0.00    -0.010 C 
ATOM      3  C   UNL     1      -2.089  -5.582  -1.155  0.00  0.00    -0.078 C 
ATOM      4  N   UNL     1      -2.488  -6.836  -0.505  0.00  0.00    +0.382 N 
ATOM      5  C   UNL     1      -3.750  -6.642   0.219  0.00  0.00    -0.078 C 
ATOM      6  C   UNL     1      -4.862  -6.290  -0.772  0.00  0.00    -0.010 C 
ATOM      7  H   UNL     1      -2.609  -7.553  -1.204  0.00  0.00    -0.081 HD
ENDROOT
BRANCH   1   8
ATOM      8  C   UNL     1      -5.561  -4.684  -2.557  0.00  0.00    -0.003 C 
ATOM      9  C   UNL     1      -6.937  -4.660  -1.889  0.00  0.00    +0.004 C 
ATOM     10  C   UNL     1      -8.007  -4.344  -2.936  0.00  0.00    +0.000 C 
ATOM     11  C   UNL     1      -7.987  -5.418  -4.025  0.00  0.00    +0.000 C 
ATOM     12  C   UNL     1      -6.611  -5.442  -4.693  0.00  0.00    +0.000 C 
ATOM     13  C   UNL     1      -5.541  -5.758  -3.646  0.00  0.00    +0.004 C 
ENDBRANCH   1   8
BRANCH   1  14
ATOM     14  C   UNL     1      -4.399  -3.847  -0.508  0.00  0.00    +0.117 C 
BRANCH  14  20
ATOM     15  C   UNL     1      -4.802  -1.473  -1.511  0.00  0.00    +0.054 C 
ATOM     16  C   UNL     1      -3.847  -0.501  -2.231  0.00  0.00    +0.161 C 
ATOM     17  N   UNL     1      -2.563  -1.219  -2.250  0.00  0.00    -0.158 N 
ATOM     18  C   UNL     1      -2.714  -2.407  -1.651  0.00  0.00    +0.324 C 
ATOM     19  O   UNL     1      -1.808  -3.208  -1.528  0.00  0.00    -0.251 OA
ATOM     20  N   UNL     1      -3.955  -2.634  -1.200  0.00  0.00    -0.277 N 
ATOM     21  C   UNL     1      -5.955  -1.879  -2.431  0.00  0.00    +0.033 C 
BRANCH  17  22
ATOM     22  S   UNL     1      -1.155  -0.648  -2.909  0.00  0.00    +0.051 S 
ATOM     23  O   UNL     1      -0.496  -1.803  -3.412  0.00  0.00    -0.155 OA
ATOM     24  O   UNL     1      -1.560   0.394  -3.785  0.00  0.00    -0.155 OA
BRANCH  22  25
ATOM     25  C   UNL     1      -0.230   0.038  -1.507  0.00  0.00    +0.145 C 
ATOM     26  C   UNL     1       1.147   0.503  -1.984  0.00  0.00    +0.033 C 
ATOM     27  C   UNL     1      -0.996   1.226  -0.923  0.00  0.00    +0.033 C 
ENDBRANCH  22  25
ENDBRANCH  17  22
BRANCH  15  28
ATOM     28  C   UNL     1      -5.340  -0.842  -0.225  0.00  0.00    +0.030 C 
BRANCH  28  30
ATOM     29  C   UNL     1      -4.710   0.505   1.783  0.00  0.00    +0.007 C 
ATOM     30  C   UNL     1      -4.171  -0.330   0.620  0.00  0.00    -0.015 C 
ATOM     31  C   UNL     1      -3.380  -1.519   1.169  0.00  0.00    +0.007 C 
ENDBRANCH  28  30
ENDBRANCH  15  28
ENDBRANCH  14  20
ENDBRANCH   1  14
BRANCH   4  32
ATOM     32  C   UNL     1      -1.442  -7.250   0.440  0.00  0.00    -0.043 C 
BRANCH  32  33
ATOM     33  C   UNL     1      -1.784  -8.603   1.008  0.00  0.00    -0.064 A 
ATOM     34  C   UNL     1      -2.547  -8.698   2.157  0.00  0.00    +0.002 A 
ATOM     35  C   UNL     1      -2.860  -9.940   2.677  0.00  0.00    +0.000 A 
ATOM     36  C   UNL     1      -2.412 -11.086   2.048  0.00  0.00    +0.000 A 
ATOM     37  C   UNL     1      -1.651 -10.991   0.898  0.00  0.00    +0.000 A 
ATOM     38  C   UNL     1      -1.340  -9.750   0.376  0.00  0.00    +0.002 A 
ENDBRANCH  32  33
ENDBRANCH   4  32
TORSDOF 9
