REMARK  Name = ZINC35842654
REMARK  19 active torsions:
REMARK  status: ('A' for Active; 'I' for Inactive)
REMARK    1  A    between atoms: C_1  and  C_2
REMARK    2  A    between atoms: C_2  and  C_3
REMARK    3  A    between atoms: C_3  and  N_4
REMARK    4  A    between atoms: N_4  and  C_5
REMARK    5  A    between atoms: N_4  and  C_32
REMARK    6  A    between atoms: C_5  and  C_6
REMARK    7  A    between atoms: N_8  and  C_9
REMARK    8  A    between atoms: N_8  and  C_21
REMARK    9  A    between atoms: C_9  and  C_10
REMARK   10  A    between atoms: C_10  and  C_11
REMARK   11  A    between atoms: C_21  and  C_22
REMARK   12  A    between atoms: C_25  and  C_28
REMARK   13  A    between atoms: C_28  and  C_29
REMARK   14  A    between atoms: C_28  and  C_30
REMARK   15  A    between atoms: C_28  and  C_31
REMARK   16  A    between atoms: C_32  and  C_33
REMARK   17  A    between atoms: C_32  and  C_34
REMARK   18  A    between atoms: C_32  and  C_35
REMARK   19  A    between atoms: C_35  and  O_36
REMARK                            x       y       z     vdW  Elec       q    Type
REMARK                         _______ _______ _______ _____ _____    ______ ____
ROOT
ATOM      1  C   UNL     1      -0.593  -4.046  -1.158  0.00  0.00    +0.199 C 
ATOM      2  O   UNL     1       0.294  -4.743  -0.714  0.00  0.00    -0.278 OA
ATOM      3  N   UNL     1      -1.786  -4.590  -1.470  0.00  0.00    -0.298 N 
ENDROOT
BRANCH   1   4
ATOM      4  C   UNL     1      -0.361  -2.571  -1.363  0.00  0.00    +0.020 C 
BRANCH   4   5
ATOM      5  N   UNL     1       0.952  -2.202  -0.819  0.00  0.00    +0.390 N 
ATOM      6  H   UNL     1       1.609  -2.949  -0.988  0.00  0.00    -0.080 HD
BRANCH   5   7
ATOM      7  C   UNL     1       1.427  -0.976  -1.474  0.00  0.00    -0.047 C 
ATOM      8  C   UNL     1       0.401   0.141  -1.272  0.00  0.00    -0.008 C 
ATOM      9  C   UNL     1       2.765  -0.556  -0.863  0.00  0.00    -0.008 C 
BRANCH   7  10
ATOM     10  C   UNL     1       1.609  -1.236  -2.971  0.00  0.00    +0.143 C 
BRANCH  10  11
ATOM     11  O   UNL     1       2.199  -0.089  -3.586  0.00  0.00    -0.396 OA
ATOM     12  H   UNL     1       2.344  -0.183  -4.537  0.00  0.00    +0.209 HD
ENDBRANCH  10  11
ENDBRANCH   7  10
ENDBRANCH   5   7
BRANCH   5  13
ATOM     13  C   UNL     1       0.835  -1.970   0.627  0.00  0.00    -0.078 C 
BRANCH  13  15
ATOM     14  C   UNL     1       0.359  -3.042   2.833  0.00  0.00    +0.002 C 
ATOM     15  C   UNL     1       0.500  -3.287   1.330  0.00  0.00    -0.022 C 
ENDBRANCH  13  15
ENDBRANCH   5  13
ENDBRANCH   4   5
ENDBRANCH   1   4
BRANCH   3  16
ATOM     16  C   UNL     1      -2.038  -6.008  -1.199  0.00  0.00    +0.113 C 
BRANCH  16  17
ATOM     17  C   UNL     1      -2.621  -6.164   0.206  0.00  0.00    +0.056 C 
BRANCH  17  18
ATOM     18  C   UNL     1      -2.880  -7.622   0.484  0.00  0.00    -0.021 A 
ATOM     19  C   UNL     1      -4.040  -8.275   0.310  0.00  0.00    +0.087 A 
ATOM     20  N   UNL     1      -3.895  -9.588   0.668  0.00  0.00    -0.360 N 
ATOM     21  H   UNL     1      -4.596 -10.256   0.629  0.00  0.00    +0.165 HD
ATOM     22  C   UNL     1      -2.605  -9.818   1.091  0.00  0.00    +0.047 A 
ATOM     23  C   UNL     1      -1.911  -8.598   0.989  0.00  0.00    +0.003 A 
ATOM     24  C   UNL     1      -0.564  -8.531   1.349  0.00  0.00    +0.010 A 
ATOM     25  C   UNL     1       0.075  -9.653   1.797  0.00  0.00    +0.001 A 
ATOM     26  C   UNL     1      -0.604 -10.859   1.897  0.00  0.00    +0.002 A 
ATOM     27  C   UNL     1      -1.936 -10.946   1.555  0.00  0.00    +0.026 A 
ENDBRANCH  17  18
ENDBRANCH  16  17
ENDBRANCH   3  16
BRANCH   3  28
ATOM     28  C   UNL     1      -2.832  -3.764  -2.078  0.00  0.00    +0.142 C 
BRANCH  28  29
ATOM     29  C   UNL     1      -2.796  -3.929  -3.575  0.00  0.00    -0.030 A 
ATOM     30  C   UNL     1      -1.976  -3.121  -4.340  0.00  0.00    +0.005 A 
ATOM     31  C   UNL     1      -1.943  -3.273  -5.714  0.00  0.00    +0.004 A 
ATOM     32  C   UNL     1      -2.729  -4.234  -6.322  0.00  0.00    -0.042 A 
ATOM     33  C   UNL     1      -3.549  -5.043  -5.557  0.00  0.00    +0.004 A 
ATOM     34  C   UNL     1      -3.578  -4.894  -4.183  0.00  0.00    +0.005 A 
BRANCH  32  35
ATOM     35  C   UNL     1      -2.694  -4.399  -7.820  0.00  0.00    -0.013 C 
ATOM     36  C   UNL     1      -1.272  -4.752  -8.260  0.00  0.00    +0.015 C 
ATOM     37  C   UNL     1      -3.649  -5.521  -8.232  0.00  0.00    +0.015 C 
ATOM     38  C   UNL     1      -3.125  -3.092  -8.487  0.00  0.00    +0.015 C 
ENDBRANCH  32  35
ENDBRANCH  28  29
ENDBRANCH   3  28
TORSDOF 13
