REMARK  Name = ZINC39676941
REMARK  7 active torsions:
REMARK  status: ('A' for Active; 'I' for Inactive)
REMARK    1  A    between atoms: C_1  and  C_2
REMARK    2  A    between atoms: C_5  and  C_32
REMARK    3  A    between atoms: C_6  and  C_8
REMARK    4  A    between atoms: C_8  and  C_9
REMARK    5  A    between atoms: C_9  and  N_10
REMARK    6  A    between atoms: C_11  and  C_13
REMARK    7  A    between atoms: C_24  and  C_26
REMARK                            x       y       z     vdW  Elec       q    Type
REMARK                         _______ _______ _______ _____ _____    ______ ____
ROOT
ATOM      1  C   UNL     1       2.449  -5.398   6.524  0.00  0.00    +0.100 C 
ATOM      2  C   UNL     1       1.639  -6.627   6.054  0.00  0.00    +0.121 C 
ATOM      3  N   UNL     1       2.664  -7.626   5.670  0.00  0.00    -0.296 N 
ATOM      4  C   UNL     1       3.722  -7.482   6.698  0.00  0.00    +0.115 C 
ATOM      5  C   UNL     1       3.814  -5.964   6.950  0.00  0.00    -0.004 C 
ATOM      6  C   UNL     1       4.062  -5.688   8.429  0.00  0.00    -0.010 C 
ATOM      7  C   UNL     1       5.450  -6.208   8.815  0.00  0.00    -0.082 C 
ATOM      8  N   UNL     1       6.470  -5.543   7.995  0.00  0.00    +0.379 N 
ATOM      9  C   UNL     1       6.279  -5.889   6.581  0.00  0.00    -0.082 C 
ATOM     10  C   UNL     1       4.926  -5.355   6.101  0.00  0.00    -0.010 C 
ATOM     11  C   UNL     1       2.639  -8.474   4.623  0.00  0.00    +0.247 C 
ATOM     12  O   UNL     1       1.757  -8.387   3.791  0.00  0.00    -0.270 OA
ATOM     13  H   UNL     1       6.391  -4.543   8.108  0.00  0.00    -0.086 HD
ATOM     14  H   UNL     1       7.386  -5.841   8.292  0.00  0.00    -0.086 HD
ENDROOT
BRANCH  11  15
ATOM     15  C   UNL     1       3.685  -9.510   4.486  0.00  0.00    +0.037 A 
ATOM     16  C   UNL     1       4.424  -9.911   5.600  0.00  0.00    +0.013 A 
ATOM     17  C   UNL     1       5.398 -10.879   5.465  0.00  0.00    +0.001 A 
ATOM     18  C   UNL     1       5.643 -11.451   4.230  0.00  0.00    +0.000 A 
ATOM     19  C   UNL     1       4.914 -11.058   3.122  0.00  0.00    +0.001 A 
ATOM     20  C   UNL     1       3.933 -10.096   3.244  0.00  0.00    +0.013 A 
ENDBRANCH  11  15
BRANCH   1  22
ATOM     21  N   UNL     1       2.849  -3.115   5.659  0.00  0.00    -0.315 N 
ATOM     22  C   UNL     1       2.617  -4.416   5.393  0.00  0.00    +0.218 C 
ATOM     23  O   UNL     1       2.544  -4.797   4.244  0.00  0.00    -0.275 OA
ATOM     24  H   UNL     1       2.908  -2.811   6.578  0.00  0.00    +0.149 HD
BRANCH  21  25
ATOM     25  C   UNL     1       3.013  -2.161   4.560  0.00  0.00    +0.109 C 
BRANCH  25  26
ATOM     26  C   UNL     1       3.263  -0.764   5.130  0.00  0.00    +0.054 C 
BRANCH  26  32
ATOM     27  C   UNL     1       6.232   1.788   2.012  0.00  0.00    +0.044 C 
ATOM     28  C   UNL     1       4.852   1.439   2.508  0.00  0.00    -0.050 A 
ATOM     29  C   UNL     1       3.741   2.020   1.926  0.00  0.00    +0.003 A 
ATOM     30  C   UNL     1       2.476   1.700   2.380  0.00  0.00    +0.004 A 
ATOM     31  C   UNL     1       2.321   0.799   3.418  0.00  0.00    -0.047 A 
ATOM     32  C   UNL     1       3.432   0.218   3.999  0.00  0.00    -0.043 A 
ATOM     33  C   UNL     1       4.697   0.535   3.542  0.00  0.00    +0.007 A 
ATOM     34  C   UNL     1       0.941   0.451   3.914  0.00  0.00    +0.044 C 
ENDBRANCH  26  32
ENDBRANCH  25  26
ENDBRANCH  21  25
ENDBRANCH   1  22
TORSDOF 5
