REMARK  Name = ZINC63351356
REMARK  4 active torsions:
REMARK  status: ('A' for Active; 'I' for Inactive)
REMARK    1  A    between atoms: C_1  and  C_2
REMARK    2  A    between atoms: C_5  and  N_9
REMARK    3  A    between atoms: C_6  and  C_8
REMARK    4  A    between atoms: C_12  and  C_18
REMARK                            x       y       z     vdW  Elec       q    Type
REMARK                         _______ _______ _______ _____ _____    ______ ____
ROOT
ATOM      1  N   UNL     1       0.058  -4.173   0.045  0.00  0.00    -0.256 N 
ATOM      2  C   UNL     1      -1.103  -4.857   0.043  0.00  0.00    +0.268 A 
ATOM      3  O   UNL     1      -2.166  -4.263   0.106  0.00  0.00    -0.267 OA
ATOM      4  C   UNL     1      -1.081  -6.261  -0.032  0.00  0.00    +0.101 A 
ATOM      5  C   UNL     1       0.121  -6.902  -0.102  0.00  0.00    +0.261 A 
ATOM      6  N   UNL     1       1.279  -6.167  -0.097  0.00  0.00    -0.302 N 
ATOM      7  C   UNL     1       1.234  -4.824  -0.029  0.00  0.00    +0.168 A 
ATOM      8  S   UNL     1       2.694  -3.929  -0.033  0.00  0.00    -0.012 S 
ATOM      9  O   UNL     1       0.171  -8.249  -0.174  0.00  0.00    -0.267 OA
ATOM     10  H   UNL     1       2.136  -6.618  -0.146  0.00  0.00    +0.171 HD
ENDROOT
BRANCH   4  11
ATOM     11  C   UNL     1      -2.367  -7.046  -0.035  0.00  0.00    +0.121 C 
ATOM     12  C   UNL     1      -2.420  -7.944  -1.274  0.00  0.00    +0.128 C 
ATOM     13  C   UNL     1      -1.308  -8.973  -1.102  0.00  0.00    -0.035 C 
ATOM     14  C   UNL     1      -0.564  -8.907  -2.197  0.00  0.00    -0.001 A 
ATOM     15  C   UNL     1       0.589  -9.703  -2.650  0.00  0.00    +0.010 A 
ATOM     16  C   UNL     1       1.131  -9.346  -3.845  0.00  0.00    +0.001 A 
ATOM     17  C   UNL     1       0.648  -8.291  -4.625  0.00  0.00    +0.002 A 
ATOM     18  C   UNL     1      -0.410  -7.511  -4.289  0.00  0.00    +0.026 A 
ATOM     19  C   UNL     1      -1.068  -7.792  -3.057  0.00  0.00    +0.043 A 
ATOM     20  N   UNL     1      -2.121  -7.218  -2.508  0.00  0.00    -0.376 N 
ATOM     21  C   UNL     1      -1.154  -9.767   0.172  0.00  0.00    +0.048 C 
ATOM     22  C   UNL     1      -1.244  -8.751   1.325  0.00  0.00    +0.086 C 
ATOM     23  N   UNL     1      -2.428  -7.902   1.160  0.00  0.00    -0.307 NA
ATOM     24  H   UNL     1      -2.599  -7.354   1.990  0.00  0.00    +0.123 HD
ATOM     25  H   UNL     1      -2.611  -6.454  -2.849  0.00  0.00    +0.160 HD
ENDBRANCH   4  11
BRANCH   1  30
ATOM     26  C   UNL     1      -0.013   1.493   0.349  0.00  0.00    +0.044 C 
ATOM     27  C   UNL     1       0.006  -0.012   0.268  0.00  0.00    -0.050 A 
ATOM     28  C   UNL     1      -0.026  -0.637  -0.965  0.00  0.00    +0.005 A 
ATOM     29  C   UNL     1      -0.008  -2.016  -1.042  0.00  0.00    +0.027 A 
ATOM     30  C   UNL     1       0.041  -2.775   0.120  0.00  0.00    +0.055 A 
ATOM     31  C   UNL     1       0.073  -2.144   1.357  0.00  0.00    -0.026 A 
ATOM     32  C   UNL     1       0.061  -0.764   1.427  0.00  0.00    +0.008 A 
ATOM     33  C   UNL     1       0.127  -2.963   2.620  0.00  0.00    +0.046 C 
ENDBRANCH   1  30
TORSDOF 2
