REMARK  Name = ZINC45253463
REMARK  8 active torsions:
REMARK  status: ('A' for Active; 'I' for Inactive)
REMARK    1  A    between atoms: C_1  and  C_2
REMARK    2  A    between atoms: C_2  and  N_3
REMARK    3  A    between atoms: N_6  and  C_7
REMARK    4  A    between atoms: C_10  and  C_25
REMARK    5  A    between atoms: C_12  and  C_16
REMARK    6  A    between atoms: N_19  and  C_23
REMARK    7  A    between atoms: C_23  and  C_24
REMARK    8  A    between atoms: C_28  and  C_31
REMARK                            x       y       z     vdW  Elec       q    Type
REMARK                         _______ _______ _______ _____ _____    ______ ____
ROOT
ATOM      1  C   UNL     1       1.602  -3.608  -2.764  0.00  0.00    +0.145 A 
ATOM      2  C   UNL     1       1.149  -4.603  -1.954  0.00  0.00    +0.137 A 
ATOM      3  N   UNL     1       1.494  -5.788  -2.539  0.00  0.00    -0.294 N 
ATOM      4  C   UNL     1       1.293  -7.096  -2.166  0.00  0.00    +0.093 A 
ATOM      5  C   UNL     1       1.746  -8.117  -2.943  0.00  0.00    +0.038 A 
ATOM      6  C   UNL     1       2.430  -7.838  -4.146  0.00  0.00    -0.012 A 
ATOM      7  C   UNL     1       2.634  -6.520  -4.524  0.00  0.00    +0.055 A 
ATOM      8  C   UNL     1       2.155  -5.486  -3.702  0.00  0.00    +0.141 A 
ATOM      9  N   UNL     1       2.203  -4.164  -3.819  0.00  0.00    -0.213 NA
ENDROOT
BRANCH   6  10
ATOM     10  C   UNL     1       2.926  -8.943  -4.996  0.00  0.00    -0.011 A 
ATOM     11  C   UNL     1       2.029  -9.890  -5.541  0.00  0.00    +0.026 A 
ATOM     12  C   UNL     1       2.499 -10.892  -6.314  0.00  0.00    +0.089 A 
ATOM     13  N   UNL     1       3.827 -11.006  -6.580  0.00  0.00    -0.315 N 
ATOM     14  C   UNL     1       4.715 -10.126  -6.082  0.00  0.00    +0.252 A 
ATOM     15  O   UNL     1       5.903 -10.251  -6.336  0.00  0.00    -0.268 OA
ATOM     16  C   UNL     1       4.280  -9.064  -5.277  0.00  0.00    +0.078 A 
BRANCH  13  17
ATOM     17  C   UNL     1       4.300 -12.107  -7.423  0.00  0.00    +0.121 C 
ATOM     18  C   UNL     1       4.301 -11.663  -8.887  0.00  0.00    +0.027 C 
ENDBRANCH  13  17
ENDBRANCH   6  10
BRANCH   4  19
ATOM     19  C   UNL     1       0.578  -7.397  -0.909  0.00  0.00    +0.177 A 
ATOM     20  N   UNL     1       0.135  -6.394  -0.159  0.00  0.00    -0.234 NA
ATOM     21  C   UNL     1      -0.508  -6.629   0.971  0.00  0.00    +0.118 A 
ATOM     22  C   UNL     1      -0.718  -7.941   1.371  0.00  0.00    -0.014 A 
ATOM     23  C   UNL     1      -0.242  -8.965   0.564  0.00  0.00    +0.118 A 
ATOM     24  N   UNL     1       0.388  -8.663  -0.557  0.00  0.00    -0.234 NA
ATOM     25  C   UNL     1      -1.447  -8.248   2.654  0.00  0.00    +0.047 C 
ENDBRANCH   4  19
BRANCH   1  29
ATOM     26  N   UNL     1       0.688  -0.476  -1.203  0.00  0.00    -0.299 N 
ATOM     27  C   UNL     1       0.827  -1.799  -1.425  0.00  0.00    +0.305 C 
ATOM     28  O   UNL     1       0.383  -2.599  -0.625  0.00  0.00    -0.252 OA
ATOM     29  N   UNL     1       1.458  -2.233  -2.534  0.00  0.00    -0.253 N 
ATOM     30  H   UNL     1       1.042   0.162  -1.842  0.00  0.00    +0.150 HD
ATOM     31  H   UNL     1       1.812  -1.595  -3.172  0.00  0.00    +0.158 HD
BRANCH  26  33
ATOM     32  C   UNL     1      -0.019   1.526   0.010  0.00  0.00    +0.024 C 
ATOM     33  C   UNL     1       0.002  -0.004   0.002  0.00  0.00    +0.102 C 
ENDBRANCH  26  33
ENDBRANCH   1  29
TORSDOF 5
