REMARK  Name = ZINC60363251
REMARK  11 active torsions:
REMARK  status: ('A' for Active; 'I' for Inactive)
REMARK    1  A    between atoms: C_1  and  C_2
REMARK    2  A    between atoms: C_2  and  C_3
REMARK    3  A    between atoms: C_3  and  C_4
REMARK    4  A    between atoms: C_4  and  N_5
REMARK    5  A    between atoms: C_6  and  N_32
REMARK    6  A    between atoms: C_7  and  N_14
REMARK    7  A    between atoms: N_14  and  C_15
REMARK    8  A    between atoms: C_15  and  C_16
REMARK    9  A    between atoms: C_17  and  C_19
REMARK   10  A    between atoms: C_19  and  N_20
REMARK   11  A    between atoms: C_24  and  C_27
REMARK                            x       y       z     vdW  Elec       q    Type
REMARK                         _______ _______ _______ _____ _____    ______ ____
ROOT
ATOM      1  N   UNL     1       4.859  -3.481   3.409  0.00  0.00    -0.266 N 
ATOM      2  C   UNL     1       5.558  -3.168   2.299  0.00  0.00    +0.203 C 
ATOM      3  O   UNL     1       4.980  -2.755   1.315  0.00  0.00    -0.277 OA
ENDROOT
BRANCH   1   6
ATOM      4  N   UNL     1       1.608  -2.062   4.367  0.00  0.00    -0.280 N 
ATOM      5  C   UNL     1       2.965  -2.286   4.335  0.00  0.00    +0.127 A 
ATOM      6  C   UNL     1       3.472  -3.229   3.465  0.00  0.00    +0.140 A 
ATOM      7  C   UNL     1       2.582  -3.935   2.634  0.00  0.00    +0.277 A 
ATOM      8  O   UNL     1       3.004  -4.774   1.855  0.00  0.00    -0.266 OA
ATOM      9  N   UNL     1       1.262  -3.677   2.703  0.00  0.00    -0.273 N 
ATOM     10  H   UNL     1       0.648  -4.163   2.131  0.00  0.00    +0.173 HD
ATOM     11  C   UNL     1       0.785  -2.759   3.562  0.00  0.00    +0.331 A 
ATOM     12  O   UNL     1      -0.412  -2.549   3.608  0.00  0.00    -0.246 OA
BRANCH   5  13
ATOM     13  N   UNL     1       3.805  -1.579   5.161  0.00  0.00    -0.343 N 
ATOM     14  H   UNL     1       3.451  -0.871   5.722  0.00  0.00    +0.144 HD
ATOM     15  H   UNL     1       4.752  -1.787   5.183  0.00  0.00    +0.144 HD
ENDBRANCH   5  13
BRANCH   4  16
ATOM     16  C   UNL     1       1.055  -1.064   5.286  0.00  0.00    +0.128 C 
BRANCH  16  17
ATOM     17  C   UNL     1       0.725  -1.730   6.623  0.00  0.00    +0.021 C 
BRANCH  17  19
ATOM     18  C   UNL     1      -0.182  -1.354   8.920  0.00  0.00    +0.004 C 
ATOM     19  C   UNL     1       0.148  -0.688   7.583  0.00  0.00    -0.002 C 
ENDBRANCH  17  19
ENDBRANCH  16  17
ENDBRANCH   4  16
ENDBRANCH   1   6
BRANCH   1  20
ATOM     20  C   UNL     1       5.541  -4.083   4.558  0.00  0.00    +0.110 C 
ATOM     21  C   UNL     1       5.623  -5.599   4.365  0.00  0.00    +0.025 C 
ENDBRANCH   1  20
BRANCH   2  22
ATOM     22  C   UNL     1       7.056  -3.331   2.279  0.00  0.00    +0.019 C 
BRANCH  22  23
ATOM     23  N   UNL     1       7.576  -2.926   0.966  0.00  0.00    +0.386 N 
ATOM     24  C   UNL     1       7.331  -1.493   0.766  0.00  0.00    -0.078 C 
ATOM     25  C   UNL     1       7.797  -1.083  -0.633  0.00  0.00    -0.018 C 
ATOM     26  C   UNL     1       9.295  -1.370  -0.770  0.00  0.00    +0.005 C 
ATOM     27  C   UNL     1       9.549  -2.853  -0.485  0.00  0.00    +0.028 C 
ATOM     28  C   UNL     1       9.017  -3.198   0.908  0.00  0.00    -0.070 C 
ATOM     29  H   UNL     1       7.106  -3.450   0.243  0.00  0.00    -0.081 HD
BRANCH  27  30
ATOM     30  C   UNL     1      11.051  -3.135  -0.544  0.00  0.00    +0.252 C 
ATOM     31  O   UNL     1      11.733  -2.327   0.430  0.00  0.00    -0.349 OA
ATOM     32  C   UNL     1      12.990  -1.974  -0.196  0.00  0.00    +0.191 C 
ATOM     33  C   UNL     1      12.566  -1.798  -1.676  0.00  0.00    +0.191 C 
ATOM     34  O   UNL     1      11.552  -2.808  -1.847  0.00  0.00    -0.349 OA
ENDBRANCH  27  30
ENDBRANCH  22  23
ENDBRANCH   2  22
TORSDOF 9
