REMARK  Name = ZINC39770230
REMARK  15 active torsions:
REMARK  status: ('A' for Active; 'I' for Inactive)
REMARK    1  A    between atoms: C_1  and  C_2
REMARK    2  A    between atoms: C_2  and  C_3
REMARK    3  A    between atoms: C_3  and  C_4
REMARK    4  A    between atoms: C_4  and  N_5
REMARK    5  A    between atoms: C_9  and  C_10
REMARK    6  A    between atoms: C_11  and  C_33
REMARK    7  A    between atoms: C_12  and  C_31
REMARK    8  A    between atoms: N_15  and  C_28
REMARK    9  A    between atoms: C_16  and  N_17
REMARK   10  A    between atoms: C_20  and  C_23
REMARK   11  A    between atoms: C_23  and  O_25
REMARK   12  A    between atoms: O_25  and  C_26
REMARK   13  A    between atoms: C_26  and  C_27
REMARK   14  A    between atoms: C_28  and  C_29
REMARK   15  A    between atoms: C_29  and  C_30
REMARK                            x       y       z     vdW  Elec       q    Type
REMARK                         _______ _______ _______ _____ _____    ______ ____
ROOT
ATOM      1  C   UNL     1       5.710  -3.391   2.628  0.00  0.00    +0.019 A 
ATOM      2  C   UNL     1       5.098  -2.938   1.447  0.00  0.00    -0.017 A 
ATOM      3  C   UNL     1       5.886  -2.720   0.321  0.00  0.00    +0.120 A 
ATOM      4  C   UNL     1       7.283  -2.957   0.392  0.00  0.00    +0.270 A 
ATOM      5  O   UNL     1       7.979  -2.767  -0.590  0.00  0.00    -0.266 OA
ATOM      6  N   UNL     1       7.845  -3.390   1.534  0.00  0.00    -0.295 N 
ATOM      7  C   UNL     1       7.098  -3.606   2.647  0.00  0.00    +0.112 A 
ATOM      8  C   UNL     1       3.611  -2.695   1.400  0.00  0.00    +0.046 C 
ENDROOT
BRANCH   1  13
ATOM      9  N   UNL     1       3.684  -0.368   4.954  0.00  0.00    -0.255 N 
ATOM     10  C   UNL     1       4.382  -1.190   4.189  0.00  0.00    +0.258 C 
ATOM     11  O   UNL     1       5.074  -0.766   3.281  0.00  0.00    -0.269 OA
ATOM     12  C   UNL     1       4.299  -2.590   4.459  0.00  0.00    +0.077 C 
ATOM     13  C   UNL     1       4.909  -3.631   3.830  0.00  0.00    +0.032 C 
ATOM     14  S   UNL     1       3.177  -2.602   5.851  0.00  0.00    -0.061 S 
ATOM     15  C   UNL     1       2.921  -0.838   5.965  0.00  0.00    +0.121 C 
ATOM     16  S   UNL     1       1.951   0.036   7.073  0.00  0.00    -0.027 S 
BRANCH   9  17
ATOM     17  C   UNL     1       3.745   1.075   4.706  0.00  0.00    +0.115 C 
BRANCH  17  18
ATOM     18  C   UNL     1       4.889   1.684   5.518  0.00  0.00    +0.019 C 
BRANCH  18  20
ATOM     19  C   UNL     1       6.096   3.801   6.072  0.00  0.00    +0.004 C 
ATOM     20  C   UNL     1       4.952   3.191   5.259  0.00  0.00    -0.002 C 
ENDBRANCH  18  20
ENDBRANCH  17  18
ENDBRANCH   9  17
ENDBRANCH   1  13
BRANCH   7  21
ATOM     21  N   UNL     1       7.699  -4.040   3.792  0.00  0.00    -0.316 N 
ATOM     22  C   UNL     1       8.196  -3.080   4.787  0.00  0.00    +0.107 C 
ATOM     23  C   UNL     1       7.595  -3.429   6.152  0.00  0.00    +0.033 C 
ATOM     24  C   UNL     1       7.903  -4.891   6.482  0.00  0.00    +0.101 C 
ATOM     25  C   UNL     1       7.265  -5.799   5.427  0.00  0.00    +0.033 C 
ATOM     26  C   UNL     1       7.857  -5.477   4.057  0.00  0.00    +0.107 C 
BRANCH  24  27
ATOM     27  C   UNL     1       7.342  -5.229   7.840  0.00  0.00    +0.310 C 
ATOM     28  O   UNL     1       6.756  -4.386   8.478  0.00  0.00    -0.251 OA
BRANCH  27  29
ATOM     29  O   UNL     1       7.493  -6.465   8.340  0.00  0.00    -0.465 OA
BRANCH  29  30
ATOM     30  C   UNL     1       6.936  -6.715   9.632  0.00  0.00    +0.229 C 
ATOM     31  C   UNL     1       7.206  -8.167  10.032  0.00  0.00    +0.048 C 
ENDBRANCH  29  30
ENDBRANCH  27  29
ENDBRANCH  24  27
ENDBRANCH   7  21
BRANCH   3  32
ATOM     32  C   UNL     1       5.293  -2.259  -0.898  0.00  0.00    +0.105 C 
ATOM     33  N   UNL     1       4.822  -1.893  -1.865  0.00  0.00    -0.191 NA
ENDBRANCH   3  32
BRANCH   6  34
ATOM     34  C   UNL     1       9.290  -3.628   1.580  0.00  0.00    +0.126 C 
BRANCH  34  35
ATOM     35  C   UNL     1      10.015  -2.313   1.870  0.00  0.00    +0.018 C 
ATOM     36  C   UNL     1      11.524  -2.561   1.918  0.00  0.00    +0.005 C 
ENDBRANCH  34  35
ENDBRANCH   6  34
TORSDOF 11
