REMARK  Name = ZINC02746519
REMARK  8 active torsions:
REMARK  status: ('A' for Active; 'I' for Inactive)
REMARK    1  A    between atoms: C_1  and  C_2
REMARK    2  A    between atoms: C_2  and  O_3
REMARK    3  A    between atoms: O_3  and  C_4
REMARK    4  A    between atoms: C_6  and  C_12
REMARK    5  A    between atoms: C_9  and  O_10
REMARK    6  A    between atoms: N_13  and  N_14
REMARK    7  A    between atoms: C_15  and  C_17
REMARK    8  A    between atoms: C_22  and  O_23
REMARK                            x       y       z     vdW  Elec       q    Type
REMARK                         _______ _______ _______ _____ _____    ______ ____
ROOT
ATOM      1  C   UNL     1      -1.184  -2.019   0.003  0.00  0.00    +0.138 C 
ATOM      2  N   UNL     1      -1.202  -0.721   0.010  0.00  0.00    -0.187 NA
ENDROOT
BRANCH   1   5
ATOM      3  C   UNL     1      -3.624  -4.873   0.010  0.00  0.00    +0.163 A 
ATOM      4  C   UNL     1      -2.433  -4.170  -0.003  0.00  0.00    +0.059 A 
ATOM      5  C   UNL     1      -2.450  -2.773   0.011  0.00  0.00    -0.001 A 
ATOM      6  C   UNL     1      -3.671  -2.093   0.026  0.00  0.00    +0.028 A 
ATOM      7  C   UNL     1      -4.855  -2.801   0.033  0.00  0.00    +0.063 A 
ATOM      8  C   UNL     1      -4.837  -4.189   0.025  0.00  0.00    +0.173 A 
ATOM      9 BR   UNL     1      -6.506  -1.879   0.054  0.00  0.00    -0.046 Br
BRANCH   8  10
ATOM     10  O   UNL     1      -6.006  -4.882   0.033  0.00  0.00    -0.503 OA
ATOM     11  H   UNL     1      -6.354  -5.078  -0.848  0.00  0.00    +0.292 HD
ENDBRANCH   8  10
BRANCH   3  12
ATOM     12  O   UNL     1      -3.611  -6.233   0.002  0.00  0.00    -0.489 OA
BRANCH  12  14
ATOM     13  C   UNL     1      -2.517  -8.388  -0.021  0.00  0.00    +0.048 C 
ATOM     14  C   UNL     1      -2.331  -6.869  -0.013  0.00  0.00    +0.226 C 
ENDBRANCH  12  14
ENDBRANCH   3  12
ENDBRANCH   1   5
BRANCH   2  15
ATOM     15  N   UNL     1       0.002  -0.004   0.002  0.00  0.00    -0.203 N 
ATOM     16  C   UNL     1      -0.016   1.344   0.009  0.00  0.00    +0.267 C 
ATOM     17  O   UNL     1      -1.078   1.937   0.018  0.00  0.00    -0.268 OA
ATOM     18  H   UNL     1       0.849  -0.478  -0.009  0.00  0.00    +0.178 HD
BRANCH  16  19
ATOM     19  C   UNL     1       1.251   2.098   0.001  0.00  0.00    +0.081 A 
ATOM     20  C   UNL     1       2.473   1.420  -0.008  0.00  0.00    +0.036 A 
ATOM     21  C   UNL     1       3.654   2.132  -0.020  0.00  0.00    +0.042 A 
ATOM     22  C   UNL     1       3.634   3.518  -0.013  0.00  0.00    +0.023 A 
ATOM     23  C   UNL     1       2.434   4.200   0.002  0.00  0.00    +0.047 A 
ATOM     24  C   UNL     1       1.236   3.500   0.009  0.00  0.00    +0.129 A 
ATOM     25 CL   UNL     1       5.171   1.289  -0.039  0.00  0.00    -0.084 Cl
BRANCH  24  26
ATOM     26  O   UNL     1       0.056   4.169   0.024  0.00  0.00    -0.506 OA
ATOM     27  H   UNL     1      -0.278   4.358   0.911  0.00  0.00    +0.292 HD
ENDBRANCH  24  26
ENDBRANCH  16  19
ENDBRANCH   2  15
TORSDOF 7
