REMARK  Name = ZINC12070777
REMARK  13 active torsions:
REMARK  status: ('A' for Active; 'I' for Inactive)
REMARK    1  A    between atoms: C_1  and  C_2
REMARK    2  A    between atoms: C_2  and  N_63
REMARK    3  A    between atoms: C_3  and  C_4
REMARK    4  A    between atoms: C_3  and  N_63
REMARK    5  A    between atoms: C_5  and  C_6
REMARK    6  A    between atoms: C_5  and  N_63
REMARK    7  A    between atoms: C_6  and  N_7
REMARK    8  A    between atoms: C_18  and  C_20
REMARK    9  A    between atoms: C_20  and  C_21
REMARK   10  A    between atoms: C_24  and  S_27
REMARK   11  A    between atoms: S_27  and  C_30
REMARK   12  A    between atoms: C_30  and  C_31
REMARK   13  A    between atoms: C_30  and  C_32
REMARK                            x       y       z     vdW  Elec       q    Type
REMARK                         _______ _______ _______ _____ _____    ______ ____
ROOT
ATOM      1  N   UNL     1      -0.425  -4.024  -0.016  0.00  0.00    -0.252 N 
ATOM      2  C   UNL     1      -0.134  -2.670   0.006  0.00  0.00    +0.168 A 
ATOM      3  N   UNL     1       1.039  -2.081  -0.001  0.00  0.00    -0.223 NA
ATOM      4  C   UNL     1       1.176  -0.737   0.023  0.00  0.00    +0.099 A 
ATOM      5  C   UNL     1      -0.029   0.001   0.058  0.00  0.00    +0.042 A 
ATOM      6  S   UNL     1      -1.258  -1.282   0.052  0.00  0.00    -0.052 S 
ATOM      7  C   UNL     1      -0.057   1.373   0.086  0.00  0.00    +0.017 A 
ATOM      8  C   UNL     1       1.131   2.081   0.081  0.00  0.00    +0.003 A 
ATOM      9  C   UNL     1       2.334   1.390   0.048  0.00  0.00    +0.022 A 
ATOM     10  C   UNL     1       2.372   0.019   0.019  0.00  0.00    +0.067 A 
ATOM     11 CL   UNL     1       3.904  -0.796  -0.023  0.00  0.00    -0.081 Cl
ATOM     12  C   UNL     1       0.573  -4.929  -0.050  0.00  0.00    +0.225 C 
ATOM     13  O   UNL     1       0.318  -6.114  -0.070  0.00  0.00    -0.275 OA
ENDROOT
BRANCH   1  14
ATOM     14  C   UNL     1      -1.820  -4.474  -0.002  0.00  0.00    +0.097 C 
BRANCH  14  15
ATOM     15  C   UNL     1      -2.329  -4.601  -1.439  0.00  0.00    -0.059 C 
BRANCH  15  16
ATOM     16  N   UNL     1      -3.685  -5.190  -1.411  0.00  0.00    +0.380 N 
ATOM     17  H   UNL     1      -3.703  -5.952  -0.723  0.00  0.00    -0.082 HD
BRANCH  16  19
ATOM     18  C   UNL     1      -6.022  -4.843  -0.778  0.00  0.00    -0.017 C 
ATOM     19  C   UNL     1      -4.673  -4.163  -1.017  0.00  0.00    -0.082 C 
ENDBRANCH  16  19
BRANCH  16  20
ATOM     20  C   UNL     1      -4.027  -5.736  -2.741  0.00  0.00    -0.082 C 
ATOM     21  C   UNL     1      -3.304  -7.072  -2.923  0.00  0.00    -0.017 C 
ENDBRANCH  16  20
ENDBRANCH  15  16
ENDBRANCH  14  15
ENDBRANCH   1  14
BRANCH  12  22
ATOM     22  C   UNL     1       2.008  -4.467  -0.065  0.00  0.00    +0.131 C 
BRANCH  22  23
ATOM     23  C   UNL     1       2.921  -5.665  -0.104  0.00  0.00    -0.038 A 
ATOM     24  C   UNL     1       3.364  -6.234   1.075  0.00  0.00    +0.006 A 
ATOM     25  C   UNL     1       4.198  -7.336   1.040  0.00  0.00    +0.027 A 
ATOM     26  C   UNL     1       4.597  -7.862  -0.175  0.00  0.00    +0.088 A 
ATOM     27  C   UNL     1       4.158  -7.289  -1.354  0.00  0.00    +0.027 A 
ATOM     28  C   UNL     1       3.320  -6.190  -1.318  0.00  0.00    +0.006 A 
BRANCH  26  29
ATOM     29  S   UNL     1       5.664  -9.264  -0.221  0.00  0.00    -0.001 S 
ATOM     30  O   UNL     1       5.425  -9.942   1.005  0.00  0.00    -0.169 OA
ATOM     31  O   UNL     1       5.382  -9.894  -1.463  0.00  0.00    -0.169 OA
BRANCH  29  32
ATOM     32  C   UNL     1       7.341  -8.573  -0.236  0.00  0.00    +0.130 C 
ATOM     33  C   UNL     1       8.357  -9.705  -0.401  0.00  0.00    +0.032 C 
ATOM     34  C   UNL     1       7.477  -7.591  -1.401  0.00  0.00    +0.032 C 
ENDBRANCH  29  32
ENDBRANCH  26  29
ENDBRANCH  22  23
ENDBRANCH  12  22
TORSDOF 9
