REMARK  Name = ZINC09468702
REMARK  10 active torsions:
REMARK  status: ('A' for Active; 'I' for Inactive)
REMARK    1  A    between atoms: C_1  and  C_2
REMARK    2  A    between atoms: C_2  and  C_4
REMARK    3  A    between atoms: C_2  and  S_16
REMARK    4  A    between atoms: S_16  and  C_17
REMARK    5  A    between atoms: C_20  and  C_29
REMARK    6  A    between atoms: N_21  and  C_22
REMARK    7  A    between atoms: C_29  and  C_31
REMARK    8  A    between atoms: C_29  and  N_54
REMARK    9  A    between atoms: C_32  and  N_54
REMARK   10  A    between atoms: C_33  and  N_54
REMARK                            x       y       z     vdW  Elec       q    Type
REMARK                         _______ _______ _______ _____ _____    ______ ____
ROOT
ATOM      1  C   UNL     1      -0.017   1.364   0.009  0.00  0.00    +0.197 A 
ATOM      2  N   UNL     1       1.234   1.765  -0.000  0.00  0.00    -0.122 NA
ATOM      3  N   UNL     1       2.019   0.748  -0.013  0.00  0.00    -0.135 NA
ATOM      4  C   UNL     1       1.326  -0.355  -0.013  0.00  0.00    +0.125 A 
ATOM      5  N   UNL     1       0.002  -0.004   0.002  0.00  0.00    -0.275 N 
ENDROOT
BRANCH   5   6
ATOM      6  C   UNL     1      -1.104  -0.867   0.007  0.00  0.00    +0.050 A 
ATOM      7  C   UNL     1      -1.326  -1.705   1.091  0.00  0.00    +0.028 A 
ATOM      8  C   UNL     1      -2.419  -2.550   1.097  0.00  0.00    +0.022 A 
ATOM      9  C   UNL     1      -3.286  -2.569   0.018  0.00  0.00    +0.041 A 
ATOM     10  C   UNL     1      -3.063  -1.738  -1.066  0.00  0.00    +0.022 A 
ATOM     11  C   UNL     1      -1.975  -0.888  -1.073  0.00  0.00    +0.028 A 
ATOM     12 CL   UNL     1      -4.654  -3.637   0.025  0.00  0.00    -0.084 Cl
ENDBRANCH   5   6
BRANCH   4  13
ATOM     13  C   UNL     1       1.878  -1.758  -0.025  0.00  0.00    -0.003 C 
ATOM     14  C   UNL     1       2.398  -2.088  -1.425  0.00  0.00    -0.005 C 
BRANCH  13  17
ATOM     15  C   UNL     1       2.537  -1.458   2.286  0.00  0.00    -0.096 C 
ATOM     16  C   UNL     1       3.542  -3.216   0.959  0.00  0.00    -0.096 C 
ATOM     17  N   UNL     1       2.998  -1.841   0.935  0.00  0.00    +0.382 N 
ATOM     18  H   UNL     1       3.740  -1.195   0.640  0.00  0.00    -0.082 HD
ENDBRANCH  13  17
ENDBRANCH   4  13
BRANCH   1  19
ATOM     19  S   UNL     1      -1.447   2.392   0.022  0.00  0.00    -0.075 S 
BRANCH  19  21
ATOM     20  C   UNL     1       0.116   4.211   1.332  0.00  0.00    +0.027 C 
ATOM     21  C   UNL     1      -0.661   4.023   0.027  0.00  0.00    +0.117 C 
BRANCH  21  22
ATOM     22  C   UNL     1      -1.719   5.090  -0.086  0.00  0.00    +0.124 A 
ATOM     23  N   UNL     1      -2.978   4.797   0.333  0.00  0.00    -0.309 N 
ATOM     24  H   UNL     1      -3.172   3.917   0.692  0.00  0.00    +0.170 HD
ATOM     25  C   UNL     1      -3.962   5.723   0.258  0.00  0.00    +0.259 A 
ATOM     26  O   UNL     1      -5.093   5.476   0.634  0.00  0.00    -0.267 OA
ATOM     27  C   UNL     1      -3.613   7.038  -0.300  0.00  0.00    +0.065 A 
ATOM     28  C   UNL     1      -4.554   8.058  -0.427  0.00  0.00    +0.015 A 
ATOM     29  C   UNL     1      -4.173   9.271  -0.958  0.00  0.00    +0.001 A 
ATOM     30  C   UNL     1      -2.862   9.483  -1.366  0.00  0.00    +0.002 A 
ATOM     31  C   UNL     1      -1.918   8.488  -1.250  0.00  0.00    +0.028 A 
ATOM     32  C   UNL     1      -2.280   7.250  -0.715  0.00  0.00    +0.078 A 
ATOM     33  N   UNL     1      -1.382   6.242  -0.583  0.00  0.00    -0.233 NA
ENDBRANCH  21  22
ENDBRANCH  19  21
ENDBRANCH   1  19
TORSDOF 6
