REMARK  Name = ZINC49504244
REMARK  5 active torsions:
REMARK  status: ('A' for Active; 'I' for Inactive)
REMARK    1  A    between atoms: C_3  and  N_25
REMARK    2  A    between atoms: C_6  and  N_7
REMARK    3  A    between atoms: C_8  and  C_10
REMARK    4  A    between atoms: N_12  and  C_13
REMARK    5  A    between atoms: C_13  and  C_14
REMARK                            x       y       z     vdW  Elec       q    Type
REMARK                         _______ _______ _______ _____ _____    ______ ____
ROOT
ATOM      1  N   UNL     1      -1.200  -0.720   0.010  0.00  0.00    -0.278 N 
ATOM      2  C   UNL     1      -1.258  -2.044   0.253  0.00  0.00    +0.303 C 
ATOM      3  O   UNL     1      -0.250  -2.653   0.545  0.00  0.00    -0.265 OA
ATOM      4  H   UNL     1      -2.015  -0.220  -0.153  0.00  0.00    +0.155 HD
ENDROOT
BRANCH   1  10
ATOM      5  C   UNL     1       1.168  -0.731  -0.462  0.00  0.00    +0.025 A 
ATOM      6  C   UNL     1       2.388  -0.086  -0.479  0.00  0.00    +0.026 A 
ATOM      7  C   UNL     1       2.485   1.228  -0.041  0.00  0.00    +0.051 A 
ATOM      8  C   UNL     1       1.354   1.894   0.415  0.00  0.00    +0.026 A 
ATOM      9  C   UNL     1       0.134   1.248   0.432  0.00  0.00    +0.025 A 
ATOM     10  C   UNL     1       0.037  -0.066  -0.007  0.00  0.00    +0.034 A 
BRANCH   7  11
ATOM     11  N   UNL     1       3.721   1.882  -0.057  0.00  0.00    -0.207 N 
ATOM     12  C   UNL     1       4.295   2.452   1.171  0.00  0.00    +0.131 C 
ATOM     13  C   UNL     1       4.556   3.943   0.967  0.00  0.00    +0.022 C 
ATOM     14  C   UNL     1       5.619   4.162  -0.107  0.00  0.00    +0.026 C 
ATOM     15  C   UNL     1       5.047   3.801  -1.483  0.00  0.00    +0.189 C 
ATOM     16  S   UNL     1       4.593   2.034  -1.467  0.00  0.00    +0.045 S 
ATOM     17  O   UNL     1       5.746   1.225  -1.277  0.00  0.00    -0.155 OA
ATOM     18  O   UNL     1       3.666   1.751  -2.506  0.00  0.00    -0.155 OA
ENDBRANCH   7  11
ENDBRANCH   1  10
BRANCH   2  19
ATOM     19  C   UNL     1      -2.564  -2.763   0.161  0.00  0.00    +0.299 C 
ATOM     20  O   UNL     1      -3.573  -2.154  -0.131  0.00  0.00    -0.265 OA
ATOM     21  N   UNL     1      -2.623  -4.087   0.404  0.00  0.00    -0.305 N 
ATOM     22  H   UNL     1      -1.817  -4.574   0.638  0.00  0.00    +0.149 HD
BRANCH  21  23
ATOM     23  C   UNL     1      -3.904  -4.792   0.314  0.00  0.00    +0.138 C 
BRANCH  23  24
ATOM     24  C   UNL     1      -3.695  -6.274   0.634  0.00  0.00    +0.164 C 
ATOM     25  C   UNL     1      -5.022  -7.058   0.489  0.00  0.00    +0.196 C 
ATOM     26  O   UNL     1      -4.545  -8.393   0.191  0.00  0.00    -0.346 OA
ATOM     27  C   UNL     1      -3.379  -8.192  -0.624  0.00  0.00    +0.171 C 
ATOM     28  O   UNL     1      -2.838  -6.891  -0.349  0.00  0.00    -0.342 OA
ATOM     29  C   UNL     1      -3.769  -8.288  -2.100  0.00  0.00    +0.065 C 
ATOM     30  C   UNL     1      -4.349  -9.675  -2.384  0.00  0.00    +0.005 C 
ATOM     31  C   UNL     1      -3.302 -10.742  -2.058  0.00  0.00    +0.000 C 
ATOM     32  C   UNL     1      -2.918 -10.646  -0.580  0.00  0.00    +0.005 C 
ATOM     33  C   UNL     1      -2.337  -9.260  -0.293  0.00  0.00    +0.065 C 
ENDBRANCH  23  24
ENDBRANCH  21  23
ENDBRANCH   2  19
TORSDOF 5
