REMARK  Name = ZINC48341086
REMARK  18 active torsions:
REMARK  status: ('A' for Active; 'I' for Inactive)
REMARK    1  A    between atoms: C_1  and  C_2
REMARK    2  A    between atoms: C_2  and  C_3
REMARK    3  A    between atoms: C_3  and  C_4
REMARK    4  A    between atoms: C_4  and  C_5
REMARK    5  A    between atoms: C_5  and  N_6
REMARK    6  A    between atoms: N_6  and  C_7
REMARK    7  A    between atoms: N_6  and  C_30
REMARK    8  A    between atoms: C_7  and  C_8
REMARK    9  A    between atoms: N_10  and  C_11
REMARK   10  A    between atoms: N_10  and  C_13
REMARK   11  A    between atoms: C_11  and  C_12
REMARK   12  A    between atoms: C_14  and  N_29
REMARK   13  A    between atoms: N_15  and  C_22
REMARK   14  A    between atoms: C_22  and  C_23
REMARK   15  A    between atoms: C_30  and  C_32
REMARK   16  A    between atoms: C_30  and  C_33
REMARK   17  A    between atoms: C_33  and  C_34
REMARK   18  A    between atoms: C_34  and  C_35
REMARK                            x       y       z     vdW  Elec       q    Type
REMARK                         _______ _______ _______ _____ _____    ______ ____
ROOT
ATOM      1  C   UNL     1       2.357  -7.067   6.370  0.00  0.00    +0.140 A 
ATOM      2  C   UNL     1       3.491  -7.386   7.087  0.00  0.00    +0.128 A 
ATOM      3  N   UNL     1       3.754  -8.705   7.377  0.00  0.00    -0.276 N 
ATOM      4  C   UNL     1       2.915  -9.672   6.965  0.00  0.00    +0.331 A 
ATOM      5  O   UNL     1       3.165 -10.832   7.231  0.00  0.00    -0.246 OA
ATOM      6  N   UNL     1       1.804  -9.380   6.265  0.00  0.00    -0.273 N 
ATOM      7  H   UNL     1       1.215 -10.096   5.980  0.00  0.00    +0.173 HD
ATOM      8  C   UNL     1       1.498  -8.104   5.960  0.00  0.00    +0.277 A 
ATOM      9  O   UNL     1       0.486  -7.850   5.329  0.00  0.00    -0.266 OA
ENDROOT
BRANCH   1  12
ATOM     10  C   UNL     1       2.016  -5.324   4.770  0.00  0.00    +0.203 C 
ATOM     11  O   UNL     1       2.143  -6.136   3.878  0.00  0.00    -0.277 OA
ATOM     12  N   UNL     1       2.059  -5.723   6.058  0.00  0.00    -0.266 N 
BRANCH  12  13
ATOM     13  C   UNL     1       1.798  -4.762   7.132  0.00  0.00    +0.110 C 
ATOM     14  C   UNL     1       0.316  -4.810   7.509  0.00  0.00    +0.025 C 
ENDBRANCH  12  13
BRANCH  10  15
ATOM     15  C   UNL     1       1.808  -3.868   4.439  0.00  0.00    +0.019 C 
BRANCH  15  16
ATOM     16  N   UNL     1       1.620  -3.717   2.990  0.00  0.00    +0.387 N 
ATOM     17  H   UNL     1       2.185  -4.397   2.505  0.00  0.00    -0.081 HD
BRANCH  16  18
ATOM     18  C   UNL     1       0.205  -3.929   2.656  0.00  0.00    -0.071 C 
ATOM     19  C   UNL     1      -0.666  -3.015   3.521  0.00  0.00    -0.013 C 
BRANCH  18  20
ATOM     20  C   UNL     1      -0.168  -5.389   2.920  0.00  0.00    -0.016 C 
BRANCH  20  21
ATOM     21  C   UNL     1       0.560  -6.290   1.921  0.00  0.00    -0.005 C 
ATOM     22  C   UNL     1       0.237  -7.754   2.225  0.00  0.00    +0.004 C 
ENDBRANCH  20  21
ENDBRANCH  18  20
ENDBRANCH  16  18
BRANCH  16  23
ATOM     23  C   UNL     1       2.022  -2.364   2.583  0.00  0.00    -0.078 C 
BRANCH  23  24
ATOM     24  C   UNL     1       1.968  -2.254   1.058  0.00  0.00    -0.019 C 
BRANCH  24  25
ATOM     25  C   UNL     1       2.514  -0.892   0.625  0.00  0.00    -0.002 C 
BRANCH  25  27
ATOM     26  C   UNL     1       2.777   0.676  -1.303  0.00  0.00    +0.004 C 
ATOM     27  C   UNL     1       2.345  -0.732  -0.887  0.00  0.00    -0.003 C 
ENDBRANCH  25  27
ENDBRANCH  24  25
ENDBRANCH  23  24
ENDBRANCH  16  23
ENDBRANCH  15  16
ENDBRANCH  10  15
ENDBRANCH   1  12
BRANCH   2  28
ATOM     28  N   UNL     1       4.349  -6.398   7.508  0.00  0.00    -0.343 N 
ATOM     29  H   UNL     1       4.133  -5.466   7.344  0.00  0.00    +0.144 HD
ATOM     30  H   UNL     1       5.171  -6.632   7.967  0.00  0.00    +0.144 HD
ENDBRANCH   2  28
BRANCH   3  31
ATOM     31  C   UNL     1       4.955  -9.058   8.137  0.00  0.00    +0.163 C 
BRANCH  31  32
ATOM     32  C   UNL     1       4.636  -9.060   9.610  0.00  0.00    -0.028 A 
ATOM     33  C   UNL     1       4.782  -7.901  10.350  0.00  0.00    +0.005 A 
ATOM     34  C   UNL     1       4.489  -7.902  11.700  0.00  0.00    +0.000 A 
ATOM     35  C   UNL     1       4.048  -9.062  12.311  0.00  0.00    +0.000 A 
ATOM     36  C   UNL     1       3.901 -10.220  11.571  0.00  0.00    +0.000 A 
ATOM     37  C   UNL     1       4.190 -10.217  10.219  0.00  0.00    +0.005 A 
ENDBRANCH  31  32
ENDBRANCH   3  31
TORSDOF 14
