REMARK  Name = ZINC65528793
REMARK  6 active torsions:
REMARK  status: ('A' for Active; 'I' for Inactive)
REMARK    1  A    between atoms: C_1  and  C_2
REMARK    2  A    between atoms: C_5  and  O_8
REMARK    3  A    between atoms: O_8  and  C_9
REMARK    4  A    between atoms: C_9  and  C_15
REMARK    5  A    between atoms: N_17  and  C_18
REMARK    6  A    between atoms: C_27  and  O_29
REMARK                            x       y       z     vdW  Elec       q    Type
REMARK                         _______ _______ _______ _____ _____    ______ ____
ROOT
ATOM      1  C   UNL     1       0.184  -4.786   1.244  0.00  0.00    +0.182 C 
ATOM      2  C   UNL     1      -1.034  -4.670   2.165  0.00  0.00    +0.038 C 
ATOM      3  C   UNL     1      -0.823  -5.558   3.394  0.00  0.00    -0.078 C 
ATOM      4  N   UNL     1      -0.659  -6.954   2.971  0.00  0.00    +0.379 N 
ATOM      5  C   UNL     1       0.547  -7.085   2.145  0.00  0.00    -0.078 C 
ATOM      6  C   UNL     1       0.390  -6.256   0.869  0.00  0.00    +0.038 C 
ATOM      7  H   UNL     1      -0.574  -7.543   3.785  0.00  0.00    -0.086 HD
ATOM      8  H   UNL     1      -1.465  -7.239   2.435  0.00  0.00    -0.086 HD
ENDROOT
BRANCH   1   9
ATOM      9  C   UNL     1       1.408  -4.271   1.956  0.00  0.00    +0.257 C 
ATOM     10  O   UNL     1       1.435  -4.237   3.168  0.00  0.00    -0.271 OA
ATOM     11  N   UNL     1       2.473  -3.849   1.246  0.00  0.00    -0.303 N 
ATOM     12  H   UNL     1       2.480  -3.942   0.281  0.00  0.00    +0.150 HD
BRANCH  11  13
ATOM     13  C   UNL     1       3.620  -3.250   1.933  0.00  0.00    +0.132 C 
ATOM     14  C   UNL     1       3.413  -1.760   2.100  0.00  0.00    -0.022 A 
ATOM     15  C   UNL     1       2.641  -1.058   3.010  0.00  0.00    +0.006 A 
ATOM     16  C   UNL     1       2.604   0.322   2.972  0.00  0.00    +0.000 A 
ATOM     17  C   UNL     1       3.340   1.006   2.022  0.00  0.00    +0.000 A 
ATOM     18  C   UNL     1       4.111   0.307   1.113  0.00  0.00    +0.004 A 
ATOM     19  C   UNL     1       4.149  -1.077   1.150  0.00  0.00    -0.040 A 
ATOM     20  C   UNL     1       4.901  -2.061   0.280  0.00  0.00    +0.069 C 
ATOM     21  C   UNL     1       4.893  -3.389   1.071  0.00  0.00    +0.143 C 
BRANCH  21  22
ATOM     22  O   UNL     1       4.788  -4.508   0.188  0.00  0.00    -0.389 OA
ATOM     23  H   UNL     1       5.564  -4.638  -0.376  0.00  0.00    +0.210 HD
ENDBRANCH  21  22
ENDBRANCH  11  13
ENDBRANCH   1   9
BRANCH   1  24
ATOM     24  O   UNL     1      -0.038  -4.018   0.059  0.00  0.00    -0.477 OA
BRANCH  24  29
ATOM     25  C   UNL     1      -0.525   1.559   0.684  0.00  0.00    +0.044 C 
ATOM     26  C   UNL     1      -0.395   0.067   0.517  0.00  0.00    -0.050 A 
ATOM     27  C   UNL     1      -0.507  -0.499  -0.740  0.00  0.00    +0.007 A 
ATOM     28  C   UNL     1      -0.388  -1.867  -0.895  0.00  0.00    +0.046 A 
ATOM     29  C   UNL     1      -0.155  -2.672   0.210  0.00  0.00    +0.122 A 
ATOM     30  C   UNL     1      -0.043  -2.101   1.470  0.00  0.00    +0.046 A 
ATOM     31  C   UNL     1      -0.157  -0.733   1.619  0.00  0.00    +0.007 A 
ENDBRANCH  24  29
ENDBRANCH   1  24
TORSDOF 5
