REMARK  Name = ZINC39684572
REMARK  8 active torsions:
REMARK  status: ('A' for Active; 'I' for Inactive)
REMARK    1  A    between atoms: C_1  and  C_2
REMARK    2  A    between atoms: C_2  and  C_4
REMARK    3  A    between atoms: C_2  and  N_8
REMARK    4  A    between atoms: C_4  and  C_5
REMARK    5  A    between atoms: C_4  and  C_6
REMARK    6  A    between atoms: C_4  and  C_7
REMARK    7  A    between atoms: C_9  and  C_11
REMARK    8  A    between atoms: C_22  and  C_24
REMARK                            x       y       z     vdW  Elec       q    Type
REMARK                         _______ _______ _______ _____ _____    ______ ____
ROOT
ATOM      1  C   UNL     1       0.858  -1.899  -3.941  0.00  0.00    +0.100 C 
ATOM      2  C   UNL     1       1.787  -0.684  -4.160  0.00  0.00    +0.121 C 
ATOM      3  N   UNL     1       1.681  -0.387  -5.608  0.00  0.00    -0.296 N 
ATOM      4  C   UNL     1       0.248  -0.598  -5.924  0.00  0.00    +0.115 C 
ATOM      5  C   UNL     1      -0.151  -1.838  -5.100  0.00  0.00    -0.004 C 
ATOM      6  C   UNL     1      -1.569  -1.678  -4.559  0.00  0.00    -0.010 C 
ATOM      7  C   UNL     1      -2.559  -1.679  -5.727  0.00  0.00    -0.082 C 
ATOM      8  N   UNL     1      -2.438  -2.937  -6.473  0.00  0.00    +0.379 N 
ATOM      9  C   UNL     1      -1.100  -3.040  -7.068  0.00  0.00    -0.082 C 
ATOM     10  C   UNL     1      -0.048  -3.096  -5.957  0.00  0.00    -0.010 C 
ATOM     11  C   UNL     1       2.666  -0.012  -6.449  0.00  0.00    +0.249 C 
ATOM     12  O   UNL     1       2.405   0.275  -7.601  0.00  0.00    -0.270 OA
ATOM     13  H   UNL     1      -2.586  -3.714  -5.846  0.00  0.00    -0.086 HD
ATOM     14  H   UNL     1      -3.133  -2.962  -7.204  0.00  0.00    -0.086 HD
ENDROOT
BRANCH  11  15
ATOM     15  C   UNL     1       4.062   0.050  -5.970  0.00  0.00    +0.073 A 
ATOM     16  C   UNL     1       4.344   0.535  -4.691  0.00  0.00    +0.036 A 
ATOM     17  C   UNL     1       5.650   0.590  -4.250  0.00  0.00    +0.042 A 
ATOM     18  C   UNL     1       6.681   0.166  -5.072  0.00  0.00    +0.023 A 
ATOM     19  C   UNL     1       6.411  -0.316  -6.339  0.00  0.00    +0.040 A 
ATOM     20  C   UNL     1       5.106  -0.382  -6.793  0.00  0.00    +0.136 A 
ATOM     21  F   UNL     1       4.843  -0.857  -8.030  0.00  0.00    -0.205 F 
ATOM     22 CL   UNL     1       6.002   1.193  -2.660  0.00  0.00    -0.084 Cl
ENDBRANCH  11  15
BRANCH   1  24
ATOM     23  N   UNL     1      -0.219  -2.895  -1.950  0.00  0.00    -0.312 N 
ATOM     24  C   UNL     1       0.145  -1.783  -2.619  0.00  0.00    +0.218 C 
ATOM     25  O   UNL     1      -0.100  -0.689  -2.156  0.00  0.00    -0.275 OA
ATOM     26  H   UNL     1      -0.023  -3.770  -2.320  0.00  0.00    +0.149 HD
BRANCH  23  28
ATOM     27  C   UNL     1       0.117  -2.622   0.457  0.00  0.00    +0.028 C 
ATOM     28  C   UNL     1      -0.912  -2.782  -0.664  0.00  0.00    +0.075 C 
BRANCH  28  29
ATOM     29  C   UNL     1      -1.741  -4.045  -0.419  0.00  0.00    -0.020 C 
ATOM     30  C   UNL     1      -2.465  -3.927   0.924  0.00  0.00    +0.012 C 
ATOM     31  C   UNL     1      -2.770  -4.205  -1.540  0.00  0.00    +0.012 C 
ATOM     32  C   UNL     1      -0.818  -5.265  -0.396  0.00  0.00    +0.012 C 
ENDBRANCH  28  29
ENDBRANCH  23  28
ENDBRANCH   1  24
TORSDOF 4
