REMARK  Name = ZINC39687053
REMARK  9 active torsions:
REMARK  status: ('A' for Active; 'I' for Inactive)
REMARK    1  A    between atoms: C_1  and  C_2
REMARK    2  A    between atoms: C_2  and  C_3
REMARK    3  A    between atoms: C_3  and  C_5
REMARK    4  A    between atoms: C_3  and  C_11
REMARK    5  A    between atoms: C_15  and  C_24
REMARK    6  A    between atoms: N_26  and  C_27
REMARK    7  A    between atoms: C_27  and  C_29
REMARK    8  A    between atoms: C_27  and  C_30
REMARK    9  A    between atoms: C_30  and  C_31
REMARK                            x       y       z     vdW  Elec       q    Type
REMARK                         _______ _______ _______ _____ _____    ______ ____
ROOT
ATOM      1  C   UNL     1       1.812  -1.262   0.216  0.00  0.00    +0.223 C 
ATOM      2  O   UNL     1       0.762  -1.706   0.629  0.00  0.00    -0.275 OA
ATOM      3  N   UNL     1       1.879   0.009  -0.227  0.00  0.00    -0.300 N 
ATOM      4  C   UNL     1       0.771   0.984  -0.362  0.00  0.00    +0.121 C 
ATOM      5  C   UNL     1       1.379   2.331   0.087  0.00  0.00    +0.100 C 
ATOM      6  C   UNL     1       2.893   2.171  -0.132  0.00  0.00    -0.004 C 
ATOM      7  C   UNL     1       3.079   0.750  -0.684  0.00  0.00    +0.115 C 
ATOM      8  C   UNL     1       3.637   2.318   1.191  0.00  0.00    -0.010 C 
ATOM      9  C   UNL     1       5.144   2.211   0.939  0.00  0.00    -0.082 C 
ATOM     10  N   UNL     1       5.560   3.261   0.001  0.00  0.00    +0.379 N 
ATOM     11  C   UNL     1       4.910   3.058  -1.299  0.00  0.00    -0.082 C 
ATOM     12  C   UNL     1       3.393   3.200  -1.141  0.00  0.00    -0.010 C 
ATOM     13  H   UNL     1       5.297   4.163   0.370  0.00  0.00    -0.086 HD
ATOM     14  H   UNL     1       6.561   3.228  -0.117  0.00  0.00    -0.086 HD
ENDROOT
BRANCH   5  15
ATOM     15  C   UNL     1       1.082   2.582   1.543  0.00  0.00    +0.218 C 
ATOM     16  O   UNL     1       0.993   1.649   2.313  0.00  0.00    -0.275 OA
ATOM     17  N   UNL     1       0.914   3.843   1.989  0.00  0.00    -0.312 N 
ATOM     18  H   UNL     1       0.914   4.583   1.362  0.00  0.00    +0.149 HD
BRANCH  17  19
ATOM     19  C   UNL     1       0.732   4.095   3.421  0.00  0.00    +0.074 C 
ATOM     20  C   UNL     1       2.099   4.231   4.093  0.00  0.00    +0.028 C 
BRANCH  19  21
ATOM     21  C   UNL     1      -0.062   5.389   3.613  0.00  0.00    +0.060 C 
BRANCH  21  22
ATOM     22  C   UNL     1      -1.391   5.272   2.912  0.00  0.00    -0.010 A 
ATOM     23  C   UNL     1      -1.560   5.823   1.656  0.00  0.00    +0.006 A 
ATOM     24  C   UNL     1      -2.779   5.717   1.013  0.00  0.00    +0.000 A 
ATOM     25  C   UNL     1      -3.830   5.059   1.625  0.00  0.00    +0.003 A 
ATOM     26  C   UNL     1      -3.663   4.507   2.880  0.00  0.00    +0.038 A 
ATOM     27  C   UNL     1      -2.441   4.609   3.524  0.00  0.00    +0.127 A 
ATOM     28  F   UNL     1      -2.274   4.065   4.749  0.00  0.00    -0.205 F 
ENDBRANCH  21  22
ENDBRANCH  19  21
ENDBRANCH  17  19
ENDBRANCH   5  15
BRANCH   1  29
ATOM     29  C   UNL     1       3.043  -2.132   0.199  0.00  0.00    +0.105 C 
BRANCH  29  30
ATOM     30  C   UNL     1       2.958  -3.143   1.313  0.00  0.00    -0.036 A 
ATOM     31  C   UNL     1       1.915  -4.050   1.346  0.00  0.00    +0.004 A 
ATOM     32  C   UNL     1       1.838  -4.977   2.368  0.00  0.00    +0.000 A 
ATOM     33  C   UNL     1       2.804  -4.999   3.357  0.00  0.00    +0.000 A 
ATOM     34  C   UNL     1       3.848  -4.094   3.323  0.00  0.00    +0.000 A 
ATOM     35  C   UNL     1       3.927  -3.168   2.299  0.00  0.00    +0.004 A 
ENDBRANCH  29  30
BRANCH  29  37
ATOM     36  C   UNL     1       3.339  -1.837  -2.264  0.00  0.00    +0.005 C 
ATOM     37  C   UNL     1       3.135  -2.859  -1.144  0.00  0.00    +0.014 C 
ENDBRANCH  29  37
ENDBRANCH   1  29
TORSDOF 7
