REMARK  Name = ZINC35851892
REMARK  5 active torsions:
REMARK  status: ('A' for Active; 'I' for Inactive)
REMARK    1  A    between atoms: C_1  and  C_2
REMARK    2  A    between atoms: C_5  and  C_8
REMARK    3  A    between atoms: C_8  and  C_10
REMARK    4  A    between atoms: C_12  and  C_30
REMARK    5  A    between atoms: C_33  and  N_36
REMARK                            x       y       z     vdW  Elec       q    Type
REMARK                         _______ _______ _______ _____ _____    ______ ____
ROOT
ATOM      1  C   UNL     1       0.031  -5.237   1.320  0.00  0.00    +0.103 C 
ATOM      2  C   UNL     1       1.525  -5.332   1.697  0.00  0.00    +0.050 C 
ATOM      3  C   UNL     1       1.950  -6.755   1.318  0.00  0.00    +0.077 C 
ATOM      4  C   UNL     1       3.221  -6.737   0.455  0.00  0.00    +0.090 C 
ATOM      5  S   UNL     1       2.648  -7.596  -1.073  0.00  0.00    -0.144 S 
ATOM      6  C   UNL     1       0.835  -7.403  -0.782  0.00  0.00    +0.155 C 
ATOM      7  N   UNL     1       0.802  -7.430   0.700  0.00  0.00    -0.271 NA
ATOM      8  C   UNL     1      -0.404  -6.696   1.133  0.00  0.00    +0.137 C 
ATOM      9  C   UNL     1      -0.968  -7.266   2.404  0.00  0.00    +0.004 A 
ATOM     10  C   UNL     1      -0.458  -7.444   3.670  0.00  0.00    +0.008 A 
ATOM     11  C   UNL     1      -1.241  -8.013   4.659  0.00  0.00    +0.000 A 
ATOM     12  C   UNL     1      -2.537  -8.402   4.371  0.00  0.00    +0.002 A 
ATOM     13  C   UNL     1      -3.052  -8.226   3.103  0.00  0.00    +0.023 A 
ATOM     14  C   UNL     1      -2.270  -7.654   2.102  0.00  0.00    +0.039 A 
ATOM     15  N   UNL     1      -2.559  -7.376   0.765  0.00  0.00    -0.283 N 
ATOM     16  C   UNL     1      -1.515  -6.812   0.126  0.00  0.00    +0.243 C 
ATOM     17  O   UNL     1      -1.479  -6.466  -1.036  0.00  0.00    -0.273 OA
ATOM     18  H   UNL     1      -3.412  -7.566   0.344  0.00  0.00    +0.155 HD
ENDROOT
BRANCH   2  19
ATOM     19  C   UNL     1       1.706  -5.108   3.177  0.00  0.00    -0.042 A 
ATOM     20  C   UNL     1       2.697  -5.784   3.862  0.00  0.00    +0.006 A 
ATOM     21  C   UNL     1       2.862  -5.579   5.219  0.00  0.00    +0.033 A 
ATOM     22  C   UNL     1       2.037  -4.697   5.891  0.00  0.00    +0.126 A 
ATOM     23  C   UNL     1       1.046  -4.020   5.205  0.00  0.00    +0.033 A 
ATOM     24  C   UNL     1       0.883  -4.222   3.847  0.00  0.00    +0.006 A 
BRANCH  22  25
ATOM     25  N   UNL     1       2.213  -4.478   7.344  0.00  0.00    +0.056 N 
ATOM     26  O   UNL     1       3.079  -5.071   7.944  0.00  0.00    -0.126 OA
ATOM     27  O   UNL     1       1.490  -3.707   7.931  0.00  0.00    -0.126 OA
ENDBRANCH  22  25
ENDBRANCH   2  19
BRANCH   1  28
ATOM     28  C   UNL     1      -0.142  -4.467   0.036  0.00  0.00    +0.169 C 
ATOM     29  O   UNL     1       0.768  -4.408  -0.763  0.00  0.00    -0.292 OA
BRANCH  28  34
ATOM     30  C   UNL     1      -5.116  -1.806  -1.071  0.00  0.00    +0.044 C 
ATOM     31  C   UNL     1      -3.812  -2.503  -0.781  0.00  0.00    -0.050 A 
ATOM     32  C   UNL     1      -2.775  -2.433  -1.695  0.00  0.00    +0.004 A 
ATOM     33  C   UNL     1      -1.579  -3.069  -1.437  0.00  0.00    +0.011 A 
ATOM     34  C   UNL     1      -1.415  -3.785  -0.247  0.00  0.00    +0.018 A 
ATOM     35  C   UNL     1      -2.467  -3.851   0.672  0.00  0.00    +0.011 A 
ATOM     36  C   UNL     1      -3.655  -3.205   0.402  0.00  0.00    +0.004 A 
ENDBRANCH  28  34
ENDBRANCH   1  28
TORSDOF 4
