REMARK  Name = ZINC09478752
REMARK  7 active torsions:
REMARK  status: ('A' for Active; 'I' for Inactive)
REMARK    1  A    between atoms: C_1  and  C_2
REMARK    2  A    between atoms: C_2  and  C_27
REMARK    3  A    between atoms: N_3  and  N_4
REMARK    4  A    between atoms: C_5  and  C_7
REMARK    5  A    between atoms: C_8  and  C_18
REMARK    6  A    between atoms: C_18  and  S_19
REMARK    7  A    between atoms: S_19  and  C_20
REMARK                            x       y       z     vdW  Elec       q    Type
REMARK                         _______ _______ _______ _____ _____    ______ ____
ROOT
ATOM      1  C   UNL     1      -0.308   1.994  -2.345  0.00  0.00    +0.173 A 
ATOM      2  C   UNL     1      -0.383   0.874  -3.124  0.00  0.00    +0.089 A 
ATOM      3  N   UNL     1       0.887   0.526  -3.430  0.00  0.00    -0.191 N 
ATOM      4  N   UNL     1       1.724   1.468  -2.814  0.00  0.00    -0.058 NA
ATOM      5  N   UNL     1       0.987   2.316  -2.185  0.00  0.00    -0.124 NA
ATOM      6  C   UNL     1       1.289  -0.563  -4.210  0.00  0.00    +0.240 A 
ATOM      7  C   UNL     1       2.673  -0.924  -4.532  0.00  0.00    +0.206 A 
ATOM      8  N   UNL     1       2.655  -1.994  -5.278  0.00  0.00    -0.032 NA
ATOM      9  O   UNL     1       1.301  -2.366  -5.470  0.00  0.00    -0.239 OA
ATOM     10  N   UNL     1       0.497  -1.433  -4.771  0.00  0.00    -0.027 NA
ATOM     11  N   UNL     1       3.810  -0.243  -4.113  0.00  0.00    -0.337 N 
ATOM     12  H   UNL     1       3.725   0.548  -3.557  0.00  0.00    +0.144 HD
ATOM     13  H   UNL     1       4.689  -0.558  -4.377  0.00  0.00    +0.144 HD
ENDROOT
BRANCH   1  15
ATOM     14  N   UNL     1      -1.247   3.826  -1.025  0.00  0.00    -0.201 N 
ATOM     15  C   UNL     1      -1.455   2.730  -1.781  0.00  0.00    +0.285 C 
ATOM     16  O   UNL     1      -2.589   2.347  -1.998  0.00  0.00    -0.267 OA
ATOM     17  H   UNL     1      -0.343   4.131  -0.852  0.00  0.00    +0.178 HD
BRANCH  14  20
ATOM     18  C   UNL     1      -3.284   6.299   0.877  0.00  0.00    +0.068 C 
ATOM     19  C   UNL     1      -2.144   5.642   0.141  0.00  0.00    +0.063 C 
ATOM     20  N   UNL     1      -2.337   4.525  -0.489  0.00  0.00    -0.184 NA
BRANCH  19  21
ATOM     21  C   UNL     1      -0.810   6.270   0.138  0.00  0.00    +0.000 A 
ATOM     22  C   UNL     1      -0.330   6.948   1.267  0.00  0.00    +0.029 A 
ATOM     23  C   UNL     1       0.925   7.516   1.221  0.00  0.00    +0.111 A 
ATOM     24  N   UNL     1       1.666   7.437   0.132  0.00  0.00    -0.263 NA
ATOM     25  C   UNL     1       1.252   6.813  -0.954  0.00  0.00    +0.111 A 
ATOM     26  C   UNL     1       0.011   6.211  -0.995  0.00  0.00    +0.029 A 
ENDBRANCH  19  21
ENDBRANCH  14  20
ENDBRANCH   1  15
BRANCH   2  27
ATOM     27  C   UNL     1      -1.639   0.163  -3.557  0.00  0.00    +0.132 C 
BRANCH  27  28
ATOM     28  S   UNL     1      -2.072  -1.101  -2.330  0.00  0.00    -0.119 S 
BRANCH  28  29
ATOM     29  C   UNL     1      -3.541  -1.833  -2.972  0.00  0.00    +0.008 A 
ATOM     30  C   UNL     1      -4.078  -1.379  -4.170  0.00  0.00    +0.016 A 
ATOM     31  C   UNL     1      -5.226  -1.958  -4.674  0.00  0.00    +0.021 A 
ATOM     32  C   UNL     1      -5.848  -2.982  -3.980  0.00  0.00    +0.041 A 
ATOM     33  C   UNL     1      -5.319  -3.431  -2.783  0.00  0.00    +0.021 A 
ATOM     34  C   UNL     1      -4.168  -2.860  -2.277  0.00  0.00    +0.016 A 
ATOM     35 CL   UNL     1      -7.295  -3.703  -4.613  0.00  0.00    -0.084 Cl
ENDBRANCH  28  29
ENDBRANCH  27  28
ENDBRANCH   2  27
TORSDOF 6
