REMARK  Name = ZINC43223292
REMARK  8 active torsions:
REMARK  status: ('A' for Active; 'I' for Inactive)
REMARK    1  A    between atoms: C_4  and  C_7
REMARK    2  A    between atoms: C_7  and  C_8
REMARK    3  A    between atoms: C_8  and  C_10
REMARK    4  A    between atoms: C_8  and  N_16
REMARK    5  A    between atoms: C_17  and  C_19
REMARK    6  A    between atoms: C_24  and  C_26
REMARK    7  A    between atoms: N_28  and  C_29
REMARK    8  A    between atoms: C_29  and  C_30
REMARK                            x       y       z     vdW  Elec       q    Type
REMARK                         _______ _______ _______ _____ _____    ______ ____
ROOT
ATOM      1  N   UNL     1       4.451   0.315   2.057  0.00  0.00    -0.308 N 
ATOM      2  C   UNL     1       4.378   0.412   3.400  0.00  0.00    +0.215 C 
ATOM      3  O   UNL     1       4.080  -0.559   4.062  0.00  0.00    -0.276 OA
ATOM      4  H   UNL     1       4.689   1.092   1.527  0.00  0.00    +0.149 HD
ENDROOT
BRANCH   2   5
ATOM      5  C   UNL     1       4.666   1.727   4.077  0.00  0.00    +0.068 C 
ATOM      6  C   UNL     1       3.638   2.792   3.638  0.00  0.00    -0.069 C 
ATOM      7  N   UNL     1       2.593   2.762   4.694  0.00  0.00    +0.380 N 
ATOM      8  C   UNL     1       3.356   2.593   5.958  0.00  0.00    -0.069 C 
ATOM      9  C   UNL     1       4.483   1.595   5.603  0.00  0.00    +0.068 C 
ATOM     10  H   UNL     1       2.079   3.630   4.706  0.00  0.00    -0.086 HD
ATOM     11  H   UNL     1       1.970   1.982   4.551  0.00  0.00    -0.086 HD
BRANCH   9  12
ATOM     12  C   UNL     1       5.757   1.966   6.317  0.00  0.00    +0.215 C 
ATOM     13  O   UNL     1       6.731   2.307   5.680  0.00  0.00    -0.276 OA
ATOM     14  N   UNL     1       5.814   1.919   7.663  0.00  0.00    -0.313 N 
ATOM     15  H   UNL     1       5.035   1.647   8.172  0.00  0.00    +0.149 HD
BRANCH  14  16
ATOM     16  C   UNL     1       7.053   2.280   8.357  0.00  0.00    +0.135 C 
BRANCH  16  17
ATOM     17  C   UNL     1       6.850   2.143   9.867  0.00  0.00    +0.135 C 
ATOM     18  C   UNL     1       8.109   2.636  10.611  0.00  0.00    +0.035 C 
ATOM     19  C   UNL     1       8.231   1.608  11.769  0.00  0.00    +0.031 C 
ATOM     20  C   UNL     1       7.711   0.322  11.078  0.00  0.00    +0.160 C 
ATOM     21  O   UNL     1       6.655   0.765  10.207  0.00  0.00    -0.375 OA
ENDBRANCH  16  17
ENDBRANCH  14  16
ENDBRANCH   9  12
ENDBRANCH   2   5
BRANCH   1  22
ATOM     22  C   UNL     1       4.171  -0.963   1.399  0.00  0.00    +0.107 C 
BRANCH  22  23
ATOM     23  C   UNL     1       5.422  -1.804   1.383  0.00  0.00    -0.027 A 
ATOM     24  C   UNL     1       6.648  -1.216   1.138  0.00  0.00    +0.005 A 
ATOM     25  C   UNL     1       7.795  -1.987   1.124  0.00  0.00    +0.000 A 
ATOM     26  C   UNL     1       7.715  -3.348   1.355  0.00  0.00    +0.000 A 
ATOM     27  C   UNL     1       6.489  -3.937   1.602  0.00  0.00    +0.000 A 
ATOM     28  C   UNL     1       5.343  -3.164   1.620  0.00  0.00    +0.005 A 
ENDBRANCH  22  23
BRANCH  22  29
ATOM     29  C   UNL     1       3.711  -0.707  -0.038  0.00  0.00    +0.062 C 
BRANCH  29  33
ATOM     30  C   UNL     1      -0.017   1.378   0.010  0.00  0.00    +0.000 A 
ATOM     31  C   UNL     1       1.171   2.086   0.002  0.00  0.00    +0.000 A 
ATOM     32  C   UNL     1       2.377   1.411  -0.013  0.00  0.00    +0.004 A 
ATOM     33  C   UNL     1       2.396   0.029  -0.020  0.00  0.00    -0.045 A 
ATOM     34  C   UNL     1       1.208  -0.679  -0.012  0.00  0.00    +0.004 A 
ATOM     35  C   UNL     1       0.002  -0.004   0.002  0.00  0.00    +0.000 A 
ENDBRANCH  29  33
ENDBRANCH  22  29
ENDBRANCH   1  22
TORSDOF 8
