REMARK  Name = ZINC16432944
REMARK  20 active torsions:
REMARK  status: ('A' for Active; 'I' for Inactive)
REMARK    1  A    between atoms: C_1  and  C_2
REMARK    2  A    between atoms: C_2  and  C_3
REMARK    3  A    between atoms: C_3  and  C_4
REMARK    4  A    between atoms: C_4  and  N_5
REMARK    5  A    between atoms: N_5  and  C_6
REMARK    6  A    between atoms: C_6  and  C_7
REMARK    7  A    between atoms: N_9  and  C_10
REMARK    8  A    between atoms: C_12  and  C_22
REMARK    9  A    between atoms: N_14  and  C_15
REMARK   10  A    between atoms: C_20  and  C_21
REMARK   11  A    between atoms: C_22  and  C_23
REMARK   12  A    between atoms: C_22  and  C_24
REMARK   13  A    between atoms: C_22  and  C_25
REMARK   14  A    between atoms: N_28  and  C_29
REMARK   15  A    between atoms: C_30  and  C_38
REMARK   16  A    between atoms: C_34  and  C_35
REMARK   17  A    between atoms: C_35  and  C_36
REMARK   18  A    between atoms: C_35  and  C_37
REMARK   19  A    between atoms: C_38  and  C_39
REMARK   20  A    between atoms: C_38  and  C_40
REMARK                            x       y       z     vdW  Elec       q    Type
REMARK                         _______ _______ _______ _____ _____    ______ ____
ROOT
ATOM      1  N   UNL     1       7.211  -1.034  -0.412  0.00  0.00    -0.277 N 
ATOM      2  C   UNL     1       7.805  -1.097   0.796  0.00  0.00    +0.307 C 
ATOM      3  O   UNL     1       7.243  -1.650   1.722  0.00  0.00    -0.252 OA
ATOM      4  N   UNL     1       9.023  -0.548   0.978  0.00  0.00    -0.269 N 
ATOM      5  H   UNL     1       9.445  -0.056   0.256  0.00  0.00    +0.156 HD
ENDROOT
BRANCH   4   6
ATOM      6  C   UNL     1       9.677  -0.688   2.207  0.00  0.00    +0.042 A 
ATOM      7  C   UNL     1       9.083  -0.215   3.369  0.00  0.00    -0.023 A 
ATOM      8  C   UNL     1       9.729  -0.359   4.581  0.00  0.00    +0.006 A 
ATOM      9  C   UNL     1      10.971  -0.964   4.637  0.00  0.00    +0.001 A 
ATOM     10  C   UNL     1      11.568  -1.431   3.481  0.00  0.00    +0.006 A 
ATOM     11  C   UNL     1      10.925  -1.295   2.266  0.00  0.00    -0.023 A 
BRANCH  11  12
ATOM     12  C   UNL     1      11.576  -1.805   1.006  0.00  0.00    +0.015 C 
ATOM     13  C   UNL     1      12.913  -1.090   0.798  0.00  0.00    +0.012 C 
ATOM     14  C   UNL     1      11.816  -3.311   1.129  0.00  0.00    +0.012 C 
ENDBRANCH  11  12
BRANCH   7  15
ATOM     15  C   UNL     1       7.732   0.450   3.309  0.00  0.00    +0.015 C 
ATOM     16  C   UNL     1       6.782  -0.234   4.294  0.00  0.00    +0.012 C 
ATOM     17  C   UNL     1       7.873   1.928   3.679  0.00  0.00    +0.012 C 
ENDBRANCH   7  15
ENDBRANCH   4   6
BRANCH   1  18
ATOM     18  C   UNL     1       7.888  -0.369  -1.528  0.00  0.00    +0.110 C 
BRANCH  18  19
ATOM     19  C   UNL     1       7.506   1.113  -1.546  0.00  0.00    +0.019 C 
BRANCH  19  21
ATOM     20  C   UNL     1       7.830   3.289  -2.730  0.00  0.00    +0.004 C 
ATOM     21  C   UNL     1       8.213   1.808  -2.711  0.00  0.00    -0.002 C 
ENDBRANCH  19  21
ENDBRANCH  18  19
ENDBRANCH   1  18
BRANCH   1  22
ATOM     22  C   UNL     1       5.888  -1.631  -0.610  0.00  0.00    +0.205 C 
BRANCH  22  23
ATOM     23  C   UNL     1       4.825  -0.605  -0.313  0.00  0.00    +0.236 C 
ATOM     24  O   UNL     1       5.141   0.515   0.029  0.00  0.00    -0.274 OA
ATOM     25  N   UNL     1       3.522  -0.931  -0.429  0.00  0.00    -0.269 N 
ATOM     26  H   UNL     1       3.269  -1.827  -0.703  0.00  0.00    +0.156 HD
BRANCH  25  27
ATOM     27  C   UNL     1       2.538   0.018  -0.154  0.00  0.00    +0.129 A 
ATOM     28  C   UNL     1       2.744   1.336   0.117  0.00  0.00    +0.069 A 
ATOM     29  C   UNL     1       1.498   1.930   0.332  0.00  0.00    +0.071 A 
ATOM     30  N   UNL     1       0.573   1.015   0.193  0.00  0.00    -0.169 NA
ATOM     31  N   UNL     1       1.196  -0.203  -0.109  0.00  0.00    -0.218 N 
BRANCH  31  32
ATOM     32  C   UNL     1       0.553  -1.428  -0.331  0.00  0.00    +0.070 A 
ATOM     33  C   UNL     1       0.877  -2.193  -1.444  0.00  0.00    +0.028 A 
ATOM     34  C   UNL     1       0.241  -3.399  -1.659  0.00  0.00    +0.002 A 
ATOM     35  C   UNL     1      -0.722  -3.844  -0.771  0.00  0.00    +0.000 A 
ATOM     36  C   UNL     1      -1.042  -3.087   0.341  0.00  0.00    +0.005 A 
ATOM     37  C   UNL     1      -0.410  -1.880   0.562  0.00  0.00    -0.025 A 
ATOM     38  C   UNL     1      -0.764  -1.053   1.772  0.00  0.00    +0.046 C 
ENDBRANCH  31  32
BRANCH  29  39
ATOM     39  C   UNL     1       1.258   3.380   0.663  0.00  0.00    +0.006 C 
ATOM     40  C   UNL     1       1.451   4.229  -0.595  0.00  0.00    +0.017 C 
ATOM     41  C   UNL     1      -0.170   3.556   1.184  0.00  0.00    +0.017 C 
ATOM     42  C   UNL     1       2.251   3.829   1.738  0.00  0.00    +0.017 C 
ENDBRANCH  29  39
ENDBRANCH  25  27
ENDBRANCH  22  23
ENDBRANCH   1  22
TORSDOF 11
