REMARK  Name = ZINC03654543
REMARK  4 active torsions:
REMARK  status: ('A' for Active; 'I' for Inactive)
REMARK    1  A    between atoms: C_1  and  C_2
REMARK    2  A    between atoms: C_2  and  C_34
REMARK    3  A    between atoms: C_6  and  C_22
REMARK    4  A    between atoms: C_8  and  C_20
REMARK                            x       y       z     vdW  Elec       q    Type
REMARK                         _______ _______ _______ _____ _____    ______ ____
ROOT
ATOM      1  C   UNL     1      -0.155  -1.800  -2.351  0.00  0.00    +0.011 C 
ATOM      2  C   UNL     1      -0.918  -2.072  -1.056  0.00  0.00    -0.023 C 
ATOM      3  C   UNL     1      -1.260  -0.756  -0.352  0.00  0.00    +0.058 C 
ATOM      4  C   UNL     1       0.002  -0.004   0.002  0.00  0.00    +0.025 C 
ATOM      5  C   UNL     1       1.130  -0.711   0.254  0.00  0.00    +0.025 C 
ATOM      6  C   UNL     1       2.439   0.034   0.405  0.00  0.00    +0.098 C 
ATOM      7  C   UNL     1       2.385   1.535   0.219  0.00  0.00    +0.082 C 
ATOM      8  C   UNL     1       1.143   2.120   0.003  0.00  0.00    +0.146 C 
ATOM      9  N   UNL     1      -0.017   1.368   0.010  0.00  0.00    -0.256 N 
ATOM     10  C   UNL     1      -1.231   2.049   0.063  0.00  0.00    +0.050 A 
ATOM     11  C   UNL     1      -2.411   1.463   0.490  0.00  0.00    +0.024 A 
ATOM     12  C   UNL     1      -3.616   2.115   0.302  0.00  0.00    +0.002 A 
ATOM     13  C   UNL     1      -3.647   3.408  -0.195  0.00  0.00    +0.001 A 
ATOM     14  C   UNL     1      -2.469   4.077  -0.449  0.00  0.00    +0.013 A 
ATOM     15  C   UNL     1      -1.253   3.420  -0.263  0.00  0.00    +0.036 A 
ATOM     16  C   UNL     1       0.029   4.121  -0.424  0.00  0.00    +0.127 C 
ATOM     17  N   UNL     1       1.141   3.438  -0.255  0.00  0.00    -0.215 NA
ATOM     18  N   UNL     1       0.072   5.456  -0.739  0.00  0.00    -0.343 N 
ATOM     19  C   UNL     1       1.129  -2.110   0.335  0.00  0.00    +0.162 C 
ATOM     20  O   UNL     1       2.101  -2.700   0.767  0.00  0.00    -0.292 OA
ATOM     21  C   UNL     1      -0.068  -2.916  -0.101  0.00  0.00    +0.086 C 
ATOM     22  C   UNL     1      -2.214  -2.823  -1.377  0.00  0.00    +0.011 C 
ATOM     23  H   UNL     1       0.927   5.903  -0.838  0.00  0.00    +0.144 HD
ATOM     24  H   UNL     1      -0.752   5.952  -0.862  0.00  0.00    +0.144 HD
ENDROOT
BRANCH   6  25
ATOM     25  C   UNL     1       3.402  -0.498  -0.624  0.00  0.00    -0.031 A 
ATOM     26  C   UNL     1       3.092  -0.412  -1.969  0.00  0.00    +0.008 A 
ATOM     27  C   UNL     1       3.974  -0.895  -2.917  0.00  0.00    +0.050 A 
ATOM     28  C   UNL     1       5.168  -1.477  -2.521  0.00  0.00    +0.166 A 
ATOM     29  C   UNL     1       5.478  -1.568  -1.166  0.00  0.00    +0.167 A 
ATOM     30  C   UNL     1       4.591  -1.077  -0.222  0.00  0.00    +0.054 A 
ATOM     31  O   UNL     1       6.694  -2.174  -1.037  0.00  0.00    -0.453 OA
ATOM     32  C   UNL     1       7.309  -2.083  -2.336  0.00  0.00    +0.466 C 
ATOM     33  O   UNL     1       6.190  -2.025  -3.240  0.00  0.00    -0.453 OA
ENDBRANCH   6  25
BRANCH   7  34
ATOM     34  C   UNL     1       3.578   2.326   0.265  0.00  0.00    +0.099 C 
ATOM     35  N   UNL     1       4.524   2.954   0.302  0.00  0.00    -0.191 NA
ENDBRANCH   7  34
TORSDOF 2
