REMARK  Name = ZINC54946158
REMARK  10 active torsions:
REMARK  status: ('A' for Active; 'I' for Inactive)
REMARK    1  A    between atoms: C_1  and  C_2
REMARK    2  A    between atoms: C_5  and  C_31
REMARK    3  A    between atoms: N_8  and  C_10
REMARK    4  A    between atoms: C_10  and  C_11
REMARK    5  A    between atoms: C_10  and  C_12
REMARK    6  A    between atoms: C_10  and  C_13
REMARK    7  A    between atoms: C_13  and  N_14
REMARK    8  A    between atoms: C_15  and  C_17
REMARK    9  A    between atoms: N_19  and  C_20
REMARK   10  A    between atoms: C_23  and  N_26
REMARK                            x       y       z     vdW  Elec       q    Type
REMARK                         _______ _______ _______ _____ _____    ______ ____
ROOT
ATOM      1  N   UNL     1       2.042   1.664   3.457  0.00  0.00    -0.309 N 
ATOM      2  C   UNL     1       1.541   2.460   4.422  0.00  0.00    +0.299 C 
ATOM      3  O   UNL     1       1.192   1.984   5.482  0.00  0.00    -0.265 OA
ATOM      4  H   UNL     1       2.321   2.045   2.610  0.00  0.00    +0.149 HD
ENDROOT
BRANCH   2   5
ATOM      5  C   UNL     1       1.416   3.930   4.187  0.00  0.00    +0.303 C 
ATOM      6  O   UNL     1       1.766   4.407   3.127  0.00  0.00    -0.265 OA
ATOM      7  N   UNL     1       0.915   4.726   5.152  0.00  0.00    -0.278 N 
ATOM      8  H   UNL     1       0.576   4.339   5.973  0.00  0.00    +0.155 HD
BRANCH   7   9
ATOM      9  C   UNL     1       0.885   6.112   4.968  0.00  0.00    +0.034 A 
ATOM     10  C   UNL     1       1.121   6.961   6.042  0.00  0.00    +0.025 A 
ATOM     11  C   UNL     1       1.091   8.328   5.861  0.00  0.00    +0.029 A 
ATOM     12  C   UNL     1       0.823   8.856   4.604  0.00  0.00    +0.067 A 
ATOM     13  C   UNL     1       0.587   8.008   3.530  0.00  0.00    +0.029 A 
ATOM     14  C   UNL     1       0.623   6.640   3.710  0.00  0.00    +0.025 A 
BRANCH  12  15
ATOM     15  N   UNL     1       0.791  10.246   4.420  0.00  0.00    -0.220 N 
ATOM     16  C   UNL     1       0.542  10.903   3.271  0.00  0.00    +0.225 A 
ATOM     17  N   UNL     1       0.604  12.187   3.517  0.00  0.00    -0.222 NA
ATOM     18  C   UNL     1       0.889  12.388   4.803  0.00  0.00    +0.245 A 
ATOM     19  N   UNL     1       1.007  11.230   5.399  0.00  0.00    -0.154 NA
ENDBRANCH  12  15
ENDBRANCH   7   9
ENDBRANCH   2   5
BRANCH   1  20
ATOM     20  C   UNL     1       2.164   0.222   3.688  0.00  0.00    +0.092 C 
BRANCH  20  21
ATOM     21  C   UNL     1       2.854  -0.430   2.488  0.00  0.00    -0.055 C 
ATOM     22  C   UNL     1       2.911  -1.945   2.693  0.00  0.00    -0.008 C 
ATOM     23  C   UNL     1       4.276   0.120   2.356  0.00  0.00    -0.008 C 
BRANCH  21  29
ATOM     24  C   UNL     1      -0.122   1.268   0.025  0.00  0.00    +0.005 C 
ATOM     25  C   UNL     1      -0.088  -0.255   0.164  0.00  0.00    -0.031 C 
ATOM     26  C   UNL     1       0.564  -0.868  -1.079  0.00  0.00    +0.003 C 
ATOM     27  C   UNL     1       2.016  -0.389  -1.170  0.00  0.00    -0.031 C 
ATOM     28  C   UNL     1       2.753  -0.766   0.117  0.00  0.00    -0.075 C 
ATOM     29  N   UNL     1       2.098  -0.129   1.265  0.00  0.00    +0.384 N 
ATOM     30  C   UNL     1       0.727  -0.637   1.402  0.00  0.00    -0.075 C 
ATOM     31  C   UNL     1       2.700  -1.056  -2.366  0.00  0.00    +0.005 C 
ATOM     32  H   UNL     1       2.072   0.870   1.125  0.00  0.00    -0.081 HD
ENDBRANCH  21  29
ENDBRANCH  20  21
ENDBRANCH   1  20
TORSDOF 6
