REMARK  Name = ZINC07597008
REMARK  7 active torsions:
REMARK  status: ('A' for Active; 'I' for Inactive)
REMARK    1  A    between atoms: C_1  and  C_2
REMARK    2  A    between atoms: C_5  and  C_10
REMARK    3  A    between atoms: N_8  and  C_9
REMARK    4  A    between atoms: C_10  and  C_11
REMARK    5  A    between atoms: C_10  and  C_16
REMARK    6  A    between atoms: C_19  and  C_24
REMARK    7  A    between atoms: N_20  and  C_23
REMARK                            x       y       z     vdW  Elec       q    Type
REMARK                         _______ _______ _______ _____ _____    ______ ____
ROOT
ATOM      1  C   UNL     1       0.060  -4.261   0.036  0.00  0.00    +0.104 C 
ENDROOT
BRANCH   1   6
ATOM      2  C   UNL     1       0.790   1.321  -1.204  0.00  0.00    +0.064 C 
ATOM      3  C   UNL     1       0.585  -0.138  -0.885  0.00  0.00    +0.022 A 
ATOM      4  C   UNL     1      -0.606  -0.716  -1.149  0.00  0.00    +0.072 A 
ATOM      5  C   UNL     1      -0.804  -2.080  -0.852  0.00  0.00    +0.190 A 
ATOM      6  C   UNL     1       0.235  -2.801  -0.294  0.00  0.00    +0.076 A 
ATOM      7  C   UNL     1       1.452  -2.158  -0.039  0.00  0.00    +0.259 A 
ATOM      8  O   UNL     1       2.379  -2.781   0.454  0.00  0.00    -0.267 OA
ATOM      9  N   UNL     1       1.603  -0.855  -0.341  0.00  0.00    -0.315 N 
ATOM     10  C   UNL     1       2.885  -0.197  -0.074  0.00  0.00    +0.152 C 
ATOM     11  O   UNL     1      -1.993  -2.674  -1.110  0.00  0.00    -0.287 OA
ENDBRANCH   1   6
BRANCH   1  12
ATOM     12  C   UNL     1      -1.071  -4.421   1.020  0.00  0.00    +0.076 A 
ATOM     13  C   UNL     1      -2.103  -5.304   0.763  0.00  0.00    +0.190 A 
ATOM     14  C   UNL     1      -3.145  -5.429   1.704  0.00  0.00    +0.072 A 
ATOM     15  C   UNL     1      -3.120  -4.692   2.834  0.00  0.00    +0.022 A 
ATOM     16  N   UNL     1      -2.102  -3.826   3.080  0.00  0.00    -0.315 N 
ATOM     17  C   UNL     1      -1.087  -3.682   2.209  0.00  0.00    +0.259 A 
ATOM     18  O   UNL     1      -0.179  -2.902   2.453  0.00  0.00    -0.267 OA
ATOM     19  C   UNL     1      -2.107  -3.041   4.317  0.00  0.00    +0.152 C 
ATOM     20  C   UNL     1      -4.237  -4.830   3.836  0.00  0.00    +0.064 C 
ATOM     21  O   UNL     1      -2.114  -6.037  -0.377  0.00  0.00    -0.287 OA
ENDBRANCH   1  12
BRANCH   1  22
ATOM     22  C   UNL     1       1.332  -4.795   0.642  0.00  0.00    +0.002 A 
ATOM     23  C   UNL     1       2.324  -5.508   0.054  0.00  0.00    +0.012 A 
ATOM     24  C   UNL     1       3.411  -5.896   0.814  0.00  0.00    +0.008 A 
ATOM     25  C   UNL     1       3.454  -5.553   2.124  0.00  0.00    +0.045 A 
ATOM     26  S   UNL     1       1.928  -4.647   2.318  0.00  0.00    -0.101 S 
ENDBRANCH   1  22
TORSDOF 3
