REMARK  Name = ZINC28249836
REMARK  11 active torsions:
REMARK  status: ('A' for Active; 'I' for Inactive)
REMARK    1  A    between atoms: C_1  and  C_2
REMARK    2  A    between atoms: C_5  and  N_9
REMARK    3  A    between atoms: C_6  and  C_8
REMARK    4  A    between atoms: C_10  and  C_12
REMARK    5  A    between atoms: C_14  and  C_35
REMARK    6  A    between atoms: C_16  and  C_24
REMARK    7  A    between atoms: C_18  and  C_22
REMARK    8  A    between atoms: C_18  and  O_23
REMARK    9  A    between atoms: N_26  and  C_27
REMARK   10  A    between atoms: C_30  and  C_34
REMARK   11  A    between atoms: C_32  and  C_33
REMARK                            x       y       z     vdW  Elec       q    Type
REMARK                         _______ _______ _______ _____ _____    ______ ____
ROOT
ATOM      1  C   UNL     1       3.274   1.549  -0.846  0.00  0.00    +0.149 C 
ATOM      2  C   UNL     1       2.375   1.226   0.352  0.00  0.00    +0.053 C 
ATOM      3  C   UNL     1       3.067   1.670   1.642  0.00  0.00    +0.115 C 
ATOM      4  C   UNL     1       4.355   0.870   1.841  0.00  0.00    +0.082 C 
ATOM      5  C   UNL     1       5.329   1.180   0.700  0.00  0.00    +0.110 C 
ATOM      6  C   UNL     1       4.628   0.916  -0.615  0.00  0.00    +0.148 C 
ATOM      7  O   UNL     1       5.137   0.217  -1.458  0.00  0.00    -0.296 OA
ATOM      8  C   UNL     1       4.994   1.256   3.177  0.00  0.00    +0.042 C 
ENDROOT
BRANCH   2   9
ATOM      9  C   UNL     1       1.064   1.956   0.208  0.00  0.00    -0.039 A 
ATOM     10  C   UNL     1       0.074   1.476  -0.636  0.00  0.00    +0.023 A 
ATOM     11  C   UNL     1      -1.113   2.175  -0.747  0.00  0.00    +0.111 A 
ATOM     12  N   UNL     1      -1.313   3.279  -0.053  0.00  0.00    -0.263 NA
ATOM     13  C   UNL     1      -0.394   3.764   0.758  0.00  0.00    +0.111 A 
ATOM     14  C   UNL     1       0.820   3.122   0.916  0.00  0.00    +0.023 A 
ENDBRANCH   2   9
BRANCH   1  16
ATOM     15  N   UNL     1       4.010   3.569  -2.070  0.00  0.00    -0.285 N 
ATOM     16  C   UNL     1       3.429   3.043  -0.974  0.00  0.00    +0.228 C 
ATOM     17  O   UNL     1       3.031   3.772  -0.090  0.00  0.00    -0.275 OA
ATOM     18  H   UNL     1       4.300   2.915  -2.906  0.00  0.00    +0.155 HD
BRANCH  15  23
ATOM     19  C   UNL     1       4.959   9.153  -2.377  0.00  0.00    +0.044 C 
ATOM     20  C   UNL     1       4.707   7.670  -2.295  0.00  0.00    -0.050 A 
ATOM     21  C   UNL     1       3.595   7.195  -1.625  0.00  0.00    +0.005 A 
ATOM     22  C   UNL     1       3.358   5.836  -1.553  0.00  0.00    +0.024 A 
ATOM     23  C   UNL     1       4.244   4.946  -2.146  0.00  0.00    +0.036 A 
ATOM     24  C   UNL     1       5.360   5.426  -2.818  0.00  0.00    -0.029 A 
ATOM     25  C   UNL     1       5.588   6.787  -2.891  0.00  0.00    +0.008 A 
ATOM     26  C   UNL     1       6.321   4.464  -3.468  0.00  0.00    +0.045 C 
ENDBRANCH  15  23
ENDBRANCH   1  16
BRANCH   3  27
ATOM     27  C   UNL     1       2.145   1.436   2.811  0.00  0.00    +0.224 C 
ATOM     28  O   UNL     1       1.409   0.472   2.819  0.00  0.00    -0.275 OA
ATOM     29  N   UNL     1       2.139   2.297   3.848  0.00  0.00    -0.285 N 
ATOM     30  H   UNL     1       2.751   3.211   3.807  0.00  0.00    +0.155 HD
BRANCH  29  31
ATOM     31  C   UNL     1       1.355   2.029   4.975  0.00  0.00    +0.036 A 
ATOM     32  C   UNL     1       0.209   1.254   4.858  0.00  0.00    +0.024 A 
ATOM     33  C   UNL     1      -0.562   0.991   5.973  0.00  0.00    +0.005 A 
ATOM     34  C   UNL     1      -0.194   1.499   7.205  0.00  0.00    -0.050 A 
ATOM     35  C   UNL     1       0.946   2.271   7.326  0.00  0.00    +0.008 A 
ATOM     36  C   UNL     1       1.725   2.533   6.215  0.00  0.00    -0.029 A 
ATOM     37  C   UNL     1       2.971   3.369   6.348  0.00  0.00    +0.045 C 
ATOM     38  C   UNL     1      -1.038   1.210   8.420  0.00  0.00    +0.044 C 
ENDBRANCH  29  31
ENDBRANCH   3  27
BRANCH   4  39
ATOM     39  O   UNL     1       4.053  -0.527   1.844  0.00  0.00    -0.388 OA
ATOM     40  H   UNL     1       4.858  -1.264   1.976  0.00  0.00    +0.210 HD
ENDBRANCH   4  39
TORSDOF 6
