REMARK  Name = ZINC59350361
REMARK  7 active torsions:
REMARK  status: ('A' for Active; 'I' for Inactive)
REMARK    1  A    between atoms: C_1  and  C_2
REMARK    2  A    between atoms: N_10  and  N_14
REMARK    3  A    between atoms: C_15  and  C_17
REMARK    4  A    between atoms: C_17  and  N_18
REMARK    5  A    between atoms: N_18  and  C_19
REMARK    6  A    between atoms: N_18  and  C_26
REMARK    7  A    between atoms: C_19  and  C_20
REMARK                            x       y       z     vdW  Elec       q    Type
REMARK                         _______ _______ _______ _____ _____    ______ ____
ROOT
ATOM      1  N   UNL     1       2.760  -5.660  -0.475  0.00  0.00    -0.225 N 
ATOM      2  C   UNL     1       3.283  -6.316  -1.530  0.00  0.00    +0.213 C 
ATOM      3  O   UNL     1       3.086  -5.909  -2.655  0.00  0.00    -0.276 OA
ATOM      4  H   UNL     1       2.917  -5.986   0.425  0.00  0.00    +0.173 HD
ENDROOT
BRANCH   1  14
ATOM      5  C   UNL     1      -2.054   0.559  -1.511  0.00  0.00    +0.007 C 
ATOM      6  C   UNL     1      -1.697  -0.896  -1.200  0.00  0.00    -0.014 C 
ATOM      7  C   UNL     1      -0.990  -1.517  -2.406  0.00  0.00    +0.006 C 
ATOM      8  C   UNL     1      -0.642  -2.975  -2.098  0.00  0.00    +0.035 C 
ATOM      9  C   UNL     1       0.261  -3.035  -0.871  0.00  0.00    +0.114 C 
ATOM     10  C   UNL     1      -0.423  -2.400   0.335  0.00  0.00    +0.035 C 
ATOM     11  C   UNL     1      -0.771  -0.944   0.017  0.00  0.00    +0.006 C 
ATOM     12  C   UNL     1       0.646  -4.465  -0.568  0.00  0.00    +0.263 C 
ATOM     13  O   UNL     1      -0.097  -5.380  -0.285  0.00  0.00    -0.271 OA
ATOM     14  N   UNL     1       1.990  -4.508  -0.679  0.00  0.00    -0.137 N 
ATOM     15  C   UNL     1       2.496  -3.313  -1.007  0.00  0.00    +0.326 C 
ATOM     16  O   UNL     1       3.682  -3.101  -1.164  0.00  0.00    -0.251 OA
ATOM     17  N   UNL     1       1.542  -2.371  -1.143  0.00  0.00    -0.284 N 
ATOM     18  H   UNL     1       1.676  -1.439  -1.376  0.00  0.00    +0.151 HD
ENDBRANCH   1  14
BRANCH   2  19
ATOM     19  C   UNL     1       4.111  -7.556  -1.311  0.00  0.00    +0.021 C 
BRANCH  19  20
ATOM     20  N   UNL     1       4.708  -7.978  -2.585  0.00  0.00    +0.390 N 
ATOM     21  H   UNL     1       4.051  -7.817  -3.334  0.00  0.00    -0.080 HD
BRANCH  20  22
ATOM     22  C   UNL     1       5.931  -7.204  -2.833  0.00  0.00    -0.067 C 
ATOM     23  C   UNL     1       6.928  -7.447  -1.698  0.00  0.00    -0.015 C 
ATOM     24  C   UNL     1       8.202  -6.641  -1.956  0.00  0.00    -0.002 C 
ATOM     25  C   UNL     1       7.859  -5.151  -2.023  0.00  0.00    -0.000 C 
ATOM     26  C   UNL     1       6.862  -4.908  -3.158  0.00  0.00    -0.002 C 
ATOM     27  C   UNL     1       5.588  -5.714  -2.900  0.00  0.00    -0.015 C 
ENDBRANCH  20  22
BRANCH  20  28
ATOM     28  C   UNL     1       5.037  -9.408  -2.522  0.00  0.00    -0.042 C 
BRANCH  28  29
ATOM     29  C   UNL     1       5.497  -9.878  -3.878  0.00  0.00    -0.064 A 
ATOM     30  C   UNL     1       4.568 -10.245  -4.834  0.00  0.00    +0.002 A 
ATOM     31  C   UNL     1       4.989 -10.677  -6.078  0.00  0.00    +0.000 A 
ATOM     32  C   UNL     1       6.339 -10.740  -6.367  0.00  0.00    +0.000 A 
ATOM     33  C   UNL     1       7.268 -10.371  -5.412  0.00  0.00    +0.000 A 
ATOM     34  C   UNL     1       6.847  -9.936  -4.169  0.00  0.00    +0.002 A 
ENDBRANCH  28  29
ENDBRANCH  20  28
ENDBRANCH  19  20
ENDBRANCH   2  19
TORSDOF 6
