REMARK  Name = ZINC02083872
REMARK  8 active torsions:
REMARK  status: ('A' for Active; 'I' for Inactive)
REMARK    1  A    between atoms: C_1  and  C_2
REMARK    2  A    between atoms: C_2  and  C_3
REMARK    3  A    between atoms: C_2  and  C_4
REMARK    4  A    between atoms: C_2  and  C_5
REMARK    5  A    between atoms: C_12  and  N_17
REMARK    6  A    between atoms: C_13  and  C_14
REMARK    7  A    between atoms: C_18  and  C_20
REMARK    8  A    between atoms: C_22  and  C_30
REMARK                            x       y       z     vdW  Elec       q    Type
REMARK                         _______ _______ _______ _____ _____    ______ ____
ROOT
ATOM      1  N   UNL     1      -3.720   2.157   0.168  0.00  0.00    -0.275 N 
ATOM      2  C   UNL     1      -2.581   1.448   0.046  0.00  0.00    +0.249 C 
ATOM      3  O   UNL     1      -2.627   0.237  -0.052  0.00  0.00    -0.270 OA
ATOM      4  H   UNL     1      -3.684   3.123   0.246  0.00  0.00    +0.156 HD
ENDROOT
BRANCH   2   5
ATOM      5  C   UNL     1      -1.276   2.142   0.032  0.00  0.00    +0.048 A 
ATOM      6  C   UNL     1      -1.196   3.526   0.025  0.00  0.00    +0.042 A 
ATOM      7  C   UNL     1       0.067   4.144   0.017  0.00  0.00    +0.079 A 
ATOM      8  N   UNL     1       1.190   3.450   0.010  0.00  0.00    -0.246 NA
ATOM      9  C   UNL     1       1.203   2.116   0.010  0.00  0.00    +0.072 A 
ATOM     10  C   UNL     1      -0.017   1.394   0.018  0.00  0.00    +0.013 A 
ATOM     11  C   UNL     1       0.002  -0.004   0.019  0.00  0.00    +0.011 A 
ATOM     12  C   UNL     1       1.197  -0.662   0.012  0.00  0.00    +0.001 A 
ATOM     13  C   UNL     1       2.399   0.042   0.003  0.00  0.00    +0.002 A 
ATOM     14  C   UNL     1       2.416   1.403   0.002  0.00  0.00    +0.028 A 
BRANCH   7  15
ATOM     15  C   UNL     1       0.140   5.617   0.016  0.00  0.00    +0.039 A 
ATOM     16  C   UNL     1       1.246   6.427   0.014  0.00  0.00    +0.019 A 
ATOM     17  C   UNL     1       1.066   7.791   0.010  0.00  0.00    +0.028 A 
ATOM     18  C   UNL     1      -0.199   8.293   0.018  0.00  0.00    +0.079 A 
ATOM     19  S   UNL     1      -1.190   6.808   0.025  0.00  0.00    -0.075 S 
ATOM     20 CL   UNL     1      -0.715   9.950   0.022  0.00  0.00    -0.076 Cl
ENDBRANCH   7  15
ENDBRANCH   2   5
BRANCH   1  27
ATOM     21  C   UNL     1      -9.348  -0.839   0.610  0.00  0.00    -0.000 C 
ATOM     22  C   UNL     1      -9.700   0.470  -0.103  0.00  0.00    +0.009 C 
ATOM     23  C   UNL     1      -8.795   1.596   0.399  0.00  0.00    +0.037 C 
ATOM     24  C   UNL     1      -7.343   1.147   0.283  0.00  0.00    -0.023 A 
ATOM     25  C   UNL     1      -7.028  -0.160   0.156  0.00  0.00    -0.004 A 
ATOM     26  S   UNL     1      -5.261  -0.191   0.050  0.00  0.00    -0.077 S 
ATOM     27  C   UNL     1      -4.943   1.507   0.181  0.00  0.00    +0.085 A 
ATOM     28  C   UNL     1      -6.212   2.058   0.297  0.00  0.00    +0.068 A 
ATOM     29  C   UNL     1      -7.977  -1.318   0.113  0.00  0.00    +0.046 C 
BRANCH  28  30
ATOM     30  C   UNL     1      -6.403   3.506   0.429  0.00  0.00    +0.244 C 
ATOM     31  O   UNL     1      -6.540   4.194  -0.566  0.00  0.00    -0.270 OA
ATOM     32  N   UNL     1      -6.427   4.074   1.650  0.00  0.00    -0.325 N 
ATOM     33  H   UNL     1      -6.318   3.525   2.443  0.00  0.00    +0.145 HD
ATOM     34  H   UNL     1      -6.554   5.032   1.737  0.00  0.00    +0.145 HD
ENDBRANCH  28  30
BRANCH  21  36
ATOM     35  C   UNL     1     -10.043  -3.208   0.990  0.00  0.00    +0.011 C 
ATOM     36  C   UNL     1     -10.407  -1.896   0.292  0.00  0.00    -0.035 C 
ATOM     37  C   UNL     1     -11.773  -1.416   0.788  0.00  0.00    +0.011 C 
ATOM     38  C   UNL     1     -10.465  -2.123  -1.220  0.00  0.00    +0.011 C 
ENDBRANCH  21  36
ENDBRANCH   1  27
TORSDOF 5
