REMARK  Name = ZINC39684150
REMARK  6 active torsions:
REMARK  status: ('A' for Active; 'I' for Inactive)
REMARK    1  A    between atoms: C_1  and  C_2
REMARK    2  A    between atoms: C_7  and  C_11
REMARK    3  A    between atoms: C_11  and  C_12
REMARK    4  A    between atoms: C_12  and  N_13
REMARK    5  A    between atoms: C_14  and  C_16
REMARK    6  A    between atoms: C_27  and  C_29
REMARK                            x       y       z     vdW  Elec       q    Type
REMARK                         _______ _______ _______ _____ _____    ______ ____
ROOT
ATOM      1  C   UNL     1      -8.275   1.287  -6.120  0.00  0.00    +0.100 C 
ATOM      2  C   UNL     1      -7.951   2.539  -6.965  0.00  0.00    +0.121 C 
ATOM      3  N   UNL     1      -7.700   2.016  -8.328  0.00  0.00    -0.296 N 
ATOM      4  C   UNL     1      -8.712   0.947  -8.505  0.00  0.00    +0.115 C 
ATOM      5  C   UNL     1      -8.777   0.245  -7.134  0.00  0.00    -0.004 C 
ATOM      6  C   UNL     1      -7.869  -0.981  -7.125  0.00  0.00    -0.010 C 
ATOM      7  C   UNL     1      -8.420  -2.025  -8.100  0.00  0.00    -0.082 C 
ATOM      8  N   UNL     1      -9.783  -2.398  -7.701  0.00  0.00    +0.379 N 
ATOM      9  C   UNL     1     -10.671  -1.233  -7.801  0.00  0.00    -0.082 C 
ATOM     10  C   UNL     1     -10.214  -0.155  -6.814  0.00  0.00    -0.010 C 
ATOM     11  C   UNL     1      -6.764   2.421  -9.209  0.00  0.00    +0.249 C 
ATOM     12  O   UNL     1      -6.743   1.955 -10.331  0.00  0.00    -0.270 OA
ATOM     13  H   UNL     1     -10.121  -3.130  -8.308  0.00  0.00    -0.086 HD
ATOM     14  H   UNL     1      -9.774  -2.732  -6.749  0.00  0.00    -0.086 HD
ENDROOT
BRANCH  11  15
ATOM     15  C   UNL     1      -5.763   3.432  -8.810  0.00  0.00    +0.073 A 
ATOM     16  C   UNL     1      -6.117   4.463  -7.937  0.00  0.00    +0.016 A 
ATOM     17  C   UNL     1      -5.178   5.403  -7.568  0.00  0.00    +0.002 A 
ATOM     18  C   UNL     1      -3.886   5.329  -8.060  0.00  0.00    +0.023 A 
ATOM     19  C   UNL     1      -3.526   4.312  -8.925  0.00  0.00    +0.077 A 
ATOM     20  C   UNL     1      -4.456   3.358  -9.300  0.00  0.00    +0.154 A 
ATOM     21  F   UNL     1      -4.103   2.361 -10.142  0.00  0.00    -0.203 F 
ATOM     22 CL   UNL     1      -1.903   4.229  -9.536  0.00  0.00    -0.081 Cl
ENDBRANCH  11  15
BRANCH   1  24
ATOM     23  N   UNL     1      -7.139   0.109  -4.265  0.00  0.00    -0.315 N 
ATOM     24  C   UNL     1      -7.035   0.787  -5.425  0.00  0.00    +0.218 C 
ATOM     25  O   UNL     1      -5.943   0.996  -5.909  0.00  0.00    -0.275 OA
ATOM     26  H   UNL     1      -8.013  -0.058  -3.877  0.00  0.00    +0.149 HD
BRANCH  23  27
ATOM     27  C   UNL     1      -5.933  -0.377  -3.589  0.00  0.00    +0.109 C 
BRANCH  27  28
ATOM     28  C   UNL     1      -6.328  -1.109  -2.305  0.00  0.00    +0.056 C 
BRANCH  28  35
ATOM     29  C   UNL     1      -1.126  -2.200   1.022  0.00  0.00    +0.046 C 
ATOM     30  C   UNL     1      -2.237  -1.277   0.592  0.00  0.00    -0.027 A 
ATOM     31  C   UNL     1      -2.292   0.011   1.076  0.00  0.00    +0.005 A 
ATOM     32  C   UNL     1      -3.311   0.871   0.688  0.00  0.00    +0.001 A 
ATOM     33  C   UNL     1      -4.277   0.452  -0.183  0.00  0.00    +0.010 A 
ATOM     34  C   UNL     1      -4.240  -0.849  -0.687  0.00  0.00    +0.003 A 
ATOM     35  C   UNL     1      -5.088  -1.608  -1.610  0.00  0.00    -0.021 A 
ATOM     36  C   UNL     1      -4.550  -2.833  -1.719  0.00  0.00    +0.087 A 
ATOM     37  N   UNL     1      -3.427  -2.921  -0.941  0.00  0.00    -0.360 N 
ATOM     38  C   UNL     1      -3.207  -1.722  -0.300  0.00  0.00    +0.050 A 
ATOM     39  H   UNL     1      -2.868  -3.709  -0.857  0.00  0.00    +0.165 HD
ENDBRANCH  28  35
ENDBRANCH  27  28
ENDBRANCH  23  27
ENDBRANCH   1  24
TORSDOF 5
