REMARK  Name = ZINC58915008
REMARK  13 active torsions:
REMARK  status: ('A' for Active; 'I' for Inactive)
REMARK    1  A    between atoms: C_1  and  C_2
REMARK    2  A    between atoms: C_5  and  N_8
REMARK    3  A    between atoms: C_9  and  C_38
REMARK    4  A    between atoms: C_11  and  C_14
REMARK    5  A    between atoms: C_12  and  C_13
REMARK    6  A    between atoms: N_15  and  N_16
REMARK    7  A    between atoms: C_17  and  C_19
REMARK    8  A    between atoms: C_19  and  N_20
REMARK    9  A    between atoms: N_20  and  C_21
REMARK   10  A    between atoms: N_20  and  S_29
REMARK   11  A    between atoms: C_24  and  C_28
REMARK   12  A    between atoms: C_26  and  C_27
REMARK   13  A    between atoms: S_29  and  C_32
REMARK                            x       y       z     vdW  Elec       q    Type
REMARK                         _______ _______ _______ _____ _____    ______ ____
ROOT
ATOM      1  N   UNL     1       3.432  -8.362   1.881  0.00  0.00    -0.206 N 
ATOM      2  C   UNL     1       4.717  -8.199   2.253  0.00  0.00    +0.251 C 
ATOM      3  O   UNL     1       5.152  -7.085   2.459  0.00  0.00    -0.272 OA
ATOM      4  H   UNL     1       3.084  -9.252   1.716  0.00  0.00    +0.177 HD
ENDROOT
BRANCH   1   6
ATOM      5  C   UNL     1       1.361  -7.403   1.373  0.00  0.00    +0.140 C 
ATOM      6  N   UNL     1       2.598  -7.246   1.732  0.00  0.00    -0.188 NA
BRANCH   5  10
ATOM      7  N   UNL     1      -0.272  -4.153   1.163  0.00  0.00    -0.317 N 
ATOM      8  C   UNL     1      -1.325  -4.946   0.807  0.00  0.00    +0.022 A 
ATOM      9  C   UNL     1      -0.927  -6.231   0.821  0.00  0.00    +0.032 A 
ATOM     10  C   UNL     1       0.484  -6.228   1.216  0.00  0.00    +0.016 A 
ATOM     11  C   UNL     1       0.826  -4.920   1.405  0.00  0.00    +0.030 A 
ATOM     12  C   UNL     1       2.185  -4.412   1.815  0.00  0.00    +0.064 C 
ATOM     13  C   UNL     1      -2.709  -4.460   0.458  0.00  0.00    +0.064 C 
BRANCH   7  18
ATOM     14  C   UNL     1      -0.441   1.506   1.546  0.00  0.00    +0.044 C 
ATOM     15  C   UNL     1      -0.396   0.004   1.444  0.00  0.00    -0.050 A 
ATOM     16  C   UNL     1      -0.576  -0.611   0.218  0.00  0.00    +0.005 A 
ATOM     17  C   UNL     1      -0.536  -1.988   0.122  0.00  0.00    +0.026 A 
ATOM     18  C   UNL     1      -0.313  -2.756   1.257  0.00  0.00    +0.047 A 
ATOM     19  C   UNL     1      -0.131  -2.136   2.486  0.00  0.00    +0.026 A 
ATOM     20  C   UNL     1      -0.168  -0.758   2.575  0.00  0.00    +0.005 A 
ENDBRANCH   7  18
ENDBRANCH   5  10
ENDBRANCH   1   6
BRANCH   2  21
ATOM     21  C   UNL     1       5.613  -9.400   2.413  0.00  0.00    +0.228 C 
BRANCH  21  22
ATOM     22  N   UNL     1       6.913  -8.973   2.937  0.00  0.00    -0.194 N 
BRANCH  22  23
ATOM     23  C   UNL     1       7.088  -8.795   4.311  0.00  0.00    +0.055 A 
ATOM     24  C   UNL     1       6.728  -7.593   4.909  0.00  0.00    +0.025 A 
ATOM     25  C   UNL     1       6.902  -7.421   6.268  0.00  0.00    +0.005 A 
ATOM     26  C   UNL     1       7.433  -8.442   7.034  0.00  0.00    -0.050 A 
ATOM     27  C   UNL     1       7.792  -9.639   6.442  0.00  0.00    +0.008 A 
ATOM     28  C   UNL     1       7.615  -9.821   5.084  0.00  0.00    -0.028 A 
ATOM     29  C   UNL     1       8.001 -11.128   4.441  0.00  0.00    +0.046 C 
ATOM     30  C   UNL     1       7.622  -8.250   8.517  0.00  0.00    +0.044 C 
ENDBRANCH  22  23
BRANCH  22  31
ATOM     31  S   UNL     1       8.175  -8.701   1.900  0.00  0.00    +0.075 S 
ATOM     32  O   UNL     1       9.364  -8.805   2.671  0.00  0.00    -0.150 OA
ATOM     33  O   UNL     1       7.938  -9.505   0.753  0.00  0.00    -0.150 OA
BRANCH  31  34
ATOM     34  C   UNL     1       8.062  -7.024   1.371  0.00  0.00    +0.109 A 
ATOM     35  C   UNL     1       7.329  -6.702   0.245  0.00  0.00    +0.029 A 
ATOM     36  C   UNL     1       7.240  -5.386  -0.170  0.00  0.00    +0.002 A 
ATOM     37  C   UNL     1       7.886  -4.392   0.541  0.00  0.00    +0.000 A 
ATOM     38  C   UNL     1       8.619  -4.714   1.668  0.00  0.00    +0.002 A 
ATOM     39  C   UNL     1       8.704  -6.029   2.086  0.00  0.00    +0.029 A 
ENDBRANCH  31  34
ENDBRANCH  22  31
ENDBRANCH  21  22
ENDBRANCH   2  21
TORSDOF 8
