REMARK  Name = ZINC34906229
REMARK  10 active torsions:
REMARK  status: ('A' for Active; 'I' for Inactive)
REMARK    1  A    between atoms: C_1  and  C_2
REMARK    2  A    between atoms: C_4  and  C_39
REMARK    3  A    between atoms: C_6  and  O_8
REMARK    4  A    between atoms: O_8  and  C_9
REMARK    5  A    between atoms: C_9  and  C_10
REMARK    6  A    between atoms: C_12  and  C_15
REMARK    7  A    between atoms: N_17  and  C_18
REMARK    8  A    between atoms: C_24  and  N_26
REMARK    9  A    between atoms: N_29  and  C_30
REMARK   10  A    between atoms: C_33  and  N_36
REMARK                            x       y       z     vdW  Elec       q    Type
REMARK                         _______ _______ _______ _____ _____    ______ ____
ROOT
ATOM      1  C   UNL     1       4.385  -5.112   7.634  0.00  0.00    +0.093 C 
ATOM      2  C   UNL     1       4.669  -4.239   8.857  0.00  0.00    +0.024 C 
ATOM      3  C   UNL     1       5.038  -2.826   8.400  0.00  0.00    +0.002 C 
ATOM      4  C   UNL     1       6.285  -2.886   7.515  0.00  0.00    +0.002 C 
ATOM      5  C   UNL     1       6.001  -3.760   6.292  0.00  0.00    +0.024 C 
ATOM      6  C   UNL     1       5.632  -5.172   6.749  0.00  0.00    +0.095 C 
ENDROOT
BRANCH   6   7
ATOM      7  N   UNL     1       5.360  -6.009   5.578  0.00  0.00    -0.295 N 
ATOM      8  C   UNL     1       6.375  -6.621   4.936  0.00  0.00    +0.304 C 
ATOM      9  O   UNL     1       7.516  -6.479   5.330  0.00  0.00    -0.253 OA
ATOM     10  N   UNL     1       6.125  -7.391   3.859  0.00  0.00    -0.269 N 
ATOM     11  H   UNL     1       4.449  -6.122   5.264  0.00  0.00    +0.151 HD
ATOM     12  H   UNL     1       5.209  -7.559   3.585  0.00  0.00    +0.156 HD
BRANCH  10  13
ATOM     13  C   UNL     1       7.185  -7.948   3.135  0.00  0.00    +0.035 A 
ATOM     14  C   UNL     1       7.092  -8.082   1.756  0.00  0.00    +0.025 A 
ATOM     15  C   UNL     1       8.140  -8.632   1.045  0.00  0.00    +0.034 A 
ATOM     16  C   UNL     1       9.282  -9.049   1.705  0.00  0.00    +0.126 A 
ATOM     17  C   UNL     1       9.378  -8.917   3.078  0.00  0.00    +0.034 A 
ATOM     18  C   UNL     1       8.335  -8.362   3.794  0.00  0.00    +0.025 A 
BRANCH  16  19
ATOM     19  N   UNL     1      10.404  -9.637   0.939  0.00  0.00    +0.056 N 
ATOM     20  O   UNL     1      10.321  -9.754  -0.261  0.00  0.00    -0.126 OA
ATOM     21  O   UNL     1      11.403 -10.002   1.515  0.00  0.00    -0.126 OA
ENDBRANCH  16  19
ENDBRANCH  10  13
ENDBRANCH   6   7
BRANCH   1  24
ATOM     22  C   UNL     1       2.002  -4.830   7.213  0.00  0.00    +0.263 C 
ATOM     23  O   UNL     1       1.778  -5.567   8.154  0.00  0.00    -0.269 OA
ATOM     24  N   UNL     1       3.273  -4.539   6.872  0.00  0.00    -0.305 N 
ATOM     25  H   UNL     1       3.451  -3.951   6.122  0.00  0.00    +0.149 HD
BRANCH  22  28
ATOM     26  C   UNL     1       0.041  -2.969   4.778  0.00  0.00    +0.116 A 
ATOM     27  N   UNL     1       1.084  -3.439   5.407  0.00  0.00    -0.236 NA
ATOM     28  C   UNL     1       0.883  -4.253   6.448  0.00  0.00    +0.133 A 
ATOM     29  C   UNL     1      -0.423  -4.521   6.760  0.00  0.00    +0.080 A 
ATOM     30  S   UNL     1      -1.260  -3.630   5.607  0.00  0.00    -0.076 S 
BRANCH  26  31
ATOM     31  C   UNL     1       0.013  -2.042   3.590  0.00  0.00    +0.291 C 
BRANCH  31  32
ATOM     32  O   UNL     1       0.017  -2.812   2.386  0.00  0.00    -0.485 OA
BRANCH  32  38
ATOM     33  C   UNL     1      -0.089   1.466   0.038  0.00  0.00    +0.044 C 
ATOM     34  C   UNL     1      -0.059  -0.041   0.029  0.00  0.00    -0.047 A 
ATOM     35  C   UNL     1      -0.057  -0.725  -1.172  0.00  0.00    +0.007 A 
ATOM     36  C   UNL     1      -0.029  -2.108  -1.183  0.00  0.00    -0.047 A 
ATOM     37  C   UNL     1      -0.005  -2.809   0.007  0.00  0.00    +0.049 A 
ATOM     38  C   UNL     1      -0.007  -2.125   1.214  0.00  0.00    +0.122 A 
ATOM     39  C   UNL     1      -0.029  -0.738   1.222  0.00  0.00    +0.049 A 
ATOM     40  C   UNL     1      -0.027  -2.850  -2.495  0.00  0.00    +0.044 C 
ENDBRANCH  32  38
ENDBRANCH  31  32
ENDBRANCH  26  31
ENDBRANCH  22  28
ENDBRANCH   1  24
TORSDOF 8
