REMARK  Name = ZINC19944165
REMARK  9 active torsions:
REMARK  status: ('A' for Active; 'I' for Inactive)
REMARK    1  A    between atoms: C_1  and  C_2
REMARK    2  A    between atoms: C_2  and  C_33
REMARK    3  A    between atoms: C_4  and  N_10
REMARK    4  A    between atoms: C_6  and  C_8
REMARK    5  A    between atoms: C_6  and  C_9
REMARK    6  A    between atoms: N_10  and  C_11
REMARK    7  A    between atoms: C_13  and  C_27
REMARK    8  A    between atoms: N_15  and  C_18
REMARK    9  A    between atoms: C_21  and  N_24
REMARK                            x       y       z     vdW  Elec       q    Type
REMARK                         _______ _______ _______ _____ _____    ______ ____
ROOT
ATOM      1  C   UNL     1       3.740  -0.282  -3.166  0.00  0.00    +0.083 C 
ATOM      2  C   UNL     1       4.306  -0.867  -4.282  0.00  0.00    +0.080 C 
ATOM      3  C   UNL     1       3.732  -1.941  -5.117  0.00  0.00    +0.103 C 
ATOM      4  N   UNL     1       4.595  -2.195  -6.067  0.00  0.00    -0.171 NA
ATOM      5  N   UNL     1       5.713  -1.370  -5.934  0.00  0.00    -0.156 N 
ATOM      6  C   UNL     1       5.564  -0.556  -4.872  0.00  0.00    +0.274 C 
ATOM      7  O   UNL     1       6.357   0.286  -4.486  0.00  0.00    -0.268 OA
ENDROOT
BRANCH   5   8
ATOM      8  C   UNL     1       6.825  -1.383  -6.785  0.00  0.00    +0.060 A 
ATOM      9  C   UNL     1       7.888  -0.520  -6.554  0.00  0.00    +0.028 A 
ATOM     10  C   UNL     1       8.983  -0.536  -7.395  0.00  0.00    +0.034 A 
ATOM     11  C   UNL     1       9.023  -1.410  -8.466  0.00  0.00    +0.126 A 
ATOM     12  C   UNL     1       7.966  -2.271  -8.698  0.00  0.00    +0.034 A 
ATOM     13  C   UNL     1       6.870  -2.264  -7.858  0.00  0.00    +0.028 A 
BRANCH  11  14
ATOM     14  N   UNL     1      10.198  -1.424  -9.365  0.00  0.00    +0.056 N 
ATOM     15  O   UNL     1      11.123  -0.671  -9.163  0.00  0.00    -0.126 OA
ATOM     16  O   UNL     1      10.234  -2.188 -10.301  0.00  0.00    -0.126 OA
ENDBRANCH  11  14
ENDBRANCH   5   8
BRANCH   3  17
ATOM     17  C   UNL     1       2.423  -2.606  -4.917  0.00  0.00    +0.003 A 
ATOM     18  C   UNL     1       1.290  -2.138  -5.583  0.00  0.00    +0.010 A 
ATOM     19  C   UNL     1       0.074  -2.761  -5.393  0.00  0.00    +0.001 A 
ATOM     20  C   UNL     1      -0.023  -3.849  -4.543  0.00  0.00    +0.000 A 
ATOM     21  C   UNL     1       1.097  -4.318  -3.880  0.00  0.00    +0.001 A 
ATOM     22  C   UNL     1       2.319  -3.706  -4.066  0.00  0.00    +0.010 A 
ENDBRANCH   3  17
BRANCH   1  23
ATOM     23  N   UNL     1       2.580  -0.762  -2.668  0.00  0.00    -0.346 N 
ATOM     24  H   UNL     1       2.103  -1.462  -3.140  0.00  0.00    +0.146 HD
BRANCH  23  28
ATOM     25  C   UNL     1      -0.081   1.626  -0.097  0.00  0.00    -0.010 C 
ATOM     26  C   UNL     1      -0.057   0.094  -0.077  0.00  0.00    -0.072 C 
ATOM     27  C   UNL     1       0.527  -0.429  -1.386  0.00  0.00    +0.009 C 
ATOM     28  C   UNL     1       2.041  -0.223  -1.414  0.00  0.00    +0.067 C 
ATOM     29  C   UNL     1       2.648  -0.985  -0.236  0.00  0.00    +0.009 C 
ATOM     30  C   UNL     1       2.081  -0.466   1.082  0.00  0.00    -0.072 C 
ATOM     31  N   UNL     1       0.630  -0.408   1.100  0.00  0.00    +0.386 N 
ATOM     32  C   UNL     1       2.697   0.898   1.410  0.00  0.00    -0.010 C 
ATOM     33  C   UNL     1       2.527  -1.445   2.193  0.00  0.00    -0.010 C 
ATOM     34  C   UNL     1      -1.526  -0.382  -0.004  0.00  0.00    -0.010 C 
ATOM     35  H   UNL     1       0.341   0.156   1.905  0.00  0.00    -0.084 HD
ATOM     36  H   UNL     1       0.275  -1.349   1.301  0.00  0.00    -0.084 HD
ENDBRANCH  23  28
ENDBRANCH   1  23
TORSDOF 5
