REMARK  Name = ZINC16436666
REMARK  15 active torsions:
REMARK  status: ('A' for Active; 'I' for Inactive)
REMARK    1  A    between atoms: C_1  and  C_2
REMARK    2  A    between atoms: C_5  and  N_9
REMARK    3  A    between atoms: C_6  and  C_8
REMARK    4  A    between atoms: C_10  and  N_18
REMARK    5  A    between atoms: C_12  and  C_14
REMARK    6  A    between atoms: C_14  and  C_15
REMARK    7  A    between atoms: C_14  and  C_16
REMARK    8  A    between atoms: C_14  and  C_17
REMARK    9  A    between atoms: C_19  and  C_21
REMARK   10  A    between atoms: C_21  and  N_22
REMARK   11  A    between atoms: N_22  and  C_23
REMARK   12  A    between atoms: C_23  and  C_24
REMARK   13  A    between atoms: C_24  and  O_25
REMARK   14  A    between atoms: O_25  and  C_26
REMARK   15  A    between atoms: N_29  and  C_30
REMARK                            x       y       z     vdW  Elec       q    Type
REMARK                         _______ _______ _______ _____ _____    ______ ____
ROOT
ATOM      1  N   UNL     1      -8.722   3.208   2.867  0.00  0.00    -0.269 N 
ATOM      2  C   UNL     1      -7.766   2.764   2.028  0.00  0.00    +0.236 C 
ATOM      3  O   UNL     1      -7.611   3.295   0.949  0.00  0.00    -0.274 OA
ATOM      4  H   UNL     1      -8.846   2.784   3.730  0.00  0.00    +0.156 HD
ENDROOT
BRANCH   1   6
ATOM      5  N   UNL     1     -10.605   4.757   3.185  0.00  0.00    -0.218 N 
ATOM      6  C   UNL     1      -9.534   4.279   2.494  0.00  0.00    +0.129 A 
ATOM      7  C   UNL     1      -9.397   5.042   1.375  0.00  0.00    +0.069 A 
ATOM      8  C   UNL     1     -10.414   6.001   1.382  0.00  0.00    +0.071 A 
ATOM      9  N   UNL     1     -11.134   5.834   2.462  0.00  0.00    -0.169 NA
BRANCH   5  14
ATOM     10  C   UNL     1     -12.576   2.746   8.112  0.00  0.00    +0.044 C 
ATOM     11  C   UNL     1     -12.052   3.280   6.804  0.00  0.00    -0.050 A 
ATOM     12  C   UNL     1     -11.774   2.410   5.766  0.00  0.00    +0.005 A 
ATOM     13  C   UNL     1     -11.299   2.897   4.564  0.00  0.00    +0.028 A 
ATOM     14  C   UNL     1     -11.091   4.260   4.402  0.00  0.00    +0.070 A 
ATOM     15  C   UNL     1     -11.371   5.131   5.446  0.00  0.00    -0.025 A 
ATOM     16  C   UNL     1     -11.851   4.638   6.644  0.00  0.00    +0.008 A 
ATOM     17  C   UNL     1     -11.153   6.612   5.273  0.00  0.00    +0.046 C 
ENDBRANCH   5  14
BRANCH   8  18
ATOM     18  C   UNL     1     -10.641   7.052   0.327  0.00  0.00    +0.006 C 
ATOM     19  C   UNL     1     -11.260   6.405  -0.914  0.00  0.00    +0.017 C 
ATOM     20  C   UNL     1     -11.589   8.124   0.869  0.00  0.00    +0.017 C 
ATOM     21  C   UNL     1      -9.304   7.696  -0.047  0.00  0.00    +0.017 C 
ENDBRANCH   8  18
ENDBRANCH   1   6
BRANCH   2  22
ATOM     22  C   UNL     1      -6.888   1.607   2.431  0.00  0.00    +0.205 C 
BRANCH  22  23
ATOM     23  N   UNL     1      -5.936   1.318   1.356  0.00  0.00    -0.275 N 
ATOM     24  C   UNL     1      -4.735   1.929   1.337  0.00  0.00    +0.303 C 
ATOM     25  O   UNL     1      -4.442   2.721   2.212  0.00  0.00    -0.253 OA
ATOM     26  N   UNL     1      -3.860   1.664   0.347  0.00  0.00    -0.294 N 
ATOM     27  H   UNL     1      -4.093   1.032  -0.351  0.00  0.00    +0.151 HD
BRANCH  26  28
ATOM     28  C   UNL     1      -2.554   2.328   0.327  0.00  0.00    +0.037 C 
ATOM     29  C   UNL     1      -1.759   1.853  -0.891  0.00  0.00    +0.029 C 
ATOM     30  C   UNL     1      -0.396   2.547  -0.913  0.00  0.00    -0.008 C 
ATOM     31  C   UNL     1       0.373   2.202   0.364  0.00  0.00    +0.007 C 
ATOM     32  C   UNL     1      -0.422   2.677   1.582  0.00  0.00    -0.008 C 
ATOM     33  C   UNL     1      -1.786   1.983   1.604  0.00  0.00    +0.029 C 
ATOM     34  C   UNL     1      -0.622   4.191   1.501  0.00  0.00    +0.007 C 
ATOM     35  C   UNL     1      -1.391   4.537   0.225  0.00  0.00    -0.008 C 
ATOM     36  C   UNL     1      -0.596   4.062  -0.994  0.00  0.00    +0.007 C 
ATOM     37  C   UNL     1      -2.754   3.843   0.246  0.00  0.00    +0.029 C 
ENDBRANCH  26  28
BRANCH  23  38
ATOM     38  C   UNL     1      -6.290   0.364   0.301  0.00  0.00    +0.138 C 
BRANCH  38  39
ATOM     39  C   UNL     1      -5.853  -1.042   0.718  0.00  0.00    +0.178 C 
BRANCH  39  40
ATOM     40  O   UNL     1      -6.601  -1.452   1.865  0.00  0.00    -0.381 OA
ATOM     41  C   UNL     1      -6.269  -2.759   2.338  0.00  0.00    +0.194 C 
ENDBRANCH  39  40
ENDBRANCH  38  39
ENDBRANCH  23  38
ENDBRANCH  22  23
ENDBRANCH   2  22
TORSDOF 9
