REMARK  Name = ZINC12749283
REMARK  7 active torsions:
REMARK  status: ('A' for Active; 'I' for Inactive)
REMARK    1  A    between atoms: C_10  and  C_11
REMARK    2  A    between atoms: C_11  and  N_61
REMARK    3  A    between atoms: C_17  and  C_19
REMARK    4  A    between atoms: C_19  and  C_20
REMARK    5  A    between atoms: N_22  and  C_23
REMARK    6  A    between atoms: C_23  and  C_24
REMARK    7  A    between atoms: C_24  and  C_25
REMARK                            x       y       z     vdW  Elec       q    Type
REMARK                         _______ _______ _______ _____ _____    ______ ____
ROOT
ATOM      1  C   UNL     1       3.060   2.998   2.168  0.00  0.00    -0.058 C 
ATOM      2  C   UNL     1       3.670   3.421   3.505  0.00  0.00    +0.085 C 
ATOM      3  N   UNL     1       2.837   4.441   4.135  0.00  0.00    -0.318 N 
ATOM      4  C   UNL     1       1.930   5.157   3.460  0.00  0.00    +0.200 C 
ATOM      5  O   UNL     1       1.302   6.007   4.055  0.00  0.00    -0.278 OA
ATOM      6  C   UNL     1       1.658   4.952   1.997  0.00  0.00    +0.028 C 
ATOM      7  H   UNL     1       2.945   4.607   5.084  0.00  0.00    +0.149 HD
ATOM      8  N   UNL     1       2.782   4.219   1.385  0.00  0.00    +0.391 N 
ATOM      9  H   UNL     1       3.616   4.817   1.390  0.00  0.00    -0.080 HD
ENDROOT
BRANCH   8  10
ATOM     10  C   UNL     1       2.453   3.862  -0.014  0.00  0.00    -0.041 C 
BRANCH  10  20
ATOM     11  C   UNL     1       3.902  -1.042  -0.244  0.00  0.00    +0.001 A 
ATOM     12  C   UNL     1       2.822  -0.364   0.319  0.00  0.00    +0.001 A 
ATOM     13  C   UNL     1       2.709   0.988   0.209  0.00  0.00    +0.009 A 
ATOM     14  C   UNL     1       3.695   1.714  -0.481  0.00  0.00    -0.017 A 
ATOM     15  C   UNL     1       4.793   1.025  -1.054  0.00  0.00    -0.018 A 
ATOM     16  C   UNL     1       4.875  -0.372  -0.920  0.00  0.00    +0.008 A 
ATOM     17  C   UNL     1       5.775   1.750  -1.749  0.00  0.00    +0.008 A 
ATOM     18  C   UNL     1       5.665   3.103  -1.855  0.00  0.00    +0.001 A 
ATOM     19  C   UNL     1       4.585   3.780  -1.292  0.00  0.00    +0.002 A 
ATOM     20  C   UNL     1       3.612   3.110  -0.616  0.00  0.00    -0.056 A 
ENDBRANCH  10  20
ENDBRANCH   8  10
BRANCH   6  21
ATOM     21  C   UNL     1       1.520   6.313   1.310  0.00  0.00    +0.089 C 
BRANCH  21  22
ATOM     22  C   UNL     1       2.829   7.055   1.400  0.00  0.00    +0.212 C 
ATOM     23  O   UNL     1       3.751   6.585   2.032  0.00  0.00    -0.276 OA
ATOM     24  N   UNL     1       2.975   8.241   0.776  0.00  0.00    -0.315 N 
ATOM     25  H   UNL     1       2.237   8.617   0.270  0.00  0.00    +0.149 HD
BRANCH  24  26
ATOM     26  C   UNL     1       4.247   8.963   0.863  0.00  0.00    +0.108 C 
BRANCH  26  27
ATOM     27  C   UNL     1       4.146  10.270   0.073  0.00  0.00    +0.049 C 
BRANCH  27  28
ATOM     28  C   UNL     1       5.455  11.012   0.162  0.00  0.00    -0.072 C 
ATOM     29  C   UNL     1       6.312  10.847  -0.793  0.00  0.00    -0.028 C 
ATOM     30  C   UNL     1       7.658  11.510  -0.839  0.00  0.00    +0.027 C 
ATOM     31  C   UNL     1       7.697  12.692   0.133  0.00  0.00    +0.004 C 
ATOM     32  C   UNL     1       7.172  12.218   1.494  0.00  0.00    +0.005 C 
ATOM     33  C   UNL     1       5.680  11.901   1.350  0.00  0.00    +0.030 C 
ENDBRANCH  27  28
ENDBRANCH  26  27
ENDBRANCH  24  26
ENDBRANCH  21  22
ENDBRANCH   6  21
TORSDOF 7
