REMARK  Name = ZINC24242386
REMARK  9 active torsions:
REMARK  status: ('A' for Active; 'I' for Inactive)
REMARK    1  A    between atoms: C_3  and  N_26
REMARK    2  A    between atoms: C_5  and  O_7
REMARK    3  A    between atoms: O_7  and  C_8
REMARK    4  A    between atoms: C_8  and  C_9
REMARK    5  A    between atoms: C_9  and  C_11
REMARK    6  A    between atoms: C_9  and  O_25
REMARK    7  A    between atoms: C_11  and  N_12
REMARK    8  A    between atoms: C_19  and  S_21
REMARK    9  A    between atoms: S_21  and  N_24
REMARK                            x       y       z     vdW  Elec       q    Type
REMARK                         _______ _______ _______ _____ _____    ______ ____
ROOT
ATOM      1  C   UNL     1       2.293   8.133  -0.129  0.00  0.00    +0.139 C 
ENDROOT
BRANCH   1   2
ATOM      2  N   UNL     1       2.022   9.572  -0.256  0.00  0.00    -0.327 N 
ATOM      3  C   UNL     1       1.075   9.837  -1.361  0.00  0.00    +0.110 C 
ATOM      4  C   UNL     1       1.515  11.234  -1.856  0.00  0.00    +0.056 C 
ATOM      5  C   UNL     1       2.975  11.289  -1.451  0.00  0.00    -0.023 A 
ATOM      6  C   UNL     1       3.199  10.284  -0.517  0.00  0.00    +0.033 A 
ATOM      7  C   UNL     1       4.479  10.119   0.007  0.00  0.00    +0.025 A 
ATOM      8  C   UNL     1       5.505  10.950  -0.393  0.00  0.00    +0.030 A 
ATOM      9  C   UNL     1       5.271  11.950  -1.319  0.00  0.00    +0.105 A 
ATOM     10  C   UNL     1       4.003  12.117  -1.847  0.00  0.00    +0.034 A 
BRANCH   9  11
ATOM     11  S   UNL     1       6.585  13.010  -1.824  0.00  0.00    +0.056 S 
ATOM     12  O   UNL     1       7.793  12.299  -1.592  0.00  0.00    -0.153 OA
ATOM     13  O   UNL     1       6.231  13.513  -3.105  0.00  0.00    -0.153 OA
BRANCH  11  14
ATOM     14  N   UNL     1       6.593  14.306  -0.793  0.00  0.00    -0.204 NA
ATOM     15  H   UNL     1       7.403  14.995  -1.077  0.00  0.00    +0.144 HD
ATOM     16  H   UNL     1       6.754  13.954   0.236  0.00  0.00    +0.144 HD
ENDBRANCH  11  14
ENDBRANCH   9  11
ENDBRANCH   1   2
BRANCH   1  17
ATOM     17  C   UNL     1       1.014   7.408   0.291  0.00  0.00    +0.169 C 
BRANCH  17  18
ATOM     18  O   UNL     1       0.601   7.876   1.576  0.00  0.00    -0.387 OA
ATOM     19  H   UNL     1       0.363   8.940   1.724  0.00  0.00    +0.210 HD
ENDBRANCH  17  18
BRANCH  17  20
ATOM     20  C   UNL     1       1.280   5.903   0.358  0.00  0.00    +0.261 C 
BRANCH  20  21
ATOM     21  O   UNL     1       0.058   5.215   0.637  0.00  0.00    -0.489 OA
BRANCH  21  26
ATOM     22  C   UNL     1       1.392   1.830   0.652  0.00  0.00    +0.006 A 
ATOM     23  C   UNL     1       0.246   1.103   0.919  0.00  0.00    +0.033 A 
ATOM     24  C   UNL     1      -0.964   1.752   1.086  0.00  0.00    +0.130 A 
ATOM     25  C   UNL     1      -1.028   3.130   0.998  0.00  0.00    +0.078 A 
ATOM     26  C   UNL     1       0.120   3.861   0.730  0.00  0.00    +0.123 A 
ATOM     27  C   UNL     1       1.332   3.207   0.557  0.00  0.00    +0.046 A 
BRANCH  24  28
ATOM     28  N   UNL     1      -2.189   0.971   1.365  0.00  0.00    +0.057 N 
ATOM     29  O   UNL     1      -2.132  -0.243   1.447  0.00  0.00    -0.126 OA
ATOM     30  O   UNL     1      -3.255   1.542   1.512  0.00  0.00    -0.126 OA
ENDBRANCH  24  28
ENDBRANCH  21  26
ENDBRANCH  20  21
ENDBRANCH  17  20
ENDBRANCH   1  17
TORSDOF 9
