REMARK  Name = ZINC33916242
REMARK  7 active torsions:
REMARK  status: ('A' for Active; 'I' for Inactive)
REMARK    1  A    between atoms: C_1  and  C_2
REMARK    2  A    between atoms: C_2  and  C_3
REMARK    3  A    between atoms: C_6  and  N_9
REMARK    4  A    between atoms: C_14  and  C_32
REMARK    5  A    between atoms: C_17  and  C_22
REMARK    6  A    between atoms: C_17  and  C_29
REMARK    7  A    between atoms: C_22  and  C_23
REMARK                            x       y       z     vdW  Elec       q    Type
REMARK                         _______ _______ _______ _____ _____    ______ ____
ROOT
ATOM      1  N   UNL     1       2.465  -1.966  -4.824  0.00  0.00    -0.210 N 
ATOM      2  C   UNL     1       1.935  -2.203  -6.068  0.00  0.00    +0.229 C 
ATOM      3  O   UNL     1       0.825  -1.919  -6.465  0.00  0.00    -0.275 OA
ATOM      4  C   UNL     1       2.989  -2.862  -6.798  0.00  0.00    +0.080 C 
ATOM      5  C   UNL     1       3.413  -3.139  -8.181  0.00  0.00    +0.010 C 
ATOM      6  N   UNL     1       4.798  -3.690  -7.981  0.00  0.00    +0.398 N 
ATOM      7  C   UNL     1       5.302  -3.194  -6.666  0.00  0.00    +0.048 C 
ATOM      8  C   UNL     1       4.272  -2.144  -6.220  0.00  0.00    +0.086 C 
ATOM      9  C   UNL     1       3.820  -2.139  -4.786  0.00  0.00    +0.229 C 
ATOM     10  O   UNL     1       4.514  -2.265  -3.800  0.00  0.00    -0.275 OA
ATOM     11  H   UNL     1       4.767  -4.699  -7.977  0.00  0.00    -0.083 HD
ATOM     12  H   UNL     1       5.403  -3.369  -8.722  0.00  0.00    -0.083 HD
ENDROOT
BRANCH   5  13
ATOM     13  C   UNL     1       3.450  -1.873  -8.996  0.00  0.00    +0.093 A 
ATOM     14  C   UNL     1       2.491  -1.479  -9.845  0.00  0.00    +0.051 A 
ATOM     15  C   UNL     1       2.944  -0.203 -10.411  0.00  0.00    +0.020 A 
ATOM     16  C   UNL     1       2.413   0.698 -11.333  0.00  0.00    +0.011 A 
ATOM     17  C   UNL     1       3.110   1.830 -11.653  0.00  0.00    +0.001 A 
ATOM     18  C   UNL     1       4.341   2.087 -11.067  0.00  0.00    +0.004 A 
ATOM     19  C   UNL     1       4.882   1.207 -10.153  0.00  0.00    +0.047 A 
ATOM     20  C   UNL     1       4.189   0.051  -9.813  0.00  0.00    +0.135 A 
ATOM     21  O   UNL     1       4.446  -0.971  -8.973  0.00  0.00    -0.461 OA
ENDBRANCH   5  13
BRANCH   1  25
ATOM     22  C   UNL     1       0.190  -0.824  -1.522  0.00  0.00    -0.048 A 
ATOM     23  C   UNL     1      -0.425  -1.048  -2.740  0.00  0.00    +0.005 A 
ATOM     24  C   UNL     1       0.326  -1.427  -3.836  0.00  0.00    +0.024 A 
ATOM     25  C   UNL     1       1.700  -1.581  -3.714  0.00  0.00    +0.044 A 
ATOM     26  C   UNL     1       2.315  -1.355  -2.490  0.00  0.00    +0.024 A 
ATOM     27  C   UNL     1       1.559  -0.972  -1.399  0.00  0.00    +0.005 A 
BRANCH  22  29
ATOM     28  C   UNL     1      -0.729   1.115  -0.279  0.00  0.00    +0.009 C 
ATOM     29  C   UNL     1      -0.633  -0.412  -0.329  0.00  0.00    +0.032 C 
ENDBRANCH  22  29
ENDBRANCH   1  25
BRANCH   7  30
ATOM     30  C   UNL     1       6.651  -2.545  -6.835  0.00  0.00    +0.346 C 
ATOM     31  O   UNL     1       7.133  -2.422  -7.948  0.00  0.00    -0.248 OA
ATOM     32  O   UNL     1       7.261  -2.142  -5.859  0.00  0.00    -0.248 OA
ENDBRANCH   7  30
BRANCH   7  33
ATOM     33  C   UNL     1       5.389  -4.346  -5.663  0.00  0.00    +0.003 C 
BRANCH  33  34
ATOM     34  C   UNL     1       6.212  -5.486  -6.266  0.00  0.00    -0.012 C 
ATOM     35  C   UNL     1       6.131  -6.711  -5.354  0.00  0.00    +0.003 C 
ATOM     36  C   UNL     1       6.954  -7.851  -5.957  0.00  0.00    +0.000 C 
ATOM     37  C   UNL     1       8.413  -7.411  -6.092  0.00  0.00    +0.000 C 
ATOM     38  C   UNL     1       8.493  -6.186  -7.004  0.00  0.00    +0.000 C 
ATOM     39  C   UNL     1       7.671  -5.046  -6.401  0.00  0.00    +0.003 C 
ENDBRANCH  33  34
ENDBRANCH   7  33
TORSDOF 6
