REMARK  Name = ZINC36492779
REMARK  14 active torsions:
REMARK  status: ('A' for Active; 'I' for Inactive)
REMARK    1  A    between atoms: C_1  and  C_2
REMARK    2  A    between atoms: C_2  and  C_3
REMARK    3  A    between atoms: C_2  and  C_4
REMARK    4  A    between atoms: C_2  and  C_5
REMARK    5  A    between atoms: C_5  and  C_6
REMARK    6  A    between atoms: C_6  and  C_7
REMARK    7  A    between atoms: C_6  and  C_8
REMARK    8  A    between atoms: C_6  and  N_9
REMARK    9  A    between atoms: C_10  and  C_12
REMARK   10  A    between atoms: C_12  and  C_14
REMARK   11  A    between atoms: C_12  and  N_23
REMARK   12  A    between atoms: N_23  and  C_24
REMARK   13  A    between atoms: C_30  and  C_32
REMARK   14  A    between atoms: C_35  and  N_38
REMARK                            x       y       z     vdW  Elec       q    Type
REMARK                         _______ _______ _______ _____ _____    ______ ____
ROOT
ATOM      1  C   UNL     1       5.235  -0.245  -4.405  0.00  0.00    +0.193 C 
ENDROOT
BRANCH   1   2
ATOM      2  C   UNL     1       4.946  -1.699  -4.674  0.00  0.00    -0.015 A 
ATOM      3  C   UNL     1       4.254  -2.449  -3.741  0.00  0.00    +0.010 A 
ATOM      4  C   UNL     1       3.986  -3.783  -3.984  0.00  0.00    +0.050 A 
ATOM      5  C   UNL     1       4.410  -4.372  -5.164  0.00  0.00    +0.166 A 
ATOM      6  C   UNL     1       5.107  -3.616  -6.104  0.00  0.00    +0.167 A 
ATOM      7  C   UNL     1       5.367  -2.278  -5.857  0.00  0.00    +0.055 A 
ATOM      8  O   UNL     1       5.411  -4.416  -7.168  0.00  0.00    -0.453 OA
ATOM      9  C   UNL     1       5.253  -5.766  -6.692  0.00  0.00    +0.466 C 
ATOM     10  O   UNL     1       4.278  -5.645  -5.639  0.00  0.00    -0.453 OA
ENDBRANCH   1   2
BRANCH   1  12
ATOM     11  N   UNL     1       3.498  -0.088  -2.651  0.00  0.00    -0.308 N 
ATOM     12  C   UNL     1       4.781   0.108  -3.012  0.00  0.00    +0.239 C 
ATOM     13  O   UNL     1       5.571   0.569  -2.215  0.00  0.00    -0.273 OA
ATOM     14  H   UNL     1       2.866  -0.457  -3.288  0.00  0.00    +0.149 HD
BRANCH  11  15
ATOM     15  C   UNL     1       3.057   0.254  -1.296  0.00  0.00    +0.030 C 
ATOM     16  C   UNL     1       3.647   1.608  -0.895  0.00  0.00    +0.031 C 
ATOM     17  C   UNL     1       3.534  -0.820  -0.318  0.00  0.00    +0.031 C 
BRANCH  15  18
ATOM     18  C   UNL     1       1.529   0.334  -1.262  0.00  0.00    +0.031 C 
BRANCH  18  20
ATOM     19  C   UNL     1       0.971   0.147  -3.690  0.00  0.00    +0.010 C 
ATOM     20  C   UNL     1       1.030   1.096  -2.491  0.00  0.00    -0.036 C 
ATOM     21  C   UNL     1       1.988   2.248  -2.800  0.00  0.00    +0.010 C 
ATOM     22  C   UNL     1      -0.367   1.654  -2.213  0.00  0.00    +0.010 C 
ENDBRANCH  18  20
ENDBRANCH  15  18
ENDBRANCH  11  15
ENDBRANCH   1  12
BRANCH   1  23
ATOM     23  N   UNL     1       6.674  -0.002  -4.526  0.00  0.00    -0.279 N 
ATOM     24  C   UNL     1       7.133   0.909  -5.407  0.00  0.00    +0.248 C 
ATOM     25  O   UNL     1       6.372   1.418  -6.206  0.00  0.00    -0.270 OA
BRANCH  23  26
ATOM     26  C   UNL     1       7.616  -0.751  -3.689  0.00  0.00    +0.077 C 
ATOM     27  C   UNL     1       6.913  -1.976  -3.101  0.00  0.00    +0.022 C 
ATOM     28  C   UNL     1       7.896  -2.758  -2.228  0.00  0.00    +0.002 C 
ATOM     29  C   UNL     1       8.394  -1.861  -1.092  0.00  0.00    +0.000 C 
ATOM     30  C   UNL     1       9.097  -0.636  -1.680  0.00  0.00    +0.002 C 
ATOM     31  C   UNL     1       8.113   0.146  -2.554  0.00  0.00    +0.022 C 
ENDBRANCH  23  26
BRANCH  24  32
ATOM     32  C   UNL     1       8.562   1.289  -5.401  0.00  0.00    +0.037 A 
ATOM     33  C   UNL     1       9.451   0.658  -4.530  0.00  0.00    +0.015 A 
ATOM     34  C   UNL     1      10.783   1.017  -4.530  0.00  0.00    +0.033 A 
ATOM     35  C   UNL     1      11.238   2.001  -5.390  0.00  0.00    +0.126 A 
ATOM     36  C   UNL     1      10.361   2.631  -6.255  0.00  0.00    +0.033 A 
ATOM     37  C   UNL     1       9.028   2.277  -6.270  0.00  0.00    +0.015 A 
BRANCH  35  38
ATOM     38  N   UNL     1      12.668   2.381  -5.384  0.00  0.00    +0.056 N 
ATOM     39  O   UNL     1      13.437   1.833  -4.629  0.00  0.00    -0.126 OA
ATOM     40  O   UNL     1      13.068   3.240  -6.135  0.00  0.00    -0.126 OA
ENDBRANCH  35  38
ENDBRANCH  24  32
ENDBRANCH   1  23
TORSDOF 9
