REMARK  Name = ZINC09092412
REMARK  7 active torsions:
REMARK  status: ('A' for Active; 'I' for Inactive)
REMARK    1  A    between atoms: C_1  and  C_2
REMARK    2  A    between atoms: C_5  and  N_9
REMARK    3  A    between atoms: C_10  and  C_12
REMARK    4  A    between atoms: C_12  and  S_13
REMARK    5  A    between atoms: S_13  and  C_14
REMARK    6  A    between atoms: C_17  and  C_20
REMARK    7  A    between atoms: N_18  and  N_19
REMARK                            x       y       z     vdW  Elec       q    Type
REMARK                         _______ _______ _______ _____ _____    ______ ____
ROOT
ATOM      1  C   UNL     1       1.903  -4.229  -0.047  0.00  0.00    +0.209 A 
ATOM      2  N   UNL     1       0.598  -4.171   0.090  0.00  0.00    -0.121 NA
ATOM      3  N   UNL     1       0.214  -2.946   0.152  0.00  0.00    -0.127 NA
ATOM      4  C   UNL     1       1.250  -2.146   0.049  0.00  0.00    +0.183 A 
ATOM      5  N   UNL     1       2.364  -2.943  -0.077  0.00  0.00    -0.224 N 
ENDROOT
BRANCH   4   6
ATOM      6  C   UNL     1       1.225  -0.668   0.072  0.00  0.00    +0.035 A 
ATOM      7  C   UNL     1       2.041   0.060  -0.795  0.00  0.00    +0.013 A 
ATOM      8  C   UNL     1       2.013   1.439  -0.768  0.00  0.00    +0.001 A 
ATOM      9  C   UNL     1       1.178   2.101   0.115  0.00  0.00    +0.001 A 
ATOM     10  C   UNL     1       0.367   1.386   0.977  0.00  0.00    +0.016 A 
ATOM     11  C   UNL     1       0.385   0.005   0.961  0.00  0.00    +0.029 A 
ATOM     12 BR   UNL     1      -0.726  -0.971   2.140  0.00  0.00    -0.050 Br
ENDBRANCH   4   6
BRANCH   5  13
ATOM     13  N   UNL     1       3.661  -2.534  -0.206  0.00  0.00    -0.295 N 
ATOM     14  H   UNL     1       4.126  -2.518   0.690  0.00  0.00    +0.163 HD
ATOM     15  H   UNL     1       4.161  -3.117  -0.861  0.00  0.00    +0.163 HD
ENDBRANCH   5  13
BRANCH   1  16
ATOM     16  S   UNL     1       2.878  -5.692  -0.168  0.00  0.00    -0.075 S 
BRANCH  16  17
ATOM     17  C   UNL     1       1.578  -6.946  -0.050  0.00  0.00    +0.173 C 
BRANCH  17  19
ATOM     18  N   UNL     1       1.414  -9.414  -0.066  0.00  0.00    -0.284 N 
ATOM     19  C   UNL     1       2.196  -8.318  -0.132  0.00  0.00    +0.228 C 
ATOM     20  O   UNL     1       3.396  -8.437  -0.258  0.00  0.00    -0.275 OA
ATOM     21  H   UNL     1       0.448  -9.320  -0.050  0.00  0.00    +0.155 HD
BRANCH  18  26
ATOM     22  C   UNL     1       3.769 -14.573   0.120  0.00  0.00    +0.044 C 
ATOM     23  C   UNL     1       3.143 -13.203   0.070  0.00  0.00    -0.049 A 
ATOM     24  C   UNL     1       3.857 -12.102   0.507  0.00  0.00    +0.005 A 
ATOM     25  C   UNL     1       3.287 -10.845   0.463  0.00  0.00    +0.025 A 
ATOM     26  C   UNL     1       1.994 -10.687  -0.021  0.00  0.00    +0.052 A 
ATOM     27  C   UNL     1       1.277 -11.795  -0.454  0.00  0.00    +0.062 A 
ATOM     28  C   UNL     1       1.856 -13.050  -0.412  0.00  0.00    +0.025 A 
ATOM     29 CL   UNL     1      -0.341 -11.604  -1.053  0.00  0.00    -0.082 Cl
ENDBRANCH  18  26
ENDBRANCH  17  19
ENDBRANCH  16  17
ENDBRANCH   1  16
TORSDOF 6
