REMARK  Name = ZINC09355414
REMARK  5 active torsions:
REMARK  status: ('A' for Active; 'I' for Inactive)
REMARK    1  A    between atoms: C_1  and  C_2
REMARK    2  A    between atoms: C_2  and  C_4
REMARK    3  A    between atoms: C_2  and  N_10
REMARK    4  A    between atoms: C_11  and  C_21
REMARK    5  A    between atoms: C_30  and  C_31
REMARK                            x       y       z     vdW  Elec       q    Type
REMARK                         _______ _______ _______ _____ _____    ______ ____
ROOT
ATOM      1  N   UNL     1      -2.357   1.298  -0.258  0.00  0.00    -0.280 N 
ATOM      2  C   UNL     1      -1.149   0.465  -0.277  0.00  0.00    +0.141 C 
ATOM      3  C   UNL     1      -0.008   1.384  -0.636  0.00  0.00    -0.010 A 
ATOM      4  C   UNL     1       1.343   1.188  -0.804  0.00  0.00    +0.006 A 
ATOM      5  C   UNL     1       2.160   2.254  -1.142  0.00  0.00    +0.000 A 
ATOM      6  C   UNL     1       1.621   3.517  -1.311  0.00  0.00    +0.001 A 
ATOM      7  C   UNL     1       0.267   3.724  -1.146  0.00  0.00    +0.013 A 
ATOM      8  C   UNL     1      -0.563   2.655  -0.805  0.00  0.00    +0.042 A 
ATOM      9  C   UNL     1      -2.014   2.562  -0.558  0.00  0.00    +0.248 C 
ATOM     10  O   UNL     1      -2.791   3.495  -0.624  0.00  0.00    -0.270 OA
ENDROOT
BRANCH   2  11
ATOM     11  C   UNL     1      -0.917  -0.142   1.083  0.00  0.00    +0.010 A 
ATOM     12  C   UNL     1      -1.042   0.537   2.371  0.00  0.00    +0.006 A 
ATOM     13  C   UNL     1      -1.381   1.840   2.750  0.00  0.00    +0.010 A 
ATOM     14  C   UNL     1      -1.410   2.175   4.074  0.00  0.00    +0.001 A 
ATOM     15  C   UNL     1      -1.105   1.232   5.047  0.00  0.00    +0.002 A 
ATOM     16  C   UNL     1      -0.768  -0.057   4.697  0.00  0.00    +0.026 A 
ATOM     17  C   UNL     1      -0.731  -0.421   3.355  0.00  0.00    +0.047 A 
ATOM     18  N   UNL     1      -0.439  -1.600   2.704  0.00  0.00    -0.354 N 
ATOM     19  H   UNL     1      -0.191  -2.430   3.139  0.00  0.00    +0.166 HD
ATOM     20  C   UNL     1      -0.558  -1.423   1.345  0.00  0.00    +0.053 A 
BRANCH  20  21
ATOM     21  C   UNL     1      -0.328  -2.470   0.325  0.00  0.00    -0.001 A 
ATOM     22  C   UNL     1      -1.227  -2.630  -0.730  0.00  0.00    +0.010 A 
ATOM     23  C   UNL     1      -1.004  -3.605  -1.680  0.00  0.00    +0.001 A 
ATOM     24  C   UNL     1       0.103  -4.430  -1.582  0.00  0.00    +0.000 A 
ATOM     25  C   UNL     1       0.995  -4.279  -0.536  0.00  0.00    +0.001 A 
ATOM     26  C   UNL     1       0.786  -3.304   0.418  0.00  0.00    +0.010 A 
ENDBRANCH  20  21
ENDBRANCH   2  11
BRANCH   1  28
ATOM     27  C   UNL     1      -4.658   1.242  -1.085  0.00  0.00    +0.033 C 
ATOM     28  C   UNL     1      -3.712   0.829   0.044  0.00  0.00    +0.104 C 
BRANCH  28  29
ATOM     29  C   UNL     1      -4.177   1.442   1.340  0.00  0.00    -0.027 A 
ATOM     30  C   UNL     1      -4.333   0.650   2.462  0.00  0.00    +0.005 A 
ATOM     31  C   UNL     1      -4.756   1.212   3.651  0.00  0.00    +0.000 A 
ATOM     32  C   UNL     1      -5.032   2.565   3.717  0.00  0.00    +0.000 A 
ATOM     33  C   UNL     1      -4.882   3.356   2.593  0.00  0.00    +0.000 A 
ATOM     34  C   UNL     1      -4.455   2.794   1.404  0.00  0.00    +0.005 A 
ENDBRANCH  28  29
ENDBRANCH   1  28
TORSDOF 4
