REMARK  Name = ZINC09541804
REMARK  9 active torsions:
REMARK  status: ('A' for Active; 'I' for Inactive)
REMARK    1  A    between atoms: C_1  and  C_2
REMARK    2  A    between atoms: C_4  and  C_33
REMARK    3  A    between atoms: C_5  and  N_9
REMARK    4  A    between atoms: C_10  and  C_12
REMARK    5  A    between atoms: C_12  and  S_13
REMARK    6  A    between atoms: S_13  and  C_14
REMARK    7  A    between atoms: C_17  and  C_20
REMARK    8  A    between atoms: N_18  and  N_19
REMARK    9  A    between atoms: C_22  and  C_26
REMARK                            x       y       z     vdW  Elec       q    Type
REMARK                         _______ _______ _______ _____ _____    ______ ____
ROOT
ATOM      1  C   UNL     1       1.268  -8.702   2.417  0.00  0.00    +0.209 A 
ATOM      2  N   UNL     1       0.985  -9.370   1.321  0.00  0.00    -0.120 NA
ATOM      3  N   UNL     1       1.164 -10.628   1.513  0.00  0.00    -0.125 NA
ATOM      4  C   UNL     1       1.571 -10.841   2.743  0.00  0.00    +0.202 A 
ATOM      5  N   UNL     1       1.655  -9.613   3.358  0.00  0.00    -0.222 N 
ENDROOT
BRANCH   4   6
ATOM      6  C   UNL     1       1.885 -12.152   3.350  0.00  0.00    +0.132 A 
ATOM      7  C   UNL     1       1.805 -13.400   2.705  0.00  0.00    +0.061 A 
ATOM      8  C   UNL     1       2.175 -14.357   3.602  0.00  0.00    +0.066 A 
ATOM      9  N   UNL     1       2.478 -13.728   4.774  0.00  0.00    -0.276 N 
ATOM     10  H   UNL     1       2.773 -14.158   5.593  0.00  0.00    +0.189 HD
ATOM     11  N   UNL     1       2.293 -12.353   4.587  0.00  0.00    -0.170 NA
BRANCH   8  12
ATOM     12  C   UNL     1       2.237 -15.814   3.351  0.00  0.00    -0.000 A 
ATOM     13  C   UNL     1       1.903 -16.323   2.096  0.00  0.00    +0.011 A 
ATOM     14  C   UNL     1       1.963 -17.682   1.867  0.00  0.00    +0.020 A 
ATOM     15  C   UNL     1       2.354 -18.541   2.880  0.00  0.00    +0.041 A 
ATOM     16  C   UNL     1       2.687 -18.041   4.128  0.00  0.00    +0.020 A 
ATOM     17  C   UNL     1       2.636 -16.684   4.366  0.00  0.00    +0.011 A 
ATOM     18 CL   UNL     1       2.426 -20.250   2.585  0.00  0.00    -0.084 Cl
ENDBRANCH   8  12
ENDBRANCH   4   6
BRANCH   5  19
ATOM     19  N   UNL     1       2.043  -9.359   4.643  0.00  0.00    -0.295 N 
ATOM     20  H   UNL     1       1.253  -9.377   5.269  0.00  0.00    +0.163 HD
ATOM     21  H   UNL     1       2.756 -10.009   4.941  0.00  0.00    +0.163 HD
ENDBRANCH   5  19
BRANCH   1  22
ATOM     22  S   UNL     1       1.171  -6.955   2.631  0.00  0.00    -0.075 S 
BRANCH  22  23
ATOM     23  C   UNL     1       0.598  -6.347   1.021  0.00  0.00    +0.173 C 
BRANCH  23  25
ATOM     24  N   UNL     1       0.057  -4.171  -0.023  0.00  0.00    -0.283 N 
ATOM     25  C   UNL     1       0.471  -4.846   1.067  0.00  0.00    +0.228 C 
ATOM     26  O   UNL     1       0.741  -4.246   2.086  0.00  0.00    -0.275 OA
ATOM     27  H   UNL     1      -0.228  -4.655  -0.814  0.00  0.00    +0.155 HD
BRANCH  24  32
ATOM     28  C   UNL     1      -0.016   1.503   0.014  0.00  0.00    +0.044 C 
ATOM     29  C   UNL     1       0.004  -0.004   0.004  0.00  0.00    -0.049 A 
ATOM     30  C   UNL     1      -1.135  -0.711   0.340  0.00  0.00    +0.008 A 
ATOM     31  C   UNL     1      -1.121  -2.092   0.333  0.00  0.00    -0.028 A 
ATOM     32  C   UNL     1       0.039  -2.771  -0.015  0.00  0.00    +0.055 A 
ATOM     33  C   UNL     1       1.183  -2.058  -0.353  0.00  0.00    +0.063 A 
ATOM     34  C   UNL     1       1.160  -0.676  -0.348  0.00  0.00    +0.025 A 
ATOM     35 CL   UNL     1       2.636  -2.902  -0.788  0.00  0.00    -0.082 Cl
ATOM     36  C   UNL     1      -2.363  -2.862   0.701  0.00  0.00    +0.046 C 
ENDBRANCH  24  32
ENDBRANCH  23  25
ENDBRANCH  22  23
ENDBRANCH   1  22
TORSDOF 7
