REMARK  Name = ZINC39683663
REMARK  8 active torsions:
REMARK  status: ('A' for Active; 'I' for Inactive)
REMARK    1  A    between atoms: C_1  and  C_2
REMARK    2  A    between atoms: C_2  and  O_3
REMARK    3  A    between atoms: O_3  and  C_4
REMARK    4  A    between atoms: C_7  and  C_10
REMARK    5  A    between atoms: C_14  and  C_23
REMARK    6  A    between atoms: N_25  and  C_26
REMARK    7  A    between atoms: C_26  and  C_27
REMARK    8  A    between atoms: C_27  and  C_28
REMARK                            x       y       z     vdW  Elec       q    Type
REMARK                         _______ _______ _______ _____ _____    ______ ____
ROOT
ATOM      1  C   UNL     1       1.141  -6.028   1.762  0.00  0.00    +0.247 C 
ATOM      2  O   UNL     1       0.574  -6.771   0.985  0.00  0.00    -0.270 OA
ATOM      3  N   UNL     1       1.863  -6.540   2.779  0.00  0.00    -0.296 N 
ATOM      4  C   UNL     1       2.512  -5.808   3.891  0.00  0.00    +0.121 C 
ATOM      5  C   UNL     1       2.284  -6.699   5.132  0.00  0.00    +0.100 C 
ATOM      6  C   UNL     1       2.072  -8.113   4.566  0.00  0.00    -0.004 C 
ATOM      7  C   UNL     1       2.180  -7.965   3.041  0.00  0.00    +0.115 C 
ATOM      8  C   UNL     1       3.153  -9.057   5.083  0.00  0.00    -0.010 C 
ATOM      9  C   UNL     1       2.888 -10.469   4.553  0.00  0.00    -0.082 C 
ATOM     10  N   UNL     1       1.563 -10.920   4.997  0.00  0.00    +0.379 N 
ATOM     11  C   UNL     1       0.523 -10.061   4.419  0.00  0.00    -0.082 C 
ATOM     12  C   UNL     1       0.688  -8.632   4.943  0.00  0.00    -0.010 C 
ATOM     13  H   UNL     1       1.416 -11.872   4.698  0.00  0.00    -0.086 HD
ATOM     14  H   UNL     1       1.514 -10.874   6.003  0.00  0.00    -0.086 HD
ENDROOT
BRANCH   1  18
ATOM     15  C   UNL     1       0.849  -1.820   1.273  0.00  0.00    +0.121 A 
ATOM     16  C   UNL     1       1.938  -2.366   1.943  0.00  0.00    +0.046 A 
ATOM     17  C   UNL     1       2.036  -3.730   2.104  0.00  0.00    +0.016 A 
ATOM     18  C   UNL     1       1.039  -4.566   1.593  0.00  0.00    +0.037 A 
ATOM     19  C   UNL     1      -0.053  -4.013   0.920  0.00  0.00    +0.016 A 
ATOM     20  C   UNL     1      -0.147  -2.647   0.768  0.00  0.00    +0.046 A 
BRANCH  15  21
ATOM     21  O   UNL     1       0.756  -0.475   1.117  0.00  0.00    -0.492 OA
BRANCH  21  23
ATOM     22  C   UNL     1       1.537   1.796   1.389  0.00  0.00    +0.048 C 
ATOM     23  C   UNL     1       1.815   0.316   1.661  0.00  0.00    +0.225 C 
ENDBRANCH  21  23
ENDBRANCH  15  21
ENDBRANCH   1  18
BRANCH   5  24
ATOM     24  C   UNL     1       3.494  -6.667   6.030  0.00  0.00    +0.218 C 
ATOM     25  O   UNL     1       4.585  -6.409   5.569  0.00  0.00    -0.275 OA
ATOM     26  N   UNL     1       3.362  -6.926   7.347  0.00  0.00    -0.315 N 
ATOM     27  H   UNL     1       2.490  -7.132   7.716  0.00  0.00    +0.149 HD
BRANCH  26  28
ATOM     28  C   UNL     1       4.538  -6.894   8.220  0.00  0.00    +0.109 C 
BRANCH  28  29
ATOM     29  C   UNL     1       4.117  -7.221   9.654  0.00  0.00    +0.055 C 
BRANCH  29  30
ATOM     30  C   UNL     1       5.326  -7.189  10.553  0.00  0.00    -0.032 A 
ATOM     31  C   UNL     1       6.011  -8.357  10.833  0.00  0.00    +0.005 A 
ATOM     32  C   UNL     1       7.120  -8.327  11.657  0.00  0.00    +0.000 A 
ATOM     33  C   UNL     1       7.546  -7.130  12.201  0.00  0.00    +0.001 A 
ATOM     34  C   UNL     1       6.863  -5.962  11.921  0.00  0.00    +0.015 A 
ATOM     35  C   UNL     1       5.755  -5.990  11.093  0.00  0.00    +0.021 A 
ATOM     36 BR   UNL     1       4.824  -4.391  10.704  0.00  0.00    -0.050 Br
ENDBRANCH  29  30
ENDBRANCH  28  29
ENDBRANCH  26  28
ENDBRANCH   5  24
TORSDOF 7
