REMARK  Name = ZINC44699301
REMARK  15 active torsions:
REMARK  status: ('A' for Active; 'I' for Inactive)
REMARK    1  A    between atoms: C_1  and  C_2
REMARK    2  A    between atoms: C_2  and  C_3
REMARK    3  A    between atoms: C_3  and  C_4
REMARK    4  A    between atoms: C_7  and  C_12
REMARK    5  A    between atoms: N_9  and  C_11
REMARK    6  A    between atoms: N_14  and  C_15
REMARK    7  A    between atoms: C_15  and  C_17
REMARK    8  A    between atoms: C_15  and  C_33
REMARK    9  A    between atoms: C_19  and  O_32
REMARK   10  A    between atoms: C_21  and  O_31
REMARK   11  A    between atoms: C_23  and  O_30
REMARK   12  A    between atoms: C_25  and  S_28
REMARK   13  A    between atoms: S_28  and  C_29
REMARK   14  A    between atoms: C_33  and  C_35
REMARK   15  A    between atoms: C_33  and  O_36
REMARK                            x       y       z     vdW  Elec       q    Type
REMARK                         _______ _______ _______ _____ _____    ______ ____
ROOT
ATOM      1  C   UNL     1      -1.221  -4.933   5.439  0.00  0.00    +0.132 C 
ENDROOT
BRANCH   1   2
ATOM      2  C   UNL     1      -0.293  -4.572   6.601  0.00  0.00    +0.173 C 
ATOM      3  C   UNL     1      -0.037  -3.062   6.599  0.00  0.00    +0.176 C 
ATOM      4  C   UNL     1       0.939  -2.717   7.727  0.00  0.00    +0.177 C 
ATOM      5  C   UNL     1       2.226  -3.525   7.540  0.00  0.00    +0.184 C 
ATOM      6  C   UNL     1       1.883  -5.017   7.505  0.00  0.00    +0.207 C 
ATOM      7  O   UNL     1       0.948  -5.265   6.453  0.00  0.00    -0.356 OA
BRANCH   6   8
ATOM      8  S   UNL     1       1.152  -5.506   9.092  0.00  0.00    -0.131 S 
ATOM      9  C   UNL     1       1.088  -7.317   9.006  0.00  0.00    +0.087 C 
ENDBRANCH   6   8
BRANCH   5  10
ATOM     10  O   UNL     1       2.851  -3.149   6.311  0.00  0.00    -0.386 OA
ATOM     11  H   UNL     1       3.674  -3.623   6.127  0.00  0.00    +0.210 HD
ENDBRANCH   5  10
BRANCH   4  12
ATOM     12  O   UNL     1       1.240  -1.320   7.688  0.00  0.00    -0.386 OA
ATOM     13  H   UNL     1       1.854  -1.031   8.377  0.00  0.00    +0.210 HD
ENDBRANCH   4  12
BRANCH   3  14
ATOM     14  O   UNL     1       0.526  -2.675   5.343  0.00  0.00    -0.387 OA
ATOM     15  H   UNL     1       0.714  -1.730   5.272  0.00  0.00    +0.210 HD
ENDBRANCH   3  14
ENDBRANCH   1   2
BRANCH   1  18
ATOM     16  C   UNL     1      -1.325  -3.955   3.209  0.00  0.00    +0.200 C 
ATOM     17  O   UNL     1      -2.505  -3.739   3.391  0.00  0.00    -0.278 OA
ATOM     18  N   UNL     1      -0.592  -4.546   4.173  0.00  0.00    -0.309 N 
ATOM     19  H   UNL     1       0.352  -4.715   4.029  0.00  0.00    +0.149 HD
BRANCH  16  22
ATOM     20  C   UNL     1      -1.027  -1.870   0.208  0.00  0.00    -0.029 C 
ATOM     21  C   UNL     1      -0.750  -2.031   1.726  0.00  0.00    -0.005 C 
ATOM     22  C   UNL     1      -0.680  -3.562   1.906  0.00  0.00    +0.019 C 
ATOM     23  N   UNL     1      -1.411  -4.168   0.778  0.00  0.00    +0.386 N 
ATOM     24  C   UNL     1      -1.946  -3.084  -0.074  0.00  0.00    -0.075 C 
ATOM     25  C   UNL     1      -2.517  -4.988   1.289  0.00  0.00    -0.095 C 
ATOM     26  H   UNL     1      -0.783  -4.745   0.238  0.00  0.00    -0.081 HD
BRANCH  20  27
ATOM     27  C   UNL     1      -1.753  -0.554  -0.080  0.00  0.00    +0.001 C 
BRANCH  27  29
ATOM     28  C   UNL     1      -1.528   1.933  -0.123  0.00  0.00    +0.004 C 
ATOM     29  C   UNL     1      -0.801   0.618   0.165  0.00  0.00    -0.003 C 
ENDBRANCH  27  29
ENDBRANCH  20  27
ENDBRANCH  16  22
ENDBRANCH   1  18
BRANCH   1  30
ATOM     30  C   UNL     1      -1.476  -6.442   5.441  0.00  0.00    +0.134 C 
ATOM     31  C   UNL     1      -1.953  -6.877   6.828  0.00  0.00    +0.039 C 
BRANCH  30  32
ATOM     32  O   UNL     1      -2.479  -6.756   4.472  0.00  0.00    -0.390 OA
ATOM     33  H   UNL     1      -2.209  -6.590   3.558  0.00  0.00    +0.210 HD
ENDBRANCH  30  32
ENDBRANCH   1  30
TORSDOF 11
