REMARK  Name = ZINC05603925
REMARK  6 active torsions:
REMARK  status: ('A' for Active; 'I' for Inactive)
REMARK    1  A    between atoms: C_4  and  N_7
REMARK    2  A    between atoms: C_12  and  C_20
REMARK    3  A    between atoms: C_14  and  C_18
REMARK    4  A    between atoms: C_15  and  N_17
REMARK    5  A    between atoms: C_23  and  O_26
REMARK    6  A    between atoms: C_27  and  C_29
REMARK                            x       y       z     vdW  Elec       q    Type
REMARK                         _______ _______ _______ _____ _____    ______ ____
ROOT
ATOM      1  N   UNL     1      -3.949   1.906  -2.631  0.00  0.00    -0.185 N 
ATOM      2  C   UNL     1      -3.681   2.080  -1.196  0.00  0.00    +0.294 C 
ATOM      3  C   UNL     1      -3.316   3.602  -1.238  0.00  0.00    +0.118 C 
ATOM      4  C   UNL     1      -2.553   3.867   0.048  0.00  0.00    +0.079 C 
ATOM      5  C   UNL     1      -3.428   3.344   1.173  0.00  0.00    +0.094 C 
ATOM      6  C   UNL     1      -4.451   2.482   0.954  0.00  0.00    +0.194 C 
ATOM      7  O   UNL     1      -4.748   1.974  -0.275  0.00  0.00    -0.455 OA
ATOM      8  C   UNL     1      -2.544   3.668  -2.522  0.00  0.00    +0.148 C 
ATOM      9  N   UNL     1      -2.954   2.693  -3.268  0.00  0.00    -0.176 NA
ENDROOT
BRANCH   1  13
ATOM     10  C   UNL     1      -6.964  -0.354  -4.402  0.00  0.00    +0.000 A 
ATOM     11  C   UNL     1      -6.078   0.354  -5.193  0.00  0.00    +0.002 A 
ATOM     12  C   UNL     1      -5.077   1.105  -4.609  0.00  0.00    +0.025 A 
ATOM     13  C   UNL     1      -4.960   1.148  -3.225  0.00  0.00    +0.055 A 
ATOM     14  C   UNL     1      -5.849   0.431  -2.433  0.00  0.00    +0.025 A 
ATOM     15  C   UNL     1      -6.851  -0.313  -3.024  0.00  0.00    +0.002 A 
ENDBRANCH   1  13
BRANCH   4  16
ATOM     16  C   UNL     1      -1.237   3.133   0.031  0.00  0.00    -0.038 A 
ATOM     17  C   UNL     1      -0.962   2.233  -0.982  0.00  0.00    +0.008 A 
ATOM     18  C   UNL     1       0.242   1.555  -0.996  0.00  0.00    +0.045 A 
ATOM     19  C   UNL     1       1.179   1.786   0.000  0.00  0.00    +0.117 A 
ATOM     20  C   UNL     1       0.902   2.694   1.012  0.00  0.00    +0.045 A 
ATOM     21  C   UNL     1      -0.305   3.365   1.025  0.00  0.00    +0.008 A 
BRANCH  19  22
ATOM     22  O   UNL     1       2.366   1.124  -0.015  0.00  0.00    -0.507 OA
ATOM     23  H   UNL     1       3.064   1.581  -0.504  0.00  0.00    +0.292 HD
ENDBRANCH  19  22
ENDBRANCH   4  16
BRANCH   8  24
ATOM     24  C   UNL     1      -1.487   4.681  -2.879  0.00  0.00    +0.432 C 
ATOM     25  F   UNL     1      -0.999   4.413  -4.162  0.00  0.00    -0.165 F 
ATOM     26  F   UNL     1      -2.043   5.964  -2.850  0.00  0.00    -0.165 F 
ATOM     27  F   UNL     1      -0.439   4.606  -1.956  0.00  0.00    -0.165 F 
ENDBRANCH   8  24
BRANCH   6  28
ATOM     28  N   UNL     1      -5.224   2.101   2.021  0.00  0.00    -0.329 N 
ATOM     29  H   UNL     1      -5.962   1.485   1.891  0.00  0.00    +0.145 HD
ATOM     30  H   UNL     1      -5.033   2.448   2.907  0.00  0.00    +0.145 HD
ENDBRANCH   6  28
BRANCH   5  31
ATOM     31  C   UNL     1      -3.163   3.775   2.513  0.00  0.00    +0.100 C 
ATOM     32  N   UNL     1      -2.954   4.118   3.575  0.00  0.00    -0.191 NA
ENDBRANCH   5  31
TORSDOF 6
