REMARK  Name = ZINC45818591
REMARK  11 active torsions:
REMARK  status: ('A' for Active; 'I' for Inactive)
REMARK    1  A    between atoms: C_1  and  S_2
REMARK    2  A    between atoms: S_2  and  C_3
REMARK    3  A    between atoms: C_3  and  C_4
REMARK    4  A    between atoms: C_4  and  C_5
REMARK    5  A    between atoms: C_5  and  C_7
REMARK    6  A    between atoms: C_5  and  N_21
REMARK    7  A    between atoms: N_9  and  C_10
REMARK    8  A    between atoms: C_10  and  C_11
REMARK    9  A    between atoms: C_14  and  N_17
REMARK   10  A    between atoms: C_22  and  C_24
REMARK   11  A    between atoms: C_28  and  N_30
REMARK                            x       y       z     vdW  Elec       q    Type
REMARK                         _______ _______ _______ _____ _____    ______ ____
ROOT
ATOM      1  C   UNL     1      -2.975  -2.493  -0.227  0.00  0.00    +0.160 C 
ENDROOT
BRANCH   1   2
ATOM      2  C   UNL     1      -3.274  -3.952  -0.000  0.00  0.00    +0.234 C 
ATOM      3  O   UNL     1      -3.949  -4.565  -0.801  0.00  0.00    -0.274 OA
ATOM      4  N   UNL     1      -2.792  -4.577   1.092  0.00  0.00    -0.310 N 
ATOM      5  H   UNL     1      -2.253  -4.088   1.733  0.00  0.00    +0.149 HD
BRANCH   4   6
ATOM      6  C   UNL     1      -3.083  -5.996   1.312  0.00  0.00    +0.139 C 
BRANCH   6   7
ATOM      7  C   UNL     1      -2.432  -6.449   2.594  0.00  0.00    -0.030 A 
ATOM      8  C   UNL     1      -1.143  -6.948   2.575  0.00  0.00    +0.007 A 
ATOM      9  C   UNL     1      -0.544  -7.364   3.748  0.00  0.00    +0.023 A 
ATOM     10  C   UNL     1      -1.239  -7.281   4.948  0.00  0.00    +0.035 A 
ATOM     11  C   UNL     1      -2.534  -6.779   4.964  0.00  0.00    +0.023 A 
ATOM     12  C   UNL     1      -3.125  -6.360   3.788  0.00  0.00    +0.007 A 
BRANCH  10  13
ATOM     13  N   UNL     1      -0.635  -7.702   6.138  0.00  0.00    -0.270 N 
ATOM     14  C   UNL     1       0.693  -7.551   6.310  0.00  0.00    +0.301 C 
ATOM     15  O   UNL     1       1.352  -6.964   5.474  0.00  0.00    -0.253 OA
ATOM     16  N   UNL     1       1.291  -8.053   7.409  0.00  0.00    -0.313 N 
ATOM     17  H   UNL     1      -1.173  -8.101   6.840  0.00  0.00    +0.156 HD
ATOM     18  H   UNL     1       0.766  -8.521   8.076  0.00  0.00    +0.146 HD
ATOM     19  H   UNL     1       2.247  -7.945   7.533  0.00  0.00    +0.146 HD
ENDBRANCH  10  13
ENDBRANCH   6   7
ENDBRANCH   4   6
ENDBRANCH   1   2
BRANCH   1  20
ATOM     20  N   UNL     1      -3.607  -2.053  -1.473  0.00  0.00    -0.300 N 
ATOM     21  C   UNL     1      -3.922  -0.753  -1.647  0.00  0.00    +0.245 C 
ATOM     22  O   UNL     1      -3.681   0.053  -0.769  0.00  0.00    -0.270 OA
ATOM     23  H   UNL     1      -3.800  -2.696  -2.173  0.00  0.00    +0.150 HD
BRANCH  21  24
ATOM     24  C   UNL     1      -4.559  -0.309  -2.904  0.00  0.00    +0.039 A 
ATOM     25  C   UNL     1      -4.842  -1.234  -3.911  0.00  0.00    +0.014 A 
ATOM     26  C   UNL     1      -5.437  -0.814  -5.082  0.00  0.00    +0.023 A 
ATOM     27  C   UNL     1      -5.754   0.523  -5.260  0.00  0.00    +0.071 A 
ATOM     28  C   UNL     1      -5.475   1.445  -4.265  0.00  0.00    +0.145 A 
ATOM     29  C   UNL     1      -4.886   1.035  -3.087  0.00  0.00    +0.047 A 
ATOM     30 CL   UNL     1      -6.503   1.045  -6.737  0.00  0.00    -0.081 Cl
BRANCH  28  31
ATOM     31  N   UNL     1      -5.816   2.872  -4.463  0.00  0.00    +0.058 N 
ATOM     32  O   UNL     1      -5.573   3.677  -3.595  0.00  0.00    -0.126 OA
ATOM     33  O   UNL     1      -6.338   3.231  -5.493  0.00  0.00    -0.126 OA
ENDBRANCH  28  31
ENDBRANCH  21  24
ENDBRANCH   1  20
BRANCH   1  34
ATOM     34  C   UNL     1      -1.462  -2.291  -0.323  0.00  0.00    +0.042 C 
BRANCH  34  35
ATOM     35  C   UNL     1      -1.152  -0.796  -0.428  0.00  0.00    +0.071 C 
BRANCH  35  37
ATOM     36  C   UNL     1       0.839   1.242  -0.659  0.00  0.00    +0.084 C 
ATOM     37  S   UNL     1       0.642  -0.557  -0.543  0.00  0.00    -0.164 S 
ENDBRANCH  35  37
ENDBRANCH  34  35
ENDBRANCH   1  34
TORSDOF 10
