REMARK  Name = ZINC26384771
REMARK  13 active torsions:
REMARK  status: ('A' for Active; 'I' for Inactive)
REMARK    1  A    between atoms: C_1  and  C_2
REMARK    2  A    between atoms: C_2  and  C_3
REMARK    3  A    between atoms: C_2  and  C_4
REMARK    4  A    between atoms: C_2  and  N_40
REMARK    5  A    between atoms: N_6  and  C_7
REMARK    6  A    between atoms: C_7  and  C_9
REMARK    7  A    between atoms: C_7  and  C_18
REMARK    8  A    between atoms: C_9  and  C_10
REMARK    9  A    between atoms: C_10  and  C_11
REMARK   10  A    between atoms: C_11  and  C_12
REMARK   11  A    between atoms: C_27  and  C_35
REMARK   12  A    between atoms: C_35  and  C_36
REMARK   13  A    between atoms: C_36  and  C_37
REMARK                            x       y       z     vdW  Elec       q    Type
REMARK                         _______ _______ _______ _____ _____    ______ ____
ROOT
ATOM      1  C   UNL     1      -1.116   9.819  -1.949  0.00  0.00    +0.159 C 
ENDROOT
BRANCH   1   2
ATOM      2  C   UNL     1      -1.010   9.320  -0.531  0.00  0.00    +0.236 C 
ATOM      3  O   UNL     1      -1.586   9.903   0.362  0.00  0.00    -0.274 OA
ATOM      4  N   UNL     1      -0.274   8.224  -0.256  0.00  0.00    -0.300 N 
ATOM      5  C   UNL     1      -0.162   7.726   1.122  0.00  0.00    +0.108 C 
ATOM      6  C   UNL     1      -0.567   6.248   1.146  0.00  0.00    +0.030 C 
ATOM      7  C   UNL     1       0.260   5.481   0.118  0.00  0.00    -0.001 C 
ATOM      8  C   UNL     1       0.020   6.031  -1.285  0.00  0.00    +0.030 C 
ATOM      9  C   UNL     1       0.430   7.508  -1.328  0.00  0.00    +0.108 C 
ATOM     10  C   UNL     1       1.756   5.577   0.471  0.00  0.00    +0.020 C 
ATOM     11  C   UNL     1       2.286   4.193   0.036  0.00  0.00    +0.021 C 
ATOM     12  C   UNL     1       1.092   3.266   0.121  0.00  0.00    -0.041 A 
ATOM     13  C   UNL     1      -0.074   4.009   0.168  0.00  0.00    -0.038 A 
ATOM     14  C   UNL     1      -1.297   3.364   0.248  0.00  0.00    +0.004 A 
ATOM     15  C   UNL     1      -1.357   1.984   0.274  0.00  0.00    +0.000 A 
ATOM     16  C   UNL     1      -0.191   1.243   0.233  0.00  0.00    +0.000 A 
ATOM     17  C   UNL     1       1.030   1.883   0.154  0.00  0.00    +0.004 A 
BRANCH  11  18
ATOM     18  C   UNL     1       3.391   3.723   0.984  0.00  0.00    +0.019 C 
BRANCH  18  19
ATOM     19  C   UNL     1       4.636   4.590   0.785  0.00  0.00    +0.126 C 
BRANCH  19  20
ATOM     20  C   UNL     1       5.748   4.082   1.667  0.00  0.00    +0.356 C 
ATOM     21  O   UNL     1       5.564   3.124   2.380  0.00  0.00    -0.246 OA
ATOM     22  O   UNL     1       6.943   4.692   1.658  0.00  0.00    -0.246 OA
ENDBRANCH  19  20
ENDBRANCH  18  19
ENDBRANCH  11  18
ENDBRANCH   1   2
BRANCH   1  25
ATOM     23  C   UNL     1      -2.711  11.572  -1.385  0.00  0.00    +0.202 C 
ATOM     24  O   UNL     1      -3.423  10.724  -0.889  0.00  0.00    -0.277 OA
ATOM     25  N   UNL     1      -1.535  11.223  -1.942  0.00  0.00    -0.305 N 
ATOM     26  H   UNL     1      -0.889  11.992  -2.392  0.00  0.00    +0.149 HD
BRANCH  23  28
ATOM     27  C   UNL     1      -3.838  13.347  -2.700  0.00  0.00    -0.001 C 
ATOM     28  C   UNL     1      -3.143  13.016  -1.378  0.00  0.00    +0.001 C 
ATOM     29  C   UNL     1      -4.113  13.253  -0.219  0.00  0.00    -0.001 C 
BRANCH  28  30
ATOM     30  N   UNL     1      -1.965  13.878  -1.215  0.00  0.00    +0.387 N 
ATOM     31  H   UNL     1      -1.465  13.640  -0.265  0.00  0.00    -0.089 HD
ATOM     32  H   UNL     1      -2.280  14.932  -1.210  0.00  0.00    -0.089 HD
ATOM     33  H   UNL     1      -1.268  13.708  -2.049  0.00  0.00    -0.089 HD
ENDBRANCH  28  30
ENDBRANCH  23  28
ENDBRANCH   1  25
BRANCH   1  34
ATOM     34  C   UNL     1      -2.147   8.982  -2.709  0.00  0.00    +0.032 C 
BRANCH  34  35
ATOM     35  C   UNL     1      -2.165   9.406  -4.178  0.00  0.00    +0.007 C 
BRANCH  35  36
ATOM     36  C   UNL     1      -3.196   8.570  -4.938  0.00  0.00    +0.035 C 
BRANCH  36  37
ATOM     37  C   UNL     1      -3.214   8.987  -6.386  0.00  0.00    -0.047 A 
ATOM     38  C   UNL     1      -4.068   9.990  -6.806  0.00  0.00    +0.003 A 
ATOM     39  C   UNL     1      -4.081  10.376  -8.133  0.00  0.00    +0.000 A 
ATOM     40  C   UNL     1      -3.247   9.753  -9.042  0.00  0.00    +0.000 A 
ATOM     41  C   UNL     1      -2.397   8.747  -8.624  0.00  0.00    +0.000 A 
ATOM     42  C   UNL     1      -2.380   8.364  -7.295  0.00  0.00    +0.003 A 
ENDBRANCH  36  37
ENDBRANCH  35  36
ENDBRANCH  34  35
ENDBRANCH   1  34
TORSDOF 11
