REMARK  Name = ZINC25452290
REMARK  7 active torsions:
REMARK  status: ('A' for Active; 'I' for Inactive)
REMARK    1  A    between atoms: C_1  and  C_2
REMARK    2  A    between atoms: C_5  and  N_9
REMARK    3  A    between atoms: C_6  and  C_8
REMARK    4  A    between atoms: C_13  and  C_15
REMARK    5  A    between atoms: C_15  and  C_17
REMARK    6  A    between atoms: C_15  and  S_18
REMARK    7  A    between atoms: S_18  and  C_19
REMARK                            x       y       z     vdW  Elec       q    Type
REMARK                         _______ _______ _______ _____ _____    ______ ____
ROOT
ATOM      1  C   UNL     1      -2.189  -6.335   0.552  0.00  0.00    +0.137 C 
ATOM      2  C   UNL     1      -2.264  -5.665   1.925  0.00  0.00    +0.029 C 
ENDROOT
BRANCH   1   7
ATOM      3  N   UNL     1      -6.117  -9.098   0.339  0.00  0.00    -0.269 N 
ATOM      4  C   UNL     1      -4.784  -8.996   0.506  0.00  0.00    +0.310 C 
ATOM      5  O   UNL     1      -4.118  -9.993   0.707  0.00  0.00    -0.252 OA
ATOM      6  N   UNL     1      -4.188  -7.788   0.449  0.00  0.00    -0.239 N 
ATOM      7  C   UNL     1      -2.855  -7.686   0.616  0.00  0.00    +0.234 C 
ATOM      8  O   UNL     1      -2.191  -8.680   0.817  0.00  0.00    -0.274 OA
ATOM      9  H   UNL     1      -6.731  -8.190   0.249  0.00  0.00    +0.156 HD
ATOM     10  H   UNL     1      -4.790  -6.886   0.267  0.00  0.00    +0.159 HD
BRANCH   3  15
ATOM     11  C   UNL     1      -8.561 -14.212   0.102  0.00  0.00    +0.044 C 
ATOM     12  C   UNL     1      -7.912 -12.854   0.164  0.00  0.00    -0.050 A 
ATOM     13  C   UNL     1      -6.580 -12.709  -0.177  0.00  0.00    +0.005 A 
ATOM     14  C   UNL     1      -5.982 -11.466  -0.120  0.00  0.00    +0.024 A 
ATOM     15  C   UNL     1      -6.720 -10.360   0.280  0.00  0.00    +0.038 A 
ATOM     16  C   UNL     1      -8.056 -10.509   0.628  0.00  0.00    -0.029 A 
ATOM     17  C   UNL     1      -8.650 -11.755   0.563  0.00  0.00    +0.008 A 
ATOM     18  C   UNL     1      -8.859  -9.312   1.069  0.00  0.00    +0.045 C 
ENDBRANCH   3  15
ENDBRANCH   1   7
BRANCH   1  19
ATOM     19  S   UNL     1      -0.455  -6.539   0.075  0.00  0.00    -0.075 S 
BRANCH  19  20
ATOM     20  C   UNL     1       0.024  -4.850  -0.067  0.00  0.00    +0.171 A 
ATOM     21  N   UNL     1       1.307  -4.562  -0.423  0.00  0.00    -0.301 N 
ATOM     22  H   UNL     1       2.020  -5.378  -0.615  0.00  0.00    +0.171 HD
ATOM     23  C   UNL     1       1.768  -3.297  -0.558  0.00  0.00    +0.261 A 
ATOM     24  O   UNL     1       2.921  -3.059  -0.878  0.00  0.00    -0.267 OA
ATOM     25  C   UNL     1       0.819  -2.254  -0.303  0.00  0.00    +0.075 A 
ATOM     26  C   UNL     1       1.060  -0.823  -0.380  0.00  0.00    -0.023 A 
ATOM     27  C   UNL     1       0.012  -0.015  -0.096  0.00  0.00    -0.004 A 
ATOM     28  S   UNL     1      -1.331  -1.111   0.283  0.00  0.00    -0.073 S 
ATOM     29  C   UNL     1      -0.489  -2.647   0.061  0.00  0.00    +0.117 A 
ATOM     30  N   UNL     1      -0.879  -3.910   0.177  0.00  0.00    -0.216 NA
ATOM     31  C   UNL     1      -0.006   1.482  -0.101  0.00  0.00    +0.043 C 
ATOM     32  C   UNL     1       1.444   1.987  -0.120  0.00  0.00    +0.005 C 
ATOM     33  C   UNL     1       2.216   1.220  -1.197  0.00  0.00    +0.005 C 
ATOM     34  C   UNL     1       2.414  -0.231  -0.760  0.00  0.00    +0.037 C 
ENDBRANCH  19  20
ENDBRANCH   1  19
TORSDOF 4
