REMARK  Name = ZINC59170687
REMARK  5 active torsions:
REMARK  status: ('A' for Active; 'I' for Inactive)
REMARK    1  A    between atoms: C_8  and  C_22
REMARK    2  A    between atoms: N_10  and  C_11
REMARK    3  A    between atoms: C_14  and  S_17
REMARK    4  A    between atoms: S_17  and  N_20
REMARK    5  A    between atoms: N_24  and  C_25
REMARK                            x       y       z     vdW  Elec       q    Type
REMARK                         _______ _______ _______ _____ _____    ______ ____
ROOT
ATOM      1  C   UNL     1       0.124   1.288  -0.787  0.00  0.00    +0.001 A 
ATOM      2  C   UNL     1       1.064   2.024  -0.081  0.00  0.00    +0.004 A 
ATOM      3  C   UNL     1       2.249   1.446   0.329  0.00  0.00    +0.047 A 
ATOM      4  C   UNL     1       2.504   0.115   0.034  0.00  0.00    +0.137 A 
ATOM      5  C   UNL     1       1.548  -0.632  -0.679  0.00  0.00    +0.018 A 
ATOM      6  C   UNL     1       0.354  -0.026  -1.088  0.00  0.00    +0.011 A 
ATOM      7  C   UNL     1       1.816  -2.040  -0.981  0.00  0.00    +0.030 A 
ATOM      8  C   UNL     1       2.875  -2.645  -0.317  0.00  0.00    +0.098 A 
ATOM      9  C   UNL     1       3.637  -1.811   0.633  0.00  0.00    +0.212 A 
ATOM     10  N   UNL     1       4.272  -2.350   1.651  0.00  0.00    -0.325 N 
ATOM     11  O   UNL     1       3.663  -0.469   0.425  0.00  0.00    -0.439 OA
ATOM     12  H   UNL     1       4.164  -3.295   1.845  0.00  0.00    +0.169 HD
ENDROOT
BRANCH  10  13
ATOM     13  C   UNL     1       5.084  -1.580   2.437  0.00  0.00    +0.042 A 
ATOM     14  C   UNL     1       5.976  -0.678   1.852  0.00  0.00    +0.027 A 
ATOM     15  C   UNL     1       6.792   0.095   2.651  0.00  0.00    +0.030 A 
ATOM     16  C   UNL     1       6.729  -0.021   4.029  0.00  0.00    +0.105 A 
ATOM     17  C   UNL     1       5.848  -0.912   4.615  0.00  0.00    +0.030 A 
ATOM     18  C   UNL     1       5.021  -1.688   3.829  0.00  0.00    +0.027 A 
BRANCH  16  19
ATOM     19  S   UNL     1       7.775   0.972   5.041  0.00  0.00    +0.056 S 
ATOM     20  O   UNL     1       7.912   0.286   6.278  0.00  0.00    -0.153 OA
ATOM     21  O   UNL     1       8.893   1.331   4.241  0.00  0.00    -0.153 OA
BRANCH  19  22
ATOM     22  N   UNL     1       6.955   2.374   5.366  0.00  0.00    -0.204 NA
ATOM     23  H   UNL     1       7.114   2.846   6.198  0.00  0.00    +0.144 HD
ATOM     24  H   UNL     1       6.317   2.722   4.724  0.00  0.00    +0.144 HD
ENDBRANCH  19  22
ENDBRANCH  16  19
ENDBRANCH  10  13
BRANCH   8  25
ATOM     25  C   UNL     1       3.223  -4.056  -0.551  0.00  0.00    +0.253 C 
ATOM     26  O   UNL     1       2.506  -4.753  -1.243  0.00  0.00    -0.270 OA
ATOM     27  N   UNL     1       4.337  -4.576   0.003  0.00  0.00    -0.279 N 
ATOM     28  H   UNL     1       4.880  -4.037   0.599  0.00  0.00    +0.155 HD
BRANCH  27  29
ATOM     29  C   UNL     1       4.710  -5.895  -0.283  0.00  0.00    +0.069 A 
ATOM     30  C   UNL     1       3.744  -6.836  -0.613  0.00  0.00    +0.026 A 
ATOM     31  C   UNL     1       4.116  -8.136  -0.895  0.00  0.00    +0.002 A 
ATOM     32  C   UNL     1       5.448  -8.502  -0.849  0.00  0.00    +0.003 A 
ATOM     33  C   UNL     1       6.414  -7.569  -0.520  0.00  0.00    +0.040 A 
ATOM     34  C   UNL     1       6.050  -6.264  -0.242  0.00  0.00    +0.144 A 
ATOM     35  F   UNL     1       6.995  -5.351   0.073  0.00  0.00    -0.204 F 
ENDBRANCH  27  29
ENDBRANCH   8  25
TORSDOF 5
