REMARK  Name = ZINC05157031
REMARK  10 active torsions:
REMARK  status: ('A' for Active; 'I' for Inactive)
REMARK    1  A    between atoms: C_1  and  C_2
REMARK    2  A    between atoms: C_2  and  N_3
REMARK    3  A    between atoms: N_3  and  C_4
REMARK    4  A    between atoms: N_3  and  C_6
REMARK    5  A    between atoms: C_4  and  C_5
REMARK    6  A    between atoms: C_9  and  C_12
REMARK    7  A    between atoms: C_20  and  O_34
REMARK    8  A    between atoms: N_23  and  C_24
REMARK    9  A    between atoms: C_24  and  C_25
REMARK   10  A    between atoms: N_27  and  C_28
REMARK                            x       y       z     vdW  Elec       q    Type
REMARK                         _______ _______ _______ _____ _____    ______ ____
ROOT
ATOM      1  C   UNL     1      -4.050  -1.455   5.294  0.00  0.00    -0.031 C 
ATOM      2  C   UNL     1      -4.023  -2.898   5.806  0.00  0.00    +0.011 C 
ATOM      3  C   UNL     1      -4.801  -3.788   4.834  0.00  0.00    +0.005 C 
ATOM      4  C   UNL     1      -4.811  -5.228   5.351  0.00  0.00    +0.000 C 
ATOM      5  C   UNL     1      -5.490  -5.269   6.722  0.00  0.00    +0.003 C 
ATOM      6  C   UNL     1      -4.712  -4.386   7.699  0.00  0.00    +0.035 C 
ATOM      7  C   UNL     1      -4.673  -2.946   7.191  0.00  0.00    +0.066 C 
ATOM      8  C   UNL     1      -6.099  -2.400   7.096  0.00  0.00    +0.016 C 
ATOM      9  C   UNL     1      -6.056  -0.979   6.530  0.00  0.00    -0.075 C 
ATOM     10  N   UNL     1      -5.441  -0.995   5.198  0.00  0.00    +0.390 N 
ATOM     11  H   UNL     1      -5.959  -1.619   4.598  0.00  0.00    -0.080 HD
ENDROOT
BRANCH   1  15
ATOM     12  C   UNL     1      -2.220  -1.279   1.435  0.00  0.00    +0.030 A 
ATOM     13  C   UNL     1      -1.503  -0.902   2.564  0.00  0.00    +0.023 A 
ATOM     14  C   UNL     1      -2.097  -0.960   3.809  0.00  0.00    +0.004 A 
ATOM     15  C   UNL     1      -3.405  -1.392   3.933  0.00  0.00    -0.060 A 
ATOM     16  C   UNL     1      -4.122  -1.768   2.812  0.00  0.00    +0.004 A 
ATOM     17  C   UNL     1      -3.535  -1.707   1.563  0.00  0.00    +0.023 A 
BRANCH  12  18
ATOM     18  N   UNL     1      -1.622  -1.221   0.174  0.00  0.00    -0.330 N 
BRANCH  18  20
ATOM     19  C   UNL     1      -0.210   0.747  -0.160  0.00  0.00    +0.024 C 
ATOM     20  C   UNL     1      -0.235  -0.769   0.042  0.00  0.00    +0.102 C 
ENDBRANCH  18  20
BRANCH  18  21
ATOM     21  C   UNL     1      -2.382  -1.613  -1.015  0.00  0.00    +0.102 C 
ATOM     22  C   UNL     1      -2.189  -3.108  -1.274  0.00  0.00    +0.024 C 
ENDBRANCH  18  21
ENDBRANCH  12  18
ENDBRANCH   1  15
BRANCH   7  23
ATOM     23  O   UNL     1      -3.921  -2.133   8.095  0.00  0.00    -0.388 OA
ATOM     24  H   UNL     1      -4.275  -2.115   8.995  0.00  0.00    +0.210 HD
ENDBRANCH   7  23
BRANCH  10  25
ATOM     25  C   UNL     1      -5.469   0.359   4.630  0.00  0.00    +0.020 C 
BRANCH  25  26
ATOM     26  C   UNL     1      -6.899   0.785   4.417  0.00  0.00    +0.201 C 
ATOM     27  O   UNL     1      -7.805   0.033   4.708  0.00  0.00    -0.278 OA
ATOM     28  N   UNL     1      -7.170   2.000   3.901  0.00  0.00    -0.287 N 
ATOM     29  H   UNL     1      -6.451   2.630   3.739  0.00  0.00    +0.155 HD
BRANCH  28  30
ATOM     30  C   UNL     1      -8.490   2.353   3.600  0.00  0.00    +0.033 A 
ATOM     31  C   UNL     1      -8.906   3.671   3.735  0.00  0.00    +0.023 A 
ATOM     32  C   UNL     1     -10.210   4.016   3.436  0.00  0.00    +0.002 A 
ATOM     33  C   UNL     1     -11.100   3.051   3.003  0.00  0.00    +0.000 A 
ATOM     34  C   UNL     1     -10.689   1.738   2.868  0.00  0.00    +0.002 A 
ATOM     35  C   UNL     1      -9.386   1.387   3.159  0.00  0.00    +0.023 A 
ENDBRANCH  28  30
ENDBRANCH  25  26
ENDBRANCH  10  25
TORSDOF 8
