REMARK  Name = ZINC39654374
REMARK  8 active torsions:
REMARK  status: ('A' for Active; 'I' for Inactive)
REMARK    1  A    between atoms: C_1  and  C_2
REMARK    2  A    between atoms: C_2  and  C_3
REMARK    3  A    between atoms: C_6  and  C_9
REMARK    4  A    between atoms: C_9  and  C_10
REMARK    5  A    between atoms: C_10  and  N_11
REMARK    6  A    between atoms: C_12  and  C_14
REMARK    7  A    between atoms: C_25  and  C_27
REMARK    8  A    between atoms: C_30  and  C_34
REMARK                            x       y       z     vdW  Elec       q    Type
REMARK                         _______ _______ _______ _____ _____    ______ ____
ROOT
ATOM      1  C   UNL     1      -9.948  -0.747  -0.511  0.00  0.00    +0.100 C 
ATOM      2  C   UNL     1     -10.458  -1.673  -1.638  0.00  0.00    +0.121 C 
ATOM      3  N   UNL     1     -11.882  -1.301  -1.813  0.00  0.00    -0.296 N 
ATOM      4  C   UNL     1     -11.897   0.175  -1.673  0.00  0.00    +0.115 C 
ATOM      5  C   UNL     1     -10.895   0.466  -0.538  0.00  0.00    -0.004 C 
ATOM      6  C   UNL     1     -10.112   1.740  -0.839  0.00  0.00    -0.010 C 
ATOM      7  C   UNL     1     -11.065   2.939  -0.803  0.00  0.00    -0.082 C 
ATOM      8  N   UNL     1     -11.692   3.027   0.521  0.00  0.00    +0.379 N 
ATOM      9  C   UNL     1     -12.518   1.839   0.764  0.00  0.00    -0.082 C 
ATOM     10  C   UNL     1     -11.627   0.593   0.794  0.00  0.00    -0.010 C 
ATOM     11  C   UNL     1     -12.927  -2.119  -2.047  0.00  0.00    +0.247 C 
ATOM     12  O   UNL     1     -12.776  -3.324  -2.008  0.00  0.00    -0.270 OA
ATOM     13  H   UNL     1     -10.975   3.088   1.228  0.00  0.00    -0.086 HD
ATOM     14  H   UNL     1     -12.272   3.852   0.563  0.00  0.00    -0.086 HD
ENDROOT
BRANCH  11  15
ATOM     15  C   UNL     1     -14.258  -1.550  -2.350  0.00  0.00    +0.040 A 
ATOM     16  C   UNL     1     -14.370  -0.240  -2.817  0.00  0.00    +0.013 A 
ATOM     17  C   UNL     1     -15.614   0.286  -3.099  0.00  0.00    +0.007 A 
ATOM     18  C   UNL     1     -16.750  -0.483  -2.920  0.00  0.00    -0.015 A 
ATOM     19  C   UNL     1     -16.647  -1.784  -2.456  0.00  0.00    +0.127 A 
ATOM     20  C   UNL     1     -15.406  -2.324  -2.175  0.00  0.00    +0.051 A 
ATOM     21  F   UNL     1     -17.761  -2.528  -2.282  0.00  0.00    -0.205 F 
ATOM     22  C   UNL     1     -18.106   0.099  -3.230  0.00  0.00    +0.047 C 
ENDBRANCH  11  15
BRANCH   1  24
ATOM     23  N   UNL     1      -7.696  -0.045   0.233  0.00  0.00    -0.315 N 
ATOM     24  C   UNL     1      -8.532  -0.313  -0.789  0.00  0.00    +0.218 C 
ATOM     25  O   UNL     1      -8.145  -0.205  -1.934  0.00  0.00    -0.275 OA
ATOM     26  H   UNL     1      -8.006  -0.132   1.148  0.00  0.00    +0.149 HD
BRANCH  23  27
ATOM     27  C   UNL     1      -6.319   0.377  -0.037  0.00  0.00    +0.109 C 
BRANCH  27  28
ATOM     28  C   UNL     1      -5.590   0.615   1.286  0.00  0.00    +0.054 C 
BRANCH  28  32
ATOM     29  C   UNL     1      -1.575   1.844   0.500  0.00  0.00    -0.048 A 
ATOM     30  C   UNL     1      -2.577   2.789   0.615  0.00  0.00    +0.004 A 
ATOM     31  C   UNL     1      -3.877   2.391   0.869  0.00  0.00    +0.004 A 
ATOM     32  C   UNL     1      -4.173   1.048   1.008  0.00  0.00    -0.046 A 
ATOM     33  C   UNL     1      -3.171   0.103   0.892  0.00  0.00    +0.004 A 
ATOM     34  C   UNL     1      -1.873   0.501   0.634  0.00  0.00    +0.004 A 
BRANCH  29  36
ATOM     35  C   UNL     1       0.069   2.339  -1.289  0.00  0.00    +0.009 C 
ATOM     36  C   UNL     1      -0.159   2.278   0.223  0.00  0.00    +0.032 C 
ENDBRANCH  29  36
ENDBRANCH  28  32
ENDBRANCH  27  28
ENDBRANCH  23  27
ENDBRANCH   1  24
TORSDOF 6
