REMARK  Name = ZINC04652258
REMARK  8 active torsions:
REMARK  status: ('A' for Active; 'I' for Inactive)
REMARK    1  A    between atoms: C_1  and  C_2
REMARK    2  A    between atoms: C_2  and  C_3
REMARK    3  A    between atoms: C_2  and  C_4
REMARK    4  A    between atoms: C_2  and  C_5
REMARK    5  A    between atoms: C_10  and  C_15
REMARK    6  A    between atoms: N_17  and  N_18
REMARK    7  A    between atoms: C_19  and  C_21
REMARK    8  A    between atoms: C_27  and  C_29
REMARK                            x       y       z     vdW  Elec       q    Type
REMARK                         _______ _______ _______ _____ _____    ______ ____
ROOT
ATOM      1  C   UNL     1       1.209   3.347   0.567  0.00  0.00    +0.261 C 
ATOM      2  O   UNL     1       0.166   3.913   0.832  0.00  0.00    -0.269 OA
ATOM      3  N   UNL     1       1.207   2.030   0.281  0.00  0.00    -0.230 N 
ATOM      4  H   UNL     1       2.039   1.578   0.069  0.00  0.00    +0.173 HD
ENDROOT
BRANCH   1   9
ATOM      5  C   UNL     1       2.766   8.341   1.051  0.00  0.00    -0.000 C 
ATOM      6  C   UNL     1       1.712   7.628   1.903  0.00  0.00    +0.009 C 
ATOM      7  C   UNL     1       1.267   6.339   1.211  0.00  0.00    +0.037 C 
ATOM      8  C   UNL     1       2.503   5.518   0.863  0.00  0.00    -0.025 A 
ATOM      9  C   UNL     1       2.474   4.100   0.559  0.00  0.00    +0.049 A 
ATOM     10  C   UNL     1       3.669   3.480   0.267  0.00  0.00    +0.058 A 
ATOM     11  S   UNL     1       4.822   4.768   0.385  0.00  0.00    -0.101 S 
ATOM     12  C   UNL     1       3.728   6.090   0.820  0.00  0.00    -0.006 A 
ATOM     13  C   UNL     1       4.066   7.524   1.086  0.00  0.00    +0.046 C 
BRANCH   5  15
ATOM     14  C   UNL     1       3.528   9.621   3.056  0.00  0.00    +0.011 C 
ATOM     15  C   UNL     1       3.024   9.739   1.616  0.00  0.00    -0.035 C 
ATOM     16  C   UNL     1       4.077  10.448   0.763  0.00  0.00    +0.011 C 
ATOM     17  C   UNL     1       1.723  10.545   1.596  0.00  0.00    +0.011 C 
ENDBRANCH   5  15
ENDBRANCH   1   9
BRANCH   3  18
ATOM     18  N   UNL     1       0.004   1.313   0.288  0.00  0.00    -0.234 N 
ATOM     19  C   UNL     1       0.002  -0.004   0.002  0.00  0.00    +0.233 C 
ATOM     20  O   UNL     1       1.042  -0.569  -0.262  0.00  0.00    -0.274 OA
ATOM     21  H   UNL     1      -0.829   1.765   0.495  0.00  0.00    +0.173 HD
BRANCH  19  22
ATOM     22  C   UNL     1      -1.293  -0.775   0.010  0.00  0.00    +0.094 C 
ATOM     23  C   UNL     1      -1.060  -2.164   0.610  0.00  0.00    +0.040 C 
ATOM     24  C   UNL     1      -0.247  -3.003  -0.331  0.00  0.00    -0.030 C 
ATOM     25  C   UNL     1      -0.080  -2.733  -1.586  0.00  0.00    -0.030 C 
ATOM     26  C   UNL     1      -0.670  -1.536  -2.273  0.00  0.00    +0.042 C 
ATOM     27  C   UNL     1      -1.800  -0.946  -1.427  0.00  0.00    +0.118 C 
BRANCH  27  28
ATOM     28  C   UNL     1      -2.204   0.395  -1.985  0.00  0.00    +0.360 C 
ATOM     29  O   UNL     1      -2.098   1.388  -1.305  0.00  0.00    -0.246 OA
ATOM     30  O   UNL     1      -2.681   0.485  -3.236  0.00  0.00    -0.246 OA
ENDBRANCH  27  28
ENDBRANCH  19  22
ENDBRANCH   3  18
TORSDOF 5
