REMARK  Name = ZINC47148989
REMARK  9 active torsions:
REMARK  status: ('A' for Active; 'I' for Inactive)
REMARK    1  A    between atoms: C_1  and  C_2
REMARK    2  A    between atoms: C_3  and  C_12
REMARK    3  A    between atoms: C_12  and  C_13
REMARK    4  A    between atoms: C_13  and  C_14
REMARK    5  A    between atoms: N_16  and  C_17
REMARK    6  A    between atoms: C_17  and  C_18
REMARK    7  A    between atoms: C_18  and  N_19
REMARK    8  A    between atoms: C_21  and  C_28
REMARK    9  A    between atoms: C_24  and  C_27
REMARK                            x       y       z     vdW  Elec       q    Type
REMARK                         _______ _______ _______ _____ _____    ______ ____
ROOT
ATOM      1  C   UNL     1      -4.317   0.888  -1.407  0.00  0.00    +0.213 C 
ATOM      2  O   UNL     1      -4.800   1.253  -0.356  0.00  0.00    -0.276 OA
ATOM      3  N   UNL     1      -4.963   1.129  -2.566  0.00  0.00    -0.317 N 
ATOM      4  H   UNL     1      -4.577   0.837  -3.406  0.00  0.00    +0.149 HD
ENDROOT
BRANCH   1   5
ATOM      5  C   UNL     1      -2.994   0.166  -1.419  0.00  0.00    +0.100 C 
BRANCH   5   6
ATOM      6  C   UNL     1      -2.479   0.024   0.015  0.00  0.00    +0.051 C 
BRANCH   6   9
ATOM      7  C   UNL     1      -0.018   1.503   0.010  0.00  0.00    +0.064 C 
ATOM      8  C   UNL     1       0.002  -0.004   0.002  0.00  0.00    +0.026 A 
ATOM      9  C   UNL     1      -1.156  -0.698   0.004  0.00  0.00    +0.036 A 
ATOM     10  C   UNL     1      -1.111  -2.113  -0.005  0.00  0.00    +0.257 A 
ATOM     11  O   UNL     1      -2.142  -2.761  -0.004  0.00  0.00    -0.267 OA
ATOM     12  N   UNL     1       0.084  -2.737  -0.014  0.00  0.00    -0.275 N 
ATOM     13  H   UNL     1       0.123  -3.706  -0.020  0.00  0.00    +0.173 HD
ATOM     14  C   UNL     1       1.224  -2.020  -0.016  0.00  0.00    +0.327 A 
ATOM     15  O   UNL     1       2.294  -2.597  -0.024  0.00  0.00    -0.247 OA
ATOM     16  N   UNL     1       1.194  -0.675  -0.013  0.00  0.00    -0.311 N 
ATOM     17  H   UNL     1       2.026  -0.177  -0.018  0.00  0.00    +0.170 HD
ENDBRANCH   6   9
ENDBRANCH   5   6
ENDBRANCH   1   5
BRANCH   3  18
ATOM     18  C   UNL     1      -6.249   1.831  -2.555  0.00  0.00    +0.085 C 
BRANCH  18  19
ATOM     19  C   UNL     1      -6.764   1.973  -3.988  0.00  0.00    -0.060 C 
BRANCH  19  20
ATOM     20  N   UNL     1      -8.054   2.677  -3.977  0.00  0.00    +0.381 N 
ATOM     21  C   UNL     1      -9.050   1.858  -3.277  0.00  0.00    -0.076 C 
ATOM     22  C   UNL     1     -10.374   2.621  -3.192  0.00  0.00    -0.031 C 
ATOM     23  C   UNL     1     -10.870   2.932  -4.607  0.00  0.00    +0.003 C 
ATOM     24  C   UNL     1      -9.791   3.723  -5.353  0.00  0.00    -0.031 C 
ATOM     25  C   UNL     1      -8.489   2.919  -5.358  0.00  0.00    -0.076 C 
ATOM     26  C   UNL     1     -10.244   3.973  -6.793  0.00  0.00    +0.005 C 
ATOM     27  C   UNL     1     -11.412   1.764  -2.463  0.00  0.00    +0.005 C 
ATOM     28  H   UNL     1      -7.950   3.559  -3.499  0.00  0.00    -0.082 HD
ENDBRANCH  19  20
ENDBRANCH  18  19
ENDBRANCH   3  18
TORSDOF 6
