REMARK  Name = ZINC36502285
REMARK  13 active torsions:
REMARK  status: ('A' for Active; 'I' for Inactive)
REMARK    1  A    between atoms: C_1  and  C_2
REMARK    2  A    between atoms: C_2  and  C_3
REMARK    3  A    between atoms: C_3  and  C_4
REMARK    4  A    between atoms: C_4  and  N_5
REMARK    5  A    between atoms: C_6  and  C_8
REMARK    6  A    between atoms: C_8  and  C_10
REMARK    7  A    between atoms: C_8  and  N_17
REMARK    8  A    between atoms: N_17  and  C_18
REMARK    9  A    between atoms: C_18  and  C_19
REMARK   10  A    between atoms: C_24  and  C_26
REMARK   11  A    between atoms: C_26  and  C_27
REMARK   12  A    between atoms: C_26  and  C_33
REMARK   13  A    between atoms: C_26  and  O_39
REMARK                            x       y       z     vdW  Elec       q    Type
REMARK                         _______ _______ _______ _____ _____    ______ ____
ROOT
ATOM      1  N   UNL     1       2.112  -7.155  -2.606  0.00  0.00    -0.276 N 
ATOM      2  C   UNL     1       3.298  -7.330  -3.221  0.00  0.00    +0.258 C 
ATOM      3  O   UNL     1       4.263  -6.682  -2.874  0.00  0.00    -0.272 OA
ENDROOT
BRANCH   1   4
ATOM      4  C   UNL     1       1.965  -6.120  -1.579  0.00  0.00    +0.193 C 
BRANCH   4   5
ATOM      5  C   UNL     1       1.781  -4.779  -2.241  0.00  0.00    -0.018 A 
ATOM      6  C   UNL     1       0.846  -4.628  -3.248  0.00  0.00    +0.007 A 
ATOM      7  C   UNL     1       0.676  -3.398  -3.855  0.00  0.00    +0.020 A 
ATOM      8  C   UNL     1       1.442  -2.318  -3.455  0.00  0.00    +0.041 A 
ATOM      9  C   UNL     1       2.377  -2.469  -2.447  0.00  0.00    +0.020 A 
ATOM     10  C   UNL     1       2.542  -3.698  -1.837  0.00  0.00    +0.007 A 
ATOM     11 CL   UNL     1       1.230  -0.773  -4.218  0.00  0.00    -0.084 Cl
ENDBRANCH   4   5
BRANCH   4  13
ATOM     12  N   UNL     1       0.830  -6.272   0.614  0.00  0.00    -0.313 N 
ATOM     13  C   UNL     1       0.763  -6.428  -0.724  0.00  0.00    +0.238 C 
ATOM     14  O   UNL     1      -0.264  -6.816  -1.238  0.00  0.00    -0.273 OA
ATOM     15  H   UNL     1       1.652  -5.962   1.025  0.00  0.00    +0.149 HD
BRANCH  12  16
ATOM     16  C   UNL     1      -0.338  -6.571   1.445  0.00  0.00    +0.104 C 
BRANCH  16  17
ATOM     17  C   UNL     1       0.002  -6.313   2.914  0.00  0.00    +0.018 C 
BRANCH  17  19
ATOM     18  C   UNL     1      -0.878  -6.367   5.252  0.00  0.00    +0.004 C 
ATOM     19  C   UNL     1      -1.218  -6.625   3.783  0.00  0.00    -0.002 C 
ENDBRANCH  17  19
ENDBRANCH  16  17
ENDBRANCH  12  16
ENDBRANCH   4  13
ENDBRANCH   1   4
BRANCH   1  20
ATOM     20  C   UNL     1       0.970  -8.000  -2.962  0.00  0.00    +0.183 C 
BRANCH  20  21
ATOM     21  C   UNL     1       0.861  -9.138  -1.982  0.00  0.00    +0.122 A 
ATOM     22  C   UNL     1      -0.066  -9.257  -1.014  0.00  0.00    +0.046 A 
ATOM     23  C   UNL     1       0.204 -10.468  -0.335  0.00  0.00    +0.041 A 
ATOM     24  C   UNL     1       1.279 -11.017  -0.929  0.00  0.00    +0.195 A 
ATOM     25  O   UNL     1       1.669 -10.210  -1.929  0.00  0.00    -0.466 OA
ENDBRANCH  20  21
ENDBRANCH   1  20
BRANCH   2  26
ATOM     26  C   UNL     1       3.425  -8.331  -4.341  0.00  0.00    +0.192 C 
BRANCH  26  27
ATOM     27  C   UNL     1       3.042  -7.678  -5.644  0.00  0.00    -0.003 A 
ATOM     28  C   UNL     1       3.516  -6.416  -5.950  0.00  0.00    +0.007 A 
ATOM     29  C   UNL     1       3.165  -5.817  -7.146  0.00  0.00    +0.000 A 
ATOM     30  C   UNL     1       2.340  -6.480  -8.035  0.00  0.00    +0.000 A 
ATOM     31  C   UNL     1       1.867  -7.743  -7.729  0.00  0.00    +0.000 A 
ATOM     32  C   UNL     1       2.222  -8.343  -6.536  0.00  0.00    +0.007 A 
ENDBRANCH  26  27
BRANCH  26  33
ATOM     33  C   UNL     1       4.850  -8.816  -4.422  0.00  0.00    -0.003 A 
ATOM     34  C   UNL     1       5.881  -7.909  -4.581  0.00  0.00    +0.007 A 
ATOM     35  C   UNL     1       7.188  -8.354  -4.655  0.00  0.00    +0.000 A 
ATOM     36  C   UNL     1       7.463  -9.706  -4.569  0.00  0.00    +0.000 A 
ATOM     37  C   UNL     1       6.432 -10.612  -4.409  0.00  0.00    +0.000 A 
ATOM     38  C   UNL     1       5.126 -10.167  -4.330  0.00  0.00    +0.007 A 
ENDBRANCH  26  33
BRANCH  26  39
ATOM     39  O   UNL     1       2.558  -9.439  -4.090  0.00  0.00    -0.371 OA
ATOM     40  H   UNL     1       2.747  -9.907  -3.266  0.00  0.00    +0.212 HD
ENDBRANCH  26  39
ENDBRANCH   2  26
TORSDOF 12
