REMARK  Name = ZINC14457115
REMARK  6 active torsions:
REMARK  status: ('A' for Active; 'I' for Inactive)
REMARK    1  A    between atoms: C_1  and  O_2
REMARK    2  A    between atoms: O_2  and  C_3
REMARK    3  A    between atoms: C_6  and  C_10
REMARK    4  A    between atoms: C_8  and  O_9
REMARK    5  A    between atoms: C_21  and  S_26
REMARK    6  A    between atoms: S_26  and  N_29
REMARK                            x       y       z     vdW  Elec       q    Type
REMARK                         _______ _______ _______ _____ _____    ______ ____
ROOT
ATOM      1  C   UNL     1      -7.949   0.816  -1.110  0.00  0.00    +0.105 C 
ATOM      2  C   UNL     1      -7.857   1.744  -2.325  0.00  0.00    +0.029 C 
ATOM      3  C   UNL     1      -7.913   0.863  -3.608  0.00  0.00    +0.033 C 
ATOM      4  C   UNL     1      -6.483   0.383  -3.766  0.00  0.00    -0.030 C 
ATOM      5  C   UNL     1      -5.658   1.179  -3.131  0.00  0.00    -0.023 C 
ATOM      6  C   UNL     1      -6.423   2.294  -2.458  0.00  0.00    +0.049 C 
ATOM      7  C   UNL     1      -5.814   2.657  -1.141  0.00  0.00    -0.018 A 
ATOM      8  C   UNL     1      -4.640   3.399  -1.131  0.00  0.00    +0.034 A 
ATOM      9  C   UNL     1      -4.044   3.752   0.062  0.00  0.00    +0.106 A 
ATOM     10  C   UNL     1      -4.615   3.381   1.265  0.00  0.00    +0.030 A 
ATOM     11  C   UNL     1      -5.785   2.647   1.268  0.00  0.00    +0.025 A 
ATOM     12  C   UNL     1      -6.383   2.286   0.068  0.00  0.00    +0.031 A 
ATOM     13  N   UNL     1      -7.566   1.538   0.088  0.00  0.00    -0.336 N 
ATOM     14  H   UNL     1      -8.121   1.509   0.882  0.00  0.00    +0.147 HD
ENDROOT
BRANCH   1  18
ATOM     15  C   UNL     1     -11.957  -0.623  -0.710  0.00  0.00    +0.161 A 
ATOM     16  C   UNL     1     -11.624   0.644  -0.258  0.00  0.00    +0.050 A 
ATOM     17  C   UNL     1     -10.328   1.107  -0.389  0.00  0.00    +0.009 A 
ATOM     18  C   UNL     1      -9.361   0.307  -0.970  0.00  0.00    -0.023 A 
ATOM     19  C   UNL     1      -9.687  -0.956  -1.427  0.00  0.00    +0.054 A 
ATOM     20  C   UNL     1     -10.983  -1.427  -1.294  0.00  0.00    +0.159 A 
BRANCH  15  22
ATOM     21  C   UNL     1     -14.177  -0.199   0.029  0.00  0.00    +0.277 C 
ATOM     22  O   UNL     1     -13.231  -1.079  -0.581  0.00  0.00    -0.491 OA
ENDBRANCH  15  22
BRANCH  20  23
ATOM     23  O   UNL     1     -11.305  -2.672  -1.739  0.00  0.00    -0.503 OA
ATOM     24  H   UNL     1     -11.597  -2.697  -2.660  0.00  0.00    +0.292 HD
ENDBRANCH  20  23
ENDBRANCH   1  18
BRANCH   9  25
ATOM     25  S   UNL     1      -2.550   4.687   0.052  0.00  0.00    +0.061 S 
ATOM     26  O   UNL     1      -2.486   5.363   1.300  0.00  0.00    -0.153 OA
ATOM     27  O   UNL     1      -2.510   5.376  -1.190  0.00  0.00    -0.153 OA
BRANCH  25  28
ATOM     28  N   UNL     1      -1.296   3.606   0.034  0.00  0.00    -0.177 NA
ATOM     29  C   UNL     1      -0.741   3.124  -1.238  0.00  0.00    +0.109 C 
ATOM     30  C   UNL     1      -0.752   1.593  -1.232  0.00  0.00    +0.017 C 
ATOM     31  C   UNL     1      -0.013   1.086   0.008  0.00  0.00    +0.003 C 
ATOM     32  C   UNL     1      -0.729   1.579   1.268  0.00  0.00    +0.017 C 
ATOM     33  C   UNL     1      -0.717   3.111   1.290  0.00  0.00    +0.109 C 
ENDBRANCH  25  28
ENDBRANCH   9  25
TORSDOF 5
