REMARK  Name = ZINC09683666
REMARK  5 active torsions:
REMARK  status: ('A' for Active; 'I' for Inactive)
REMARK    1  A    between atoms: C_4  and  C_7
REMARK    2  A    between atoms: C_7  and  C_28
REMARK    3  A    between atoms: N_10  and  N_14
REMARK    4  A    between atoms: C_15  and  C_17
REMARK    5  A    between atoms: C_17  and  N_18
REMARK                            x       y       z     vdW  Elec       q    Type
REMARK                         _______ _______ _______ _____ _____    ______ ____
ROOT
ATOM      1  C   UNL     1      -1.235   2.107   0.018  0.00  0.00    +0.165 C 
ATOM      2  C   UNL     1      -0.243   1.246  -0.738  0.00  0.00    +0.272 C 
ATOM      3  O   UNL     1      -0.473   0.213  -1.331  0.00  0.00    -0.270 OA
ATOM      4  N   UNL     1       0.946   1.869  -0.620  0.00  0.00    -0.137 N 
ATOM      5  C   UNL     1       0.845   2.991   0.103  0.00  0.00    +0.327 C 
ATOM      6  O   UNL     1       1.783   3.724   0.347  0.00  0.00    -0.251 OA
ATOM      7  N   UNL     1      -0.411   3.216   0.530  0.00  0.00    -0.276 N 
ATOM      8  H   UNL     1      -0.715   3.965   1.066  0.00  0.00    +0.152 HD
ENDROOT
BRANCH   1  12
ATOM      9  C   UNL     1      -4.268   3.568  -2.611  0.00  0.00    +0.000 A 
ATOM     10  C   UNL     1      -3.612   4.439  -1.760  0.00  0.00    +0.000 A 
ATOM     11  C   UNL     1      -2.631   3.966  -0.910  0.00  0.00    +0.006 A 
ATOM     12  C   UNL     1      -2.305   2.623  -0.909  0.00  0.00    -0.011 A 
ATOM     13  C   UNL     1      -2.957   1.753  -1.763  0.00  0.00    +0.006 A 
ATOM     14  C   UNL     1      -3.942   2.224  -2.610  0.00  0.00    +0.000 A 
ENDBRANCH   1  12
BRANCH   1  15
ATOM     15  C   UNL     1      -1.846   1.335   1.159  0.00  0.00    -0.011 A 
ATOM     16  C   UNL     1      -2.405   0.091   0.930  0.00  0.00    +0.006 A 
ATOM     17  C   UNL     1      -2.962  -0.620   1.977  0.00  0.00    +0.000 A 
ATOM     18  C   UNL     1      -2.968  -0.082   3.251  0.00  0.00    +0.000 A 
ATOM     19  C   UNL     1      -2.415   1.164   3.478  0.00  0.00    +0.000 A 
ATOM     20  C   UNL     1      -1.854   1.872   2.432  0.00  0.00    +0.006 A 
ENDBRANCH   1  15
BRANCH   4  21
ATOM     21  N   UNL     1       2.140   1.401  -1.183  0.00  0.00    -0.222 N 
ATOM     22  C   UNL     1       2.648   1.999  -2.279  0.00  0.00    +0.250 C 
ATOM     23  O   UNL     1       2.071   2.942  -2.777  0.00  0.00    -0.272 OA
ATOM     24  H   UNL     1       2.601   0.646  -0.784  0.00  0.00    +0.174 HD
BRANCH  22  25
ATOM     25  C   UNL     1       3.932   1.495  -2.885  0.00  0.00    +0.223 C 
BRANCH  25  26
ATOM     26  N   UNL     1       4.270   2.305  -4.058  0.00  0.00    -0.290 N 
ATOM     27  C   UNL     1       3.813   1.930  -5.280  0.00  0.00    +0.203 A 
ATOM     28  N   UNL     1       4.088   2.629  -6.348  0.00  0.00    -0.230 NA
ATOM     29  C   UNL     1       4.835   3.727  -6.275  0.00  0.00    +0.115 A 
ATOM     30  C   UNL     1       5.358   4.191  -5.055  0.00  0.00    +0.072 A 
ATOM     31  C   UNL     1       5.032   3.404  -3.902  0.00  0.00    +0.263 A 
ATOM     32  O   UNL     1       5.439   3.724  -2.799  0.00  0.00    -0.267 OA
ATOM     33  C   UNL     1       6.152   5.402  -5.148  0.00  0.00    +0.023 A 
ATOM     34  C   UNL     1       6.329   5.979  -6.348  0.00  0.00    +0.048 A 
ATOM     35  S   UNL     1       5.424   4.914  -7.455  0.00  0.00    -0.077 S 
ENDBRANCH  25  26
ENDBRANCH  22  25
ENDBRANCH   4  21
TORSDOF 5
