REMARK  Name = ZINC13518513
REMARK  7 active torsions:
REMARK  status: ('A' for Active; 'I' for Inactive)
REMARK    1  A    between atoms: C_1  and  C_2
REMARK    2  A    between atoms: C_2  and  O_3
REMARK    3  A    between atoms: O_3  and  C_4
REMARK    4  A    between atoms: C_4  and  C_6
REMARK    5  A    between atoms: C_7  and  N_35
REMARK    6  A    between atoms: N_18  and  C_21
REMARK    7  A    between atoms: C_25  and  C_28
REMARK                            x       y       z     vdW  Elec       q    Type
REMARK                         _______ _______ _______ _____ _____    ______ ____
ROOT
ATOM      1  C   UNL     1      -1.657   2.537  -3.644  0.00  0.00    +0.117 C 
ATOM      2  C   UNL     1      -0.957   1.377  -3.535  0.00  0.00    +0.195 C 
ATOM      3  O   UNL     1      -0.686   0.837  -2.338  0.00  0.00    -0.446 OA
ATOM      4  C   UNL     1      -0.708   1.602  -1.230  0.00  0.00    +0.116 C 
ATOM      5  C   UNL     1      -1.390   2.762  -1.194  0.00  0.00    +0.057 C 
ATOM      6  C   UNL     1      -2.139   3.244  -2.410  0.00  0.00    +0.141 C 
ATOM      7  C   UNL     1      -3.614   3.065  -2.229  0.00  0.00    -0.002 A 
ATOM      8  C   UNL     1      -4.381   1.935  -2.043  0.00  0.00    +0.007 A 
ATOM      9  C   UNL     1      -5.753   2.120  -1.904  0.00  0.00    +0.000 A 
ATOM     10  C   UNL     1      -6.317   3.379  -1.953  0.00  0.00    +0.002 A 
ATOM     11  C   UNL     1      -5.552   4.519  -2.139  0.00  0.00    +0.024 A 
ATOM     12  C   UNL     1      -4.174   4.348  -2.279  0.00  0.00    +0.041 A 
ATOM     13  N   UNL     1      -3.186   5.296  -2.474  0.00  0.00    -0.273 N 
ATOM     14  C   UNL     1      -1.960   4.740  -2.562  0.00  0.00    +0.240 C 
ATOM     15  O   UNL     1      -0.912   5.327  -2.731  0.00  0.00    -0.274 OA
ATOM     16  C   UNL     1      -3.440   6.736  -2.574  0.00  0.00    +0.138 C 
ATOM     17  C   UNL     1      -1.423   3.556  -0.032  0.00  0.00    +0.165 C 
ATOM     18  O   UNL     1      -2.034   4.605  -0.044  0.00  0.00    -0.292 OA
ATOM     19  C   UNL     1      -0.716   3.127   1.225  0.00  0.00    +0.088 C 
ATOM     20  C   UNL     1      -0.644   1.596   1.254  0.00  0.00    +0.034 C 
ATOM     21  C   UNL     1       0.056   1.120  -0.020  0.00  0.00    +0.083 C 
ENDROOT
BRANCH  20  22
ATOM     22  C   UNL     1       0.141   1.150   2.461  0.00  0.00    -0.043 A 
ATOM     23  C   UNL     1       1.451   1.561   2.623  0.00  0.00    +0.007 A 
ATOM     24  C   UNL     1       2.170   1.157   3.732  0.00  0.00    +0.038 A 
ATOM     25  C   UNL     1       1.581   0.331   4.675  0.00  0.00    +0.123 A 
ATOM     26  C   UNL     1       0.271  -0.084   4.508  0.00  0.00    +0.038 A 
ATOM     27  C   UNL     1      -0.448   0.325   3.401  0.00  0.00    +0.007 A 
ATOM     28  F   UNL     1       2.285  -0.069   5.756  0.00  0.00    -0.205 F 
ENDBRANCH  20  22
BRANCH   2  29
ATOM     29  N   UNL     1      -0.518   0.749  -4.670  0.00  0.00    -0.329 N 
ATOM     30  H   UNL     1      -0.211   1.272  -5.426  0.00  0.00    +0.145 HD
ATOM     31  H   UNL     1      -0.515  -0.220  -4.717  0.00  0.00    +0.145 HD
ENDBRANCH   2  29
BRANCH   1  32
ATOM     32  C   UNL     1      -1.931   3.075  -4.911  0.00  0.00    +0.342 C 
ATOM     33  O   UNL     1      -1.461   2.555  -5.907  0.00  0.00    -0.245 OA
BRANCH  32  34
ATOM     34  O   UNL     1      -2.713   4.170  -5.026  0.00  0.00    -0.462 OA
BRANCH  34  36
ATOM     35  C   UNL     1      -3.851   5.897  -6.275  0.00  0.00    +0.048 C 
ATOM     36  C   UNL     1      -2.950   4.663  -6.346  0.00  0.00    +0.229 C 
ENDBRANCH  34  36
ENDBRANCH  32  34
ENDBRANCH   1  32
TORSDOF 5
