REMARK  Name = ZINC05230903
REMARK  15 active torsions:
REMARK  status: ('A' for Active; 'I' for Inactive)
REMARK    1  A    between atoms: C_1  and  C_2
REMARK    2  A    between atoms: C_2  and  C_3
REMARK    3  A    between atoms: C_2  and  O_4
REMARK    4  A    between atoms: O_4  and  C_5
REMARK    5  A    between atoms: C_8  and  C_11
REMARK    6  A    between atoms: C_11  and  N_69
REMARK    7  A    between atoms: C_12  and  C_13
REMARK    8  A    between atoms: C_12  and  N_69
REMARK    9  A    between atoms: C_13  and  C_15
REMARK   10  A    between atoms: C_13  and  C_17
REMARK   11  A    between atoms: C_15  and  O_16
REMARK   12  A    between atoms: C_17  and  C_25
REMARK   13  A    between atoms: C_21  and  C_23
REMARK   14  A    between atoms: C_21  and  C_24
REMARK   15  A    between atoms: C_25  and  C_26
REMARK                            x       y       z     vdW  Elec       q    Type
REMARK                         _______ _______ _______ _____ _____    ______ ____
ROOT
ATOM      1  C   UNL     1       1.836   2.685   0.519  0.00  0.00    +0.004 C 
ENDROOT
BRANCH   1   2
ATOM      2  C   UNL     1       2.732   3.805  -0.016  0.00  0.00    -0.017 C 
ATOM      3  C   UNL     1       4.079   3.775   0.712  0.00  0.00    +0.035 C 
ATOM      4  C   UNL     1       4.995   4.847   0.116  0.00  0.00    +0.161 C 
ATOM      5  O   UNL     1       5.149   4.615  -1.285  0.00  0.00    -0.374 OA
ATOM      6  C   UNL     1       3.928   4.678  -2.025  0.00  0.00    +0.064 C 
ATOM      7  C   UNL     1       2.969   3.599  -1.515  0.00  0.00    +0.042 C 
ATOM      8  C   UNL     1       3.290   6.056  -1.841  0.00  0.00    +0.041 C 
ATOM      9  C   UNL     1       4.218   4.444  -3.509  0.00  0.00    +0.041 C 
BRANCH   2  10
ATOM     10  C   UNL     1       2.054   5.157   0.216  0.00  0.00    +0.042 C 
BRANCH  10  11
ATOM     11  C   UNL     1       1.697   5.296   1.673  0.00  0.00    -0.047 A 
ATOM     12  C   UNL     1       0.373   5.249   2.068  0.00  0.00    +0.003 A 
ATOM     13  C   UNL     1       0.046   5.373   3.406  0.00  0.00    +0.000 A 
ATOM     14  C   UNL     1       1.042   5.553   4.347  0.00  0.00    +0.000 A 
ATOM     15  C   UNL     1       2.365   5.605   3.952  0.00  0.00    +0.000 A 
ATOM     16  C   UNL     1       2.693   5.477   2.615  0.00  0.00    +0.003 A 
ENDBRANCH  10  11
ENDBRANCH   2  10
ENDBRANCH   1   2
BRANCH   1  17
ATOM     17  C   UNL     1       2.071   2.518   2.021  0.00  0.00    -0.076 C 
BRANCH  17  18
ATOM     18  N   UNL     1       1.257   1.392   2.516  0.00  0.00    +0.382 N 
ATOM     19  H   UNL     1       0.278   1.537   2.242  0.00  0.00    -0.085 HD
ATOM     20  H   UNL     1       1.602   0.517   2.103  0.00  0.00    -0.085 HD
BRANCH  18  21
ATOM     21  C   UNL     1       1.343   1.304   3.986  0.00  0.00    -0.047 C 
BRANCH  21  25
ATOM     22  C   UNL     1      -1.041  -1.976   5.335  0.00  0.00    +0.121 A 
ATOM     23  C   UNL     1       0.295  -2.172   5.016  0.00  0.00    +0.046 A 
ATOM     24  C   UNL     1       1.063  -1.111   4.580  0.00  0.00    +0.005 A 
ATOM     25  C   UNL     1       0.502   0.148   4.461  0.00  0.00    -0.064 A 
ATOM     26  C   UNL     1      -0.827   0.347   4.784  0.00  0.00    +0.005 A 
ATOM     27  C   UNL     1      -1.602  -0.713   5.215  0.00  0.00    +0.046 A 
BRANCH  22  28
ATOM     28  O   UNL     1      -1.799  -3.019   5.763  0.00  0.00    -0.489 OA
BRANCH  28  30
ATOM     29  C   UNL     1      -1.912  -5.096   6.993  0.00  0.00    +0.051 C 
ATOM     30  C   UNL     1      -1.130  -4.263   5.976  0.00  0.00    +0.167 C 
ATOM     31  C   UNL     1      -1.040  -5.027   4.653  0.00  0.00    +0.051 C 
ENDBRANCH  28  30
ENDBRANCH  22  28
ENDBRANCH  21  25
ENDBRANCH  18  21
ENDBRANCH  17  18
ENDBRANCH   1  17
BRANCH   1  32
ATOM     32  C   UNL     1       2.173   1.377  -0.199  0.00  0.00    +0.158 C 
BRANCH  32  33
ATOM     33  O   UNL     1       1.238   0.367   0.187  0.00  0.00    -0.395 OA
ATOM     34  H   UNL     1       1.391  -0.491  -0.230  0.00  0.00    +0.209 HD
ENDBRANCH  32  33
ENDBRANCH   1  32
TORSDOF 11
