REMARK  Name = ZINC08788882
REMARK  11 active torsions:
REMARK  status: ('A' for Active; 'I' for Inactive)
REMARK    1  A    between atoms: C_1  and  C_2
REMARK    2  A    between atoms: C_2  and  C_3
REMARK    3  A    between atoms: C_3  and  O_4
REMARK    4  A    between atoms: O_4  and  C_5
REMARK    5  A    between atoms: C_8  and  C_14
REMARK    6  A    between atoms: C_10  and  O_11
REMARK    7  A    between atoms: O_11  and  C_12
REMARK    8  A    between atoms: C_12  and  C_13
REMARK    9  A    between atoms: N_21  and  C_36
REMARK   10  A    between atoms: C_24  and  C_35
REMARK   11  A    between atoms: C_36  and  C_37
REMARK                            x       y       z     vdW  Elec       q    Type
REMARK                         _______ _______ _______ _____ _____    ______ ____
ROOT
ATOM      1  C   UNL     1       2.024   1.849   1.300  0.00  0.00    +0.069 C 
ATOM      2  C   UNL     1       1.274   2.169   0.002  0.00  0.00    +0.122 C 
ATOM      3  N   UNL     1      -0.018   1.458   0.010  0.00  0.00    -0.280 N 
ATOM      4  C   UNL     1      -1.151   2.164   0.041  0.00  0.00    +0.234 C 
ATOM      5  O   UNL     1      -1.074   3.367  -0.096  0.00  0.00    -0.274 OA
ATOM      6  C   UNL     1      -2.508   1.568   0.234  0.00  0.00    +0.204 C 
ATOM      7  N   UNL     1      -2.452   0.129   0.430  0.00  0.00    -0.283 N 
ATOM      8  C   UNL     1      -1.332  -0.587   0.331  0.00  0.00    +0.246 C 
ATOM      9  O   UNL     1      -1.401  -1.783   0.520  0.00  0.00    -0.273 OA
ATOM     10  C   UNL     1       0.002  -0.004   0.002  0.00  0.00    +0.151 C 
ATOM     11  C   UNL     1       1.041  -0.465   0.996  0.00  0.00    +0.054 A 
ATOM     12  C   UNL     1       1.939   0.368   1.567  0.00  0.00    -0.008 A 
ATOM     13  C   UNL     1       2.759  -0.436   2.450  0.00  0.00    +0.004 A 
ATOM     14  C   UNL     1       3.834  -0.125   3.289  0.00  0.00    +0.010 A 
ATOM     15  C   UNL     1       4.385  -1.162   4.002  0.00  0.00    +0.001 A 
ATOM     16  C   UNL     1       3.907  -2.459   3.903  0.00  0.00    +0.002 A 
ATOM     17  C   UNL     1       2.845  -2.794   3.080  0.00  0.00    +0.026 A 
ATOM     18  C   UNL     1       2.267  -1.762   2.344  0.00  0.00    +0.047 A 
ATOM     19  N   UNL     1       1.230  -1.740   1.456  0.00  0.00    -0.356 N 
ATOM     20  H   UNL     1       0.705  -2.512   1.192  0.00  0.00    +0.166 HD
ATOM     21  C   UNL     1       0.405  -0.485  -1.393  0.00  0.00    +0.048 C 
ENDROOT
BRANCH   1  25
ATOM     22  C   UNL     1       0.242   3.988   4.546  0.00  0.00    +0.162 A 
ATOM     23  C   UNL     1      -0.510   3.087   3.810  0.00  0.00    +0.050 A 
ATOM     24  C   UNL     1       0.068   2.397   2.761  0.00  0.00    +0.008 A 
ATOM     25  C   UNL     1       1.398   2.604   2.444  0.00  0.00    -0.035 A 
ATOM     26  C   UNL     1       2.156   3.497   3.178  0.00  0.00    +0.053 A 
ATOM     27  C   UNL     1       1.581   4.196   4.227  0.00  0.00    +0.162 A 
BRANCH  22  28
ATOM     28  O   UNL     1      -0.326   4.668   5.578  0.00  0.00    -0.488 OA
BRANCH  28  29
ATOM     29  C   UNL     1      -1.704   4.404   5.849  0.00  0.00    +0.229 C 
BRANCH  29  31
ATOM     30  C   UNL     1      -3.638   4.971   7.324  0.00  0.00    +0.007 C 
ATOM     31  C   UNL     1      -2.163   5.254   7.035  0.00  0.00    +0.038 C 
ENDBRANCH  29  31
ENDBRANCH  28  29
ENDBRANCH  22  28
BRANCH  27  32
ATOM     32  O   UNL     1       2.324   5.079   4.947  0.00  0.00    -0.489 OA
BRANCH  32  33
ATOM     33  C   UNL     1       3.691   5.241   4.563  0.00  0.00    +0.226 C 
ATOM     34  C   UNL     1       4.360   6.266   5.480  0.00  0.00    +0.048 C 
ENDBRANCH  32  33
ENDBRANCH  27  32
ENDBRANCH   1  25
BRANCH   7  35
ATOM     35  C   UNL     1      -3.695  -0.574   0.756  0.00  0.00    +0.182 C 
BRANCH  35  36
ATOM     36  C   UNL     1      -3.872  -0.616   2.252  0.00  0.00    +0.122 A 
ATOM     37  C   UNL     1      -4.503   0.310   2.996  0.00  0.00    +0.046 A 
ATOM     38  C   UNL     1      -4.435  -0.127   4.339  0.00  0.00    +0.041 A 
ATOM     39  C   UNL     1      -3.759  -1.290   4.336  0.00  0.00    +0.195 A 
ATOM     40  O   UNL     1      -3.421  -1.581   3.069  0.00  0.00    -0.466 OA
ENDBRANCH  35  36
ENDBRANCH   7  35
TORSDOF 8
