REMARK  Name = ZINC12466415
REMARK  6 active torsions:
REMARK  status: ('A' for Active; 'I' for Inactive)
REMARK    1  A    between atoms: C_1  and  C_2
REMARK    2  A    between atoms: C_7  and  N_8
REMARK    3  A    between atoms: C_9  and  C_11
REMARK    4  A    between atoms: C_16  and  O_30
REMARK    5  A    between atoms: N_21  and  N_22
REMARK    6  A    between atoms: N_22  and  C_23
REMARK                            x       y       z     vdW  Elec       q    Type
REMARK                         _______ _______ _______ _____ _____    ______ ____
ROOT
ATOM      1  C   UNL     1      -0.221   0.031   4.821  0.00  0.00    +0.099 A 
ATOM      2  C   UNL     1      -0.189  -0.651   6.016  0.00  0.00    +0.030 A 
ATOM      3  C   UNL     1      -0.240   0.138   7.250  0.00  0.00    +0.018 A 
ATOM      4  C   UNL     1       0.056  -0.449   8.486  0.00  0.00    +0.015 A 
ATOM      5  C   UNL     1       0.006   0.303   9.625  0.00  0.00    +0.046 A 
ATOM      6  C   UNL     1      -0.337   1.652   9.566  0.00  0.00    +0.120 A 
ATOM      7  C   UNL     1      -0.634   2.249   8.349  0.00  0.00    +0.092 A 
ATOM      8  C   UNL     1      -0.590   1.500   7.187  0.00  0.00    +0.141 A 
ATOM      9  O   UNL     1      -0.883   2.066   5.988  0.00  0.00    -0.437 OA
ATOM     10  C   UNL     1      -0.299   1.508   4.886  0.00  0.00    +0.224 A 
ATOM     11  N   UNL     1       0.170   2.249   3.921  0.00  0.00    -0.276 N 
ATOM     12  H   UNL     1       0.678   1.844   3.201  0.00  0.00    +0.187 HD
ENDROOT
BRANCH   1  14
ATOM     13  N   UNL     1      -0.317   0.007   2.381  0.00  0.00    -0.281 N 
ATOM     14  C   UNL     1      -0.174  -0.678   3.533  0.00  0.00    +0.253 C 
ATOM     15  O   UNL     1      -0.006  -1.883   3.508  0.00  0.00    -0.270 OA
ATOM     16  H   UNL     1      -0.401   0.973   2.399  0.00  0.00    +0.155 HD
BRANCH  13  23
ATOM     17  C   UNL     1      -1.501   1.304   0.143  0.00  0.00    +0.045 C 
ATOM     18  C   UNL     1      -0.913  -0.080   0.043  0.00  0.00    -0.029 A 
ATOM     19  C   UNL     1      -0.933  -0.754  -1.162  0.00  0.00    +0.005 A 
ATOM     20  C   UNL     1      -0.394  -2.024  -1.255  0.00  0.00    +0.000 A 
ATOM     21  C   UNL     1       0.168  -2.622  -0.142  0.00  0.00    +0.002 A 
ATOM     22  C   UNL     1       0.193  -1.953   1.066  0.00  0.00    +0.023 A 
ATOM     23  C   UNL     1      -0.344  -0.676   1.161  0.00  0.00    +0.037 A 
ENDBRANCH  13  23
ENDBRANCH   1  14
BRANCH  11  24
ATOM     24  N   UNL     1      -0.059   3.631   3.925  0.00  0.00    -0.258 N 
ATOM     25  H   UNL     1      -0.567   4.037   4.645  0.00  0.00    +0.172 HD
BRANCH  24  26
ATOM     26  C   UNL     1       0.442   4.424   2.893  0.00  0.00    +0.046 A 
ATOM     27  C   UNL     1       1.166   3.843   1.857  0.00  0.00    +0.026 A 
ATOM     28  C   UNL     1       1.661   4.631   0.838  0.00  0.00    +0.017 A 
ATOM     29  C   UNL     1       1.439   5.997   0.846  0.00  0.00    +0.018 A 
ATOM     30  C   UNL     1       0.720   6.578   1.876  0.00  0.00    +0.017 A 
ATOM     31  C   UNL     1       0.216   5.796   2.895  0.00  0.00    +0.026 A 
ATOM     32 BR   UNL     1       2.120   7.072  -0.553  0.00  0.00    -0.050 Br
ENDBRANCH  24  26
ENDBRANCH  11  24
BRANCH   6  33
ATOM     33  O   UNL     1      -0.382   2.387  10.706  0.00  0.00    -0.507 OA
ATOM     34  H   UNL     1       0.457   2.811  10.933  0.00  0.00    +0.292 HD
ENDBRANCH   6  33
TORSDOF 5
