REMARK  Name = ZINC33063424
REMARK  3 active torsions:
REMARK  status: ('A' for Active; 'I' for Inactive)
REMARK    1  A    between atoms: C_8  and  C_14
REMARK    2  A    between atoms: C_17  and  C_20
REMARK    3  A    between atoms: N_25  and  C_28
REMARK                            x       y       z     vdW  Elec       q    Type
REMARK                         _______ _______ _______ _____ _____    ______ ____
ROOT
ATOM      1  C   UNL     1      -1.056  -2.181  -1.834  0.00  0.00    -0.011 A 
ATOM      2  C   UNL     1       0.041  -2.759  -2.447  0.00  0.00    +0.007 A 
ATOM      3  C   UNL     1       0.114  -2.817  -3.824  0.00  0.00    +0.013 A 
ATOM      4  C   UNL     1      -0.916  -2.282  -4.598  0.00  0.00    +0.037 A 
ATOM      5  C   UNL     1      -2.018  -1.696  -3.973  0.00  0.00    +0.013 A 
ATOM      6  C   UNL     1      -2.082  -1.648  -2.595  0.00  0.00    +0.007 A 
ENDROOT
BRANCH   1  14
ATOM      7  C   UNL     1      -1.829   2.718  -0.195  0.00  0.00    +0.002 A 
ATOM      8  C   UNL     1      -0.473   2.974  -0.287  0.00  0.00    +0.002 A 
ATOM      9  C   UNL     1       0.428   1.925  -0.277  0.00  0.00    +0.030 A 
ATOM     10  C   UNL     1      -0.026   0.627  -0.176  0.00  0.00    +0.126 A 
ATOM     11  C   UNL     1      -1.384   0.359  -0.068  0.00  0.00    +0.055 A 
ATOM     12  C   UNL     1      -2.286   1.422  -0.087  0.00  0.00    +0.025 A 
ATOM     13  N   UNL     1      -1.874  -0.935   0.080  0.00  0.00    -0.322 N 
ATOM     14  C   UNL     1      -1.133  -2.126  -0.330  0.00  0.00    +0.191 C 
ATOM     15  N   UNL     1       0.231  -2.052   0.233  0.00  0.00    -0.166 NA
ATOM     16  S   UNL     1       1.127  -0.713  -0.200  0.00  0.00    +0.062 S 
ATOM     17  O   UNL     1       1.521  -0.897  -1.553  0.00  0.00    -0.153 OA
ATOM     18  O   UNL     1       2.057  -0.479   0.849  0.00  0.00    -0.153 OA
ATOM     19  H   UNL     1      -2.872  -1.037   0.531  0.00  0.00    +0.148 HD
ATOM     20  H   UNL     1       0.541  -2.757   1.018  0.00  0.00    +0.150 HD
ENDBRANCH   1  14
BRANCH   4  21
ATOM     21  C   UNL     1      -0.842  -2.336  -6.073  0.00  0.00    +0.247 C 
ATOM     22  O   UNL     1      -1.315  -1.435  -6.739  0.00  0.00    -0.270 OA
ATOM     23  N   UNL     1      -0.248  -3.382  -6.680  0.00  0.00    -0.295 N 
ATOM     24  C   UNL     1       0.225  -4.537  -5.902  0.00  0.00    +0.127 C 
ATOM     25  C   UNL     1      -0.341  -5.814  -6.543  0.00  0.00    +0.124 C 
ATOM     26  N   UNL     1       0.013  -5.839  -7.968  0.00  0.00    -0.326 N 
ATOM     27  C   UNL     1      -0.601  -4.717  -8.690  0.00  0.00    +0.124 C 
ATOM     28  C   UNL     1      -0.051  -3.397  -8.138  0.00  0.00    +0.127 C 
BRANCH  26  29
ATOM     29  C   UNL     1      -0.337  -7.061  -8.550  0.00  0.00    +0.048 A 
ATOM     30  C   UNL     1      -1.141  -7.956  -7.858  0.00  0.00    +0.024 A 
ATOM     31  C   UNL     1      -1.491  -9.160  -8.438  0.00  0.00    +0.002 A 
ATOM     32  C   UNL     1      -1.032  -9.479  -9.703  0.00  0.00    +0.002 A 
ATOM     33  C   UNL     1      -0.227  -8.593 -10.394  0.00  0.00    +0.022 A 
ATOM     34  C   UNL     1       0.122  -7.384  -9.822  0.00  0.00    +0.062 A 
ATOM     35 CL   UNL     1       1.134  -6.272 -10.689  0.00  0.00    -0.082 Cl
ENDBRANCH  26  29
ENDBRANCH   4  21
TORSDOF 3
