REMARK  Name = ZINC46915416
REMARK  11 active torsions:
REMARK  status: ('A' for Active; 'I' for Inactive)
REMARK    1  A    between atoms: C_1  and  C_2
REMARK    2  A    between atoms: C_4  and  C_33
REMARK    3  A    between atoms: C_5  and  N_9
REMARK    4  A    between atoms: C_6  and  C_8
REMARK    5  A    between atoms: C_10  and  C_12
REMARK    6  A    between atoms: C_12  and  N_13
REMARK    7  A    between atoms: C_14  and  N_32
REMARK    8  A    between atoms: C_15  and  C_20
REMARK    9  A    between atoms: C_16  and  S_18
REMARK   10  A    between atoms: S_18  and  C_19
REMARK   11  A    between atoms: C_22  and  C_25
REMARK                            x       y       z     vdW  Elec       q    Type
REMARK                         _______ _______ _______ _____ _____    ______ ____
ROOT
ATOM      1  N   UNL     1       0.858  -6.983   2.265  0.00  0.00    -0.240 N 
ATOM      2  C   UNL     1       2.142  -7.204   2.614  0.00  0.00    +0.129 A 
ATOM      3  C   UNL     1       2.139  -7.683   3.920  0.00  0.00    +0.112 A 
ATOM      4  C   UNL     1       0.785  -7.737   4.338  0.00  0.00    +0.133 A 
ATOM      5  N   UNL     1       0.038  -7.314   3.349  0.00  0.00    -0.162 NA
ENDROOT
BRANCH   3   6
ATOM      6  C   UNL     1       3.316  -8.060   4.715  0.00  0.00    +0.265 A 
ATOM      7  N   UNL     1       3.299  -8.517   5.950  0.00  0.00    -0.187 NA
ATOM      8  C   UNL     1       4.553  -8.758   6.364  0.00  0.00    +0.202 A 
ATOM      9  N   UNL     1       5.385  -8.458   5.396  0.00  0.00    -0.056 NA
ATOM     10  O   UNL     1       4.597  -8.005   4.306  0.00  0.00    -0.332 OA
BRANCH   8  11
ATOM     11  C   UNL     1       4.935  -9.280   7.700  0.00  0.00    +0.023 A 
ATOM     12  C   UNL     1       3.952  -9.568   8.645  0.00  0.00    +0.013 A 
ATOM     13  C   UNL     1       4.312 -10.054   9.885  0.00  0.00    +0.021 A 
ATOM     14  C   UNL     1       5.647 -10.255  10.191  0.00  0.00    +0.041 A 
ATOM     15  C   UNL     1       6.627  -9.971   9.255  0.00  0.00    +0.021 A 
ATOM     16  C   UNL     1       6.277  -9.490   8.011  0.00  0.00    +0.013 A 
ATOM     17 CL   UNL     1       6.094 -10.866  11.754  0.00  0.00    -0.084 Cl
ENDBRANCH   8  11
ENDBRANCH   3   6
BRANCH   2  18
ATOM     18  N   UNL     1       3.255  -6.995   1.820  0.00  0.00    -0.343 N 
ATOM     19  H   UNL     1       3.150  -6.656   0.917  0.00  0.00    +0.144 HD
ATOM     20  H   UNL     1       4.141  -7.186   2.166  0.00  0.00    +0.144 HD
ENDBRANCH   2  18
BRANCH   4  21
ATOM     21  S   UNL     1       0.208  -8.274   5.914  0.00  0.00    -0.107 S 
ATOM     22  C   UNL     1      -1.594  -8.102   5.804  0.00  0.00    +0.091 C 
ENDBRANCH   4  21
BRANCH   1  23
ATOM     23  C   UNL     1       0.399  -6.476   0.970  0.00  0.00    +0.241 C 
BRANCH  23  25
ATOM     24  N   UNL     1      -0.052  -4.280  -0.077  0.00  0.00    -0.284 N 
ATOM     25  C   UNL     1       0.345  -4.970   1.011  0.00  0.00    +0.239 C 
ATOM     26  O   UNL     1       0.659  -4.380   2.022  0.00  0.00    -0.273 OA
ATOM     27  H   UNL     1      -0.370  -4.753  -0.862  0.00  0.00    +0.155 HD
BRANCH  24  32
ATOM     28  C   UNL     1       0.136   1.390  -0.065  0.00  0.00    +0.044 C 
ATOM     29  C   UNL     1       0.086  -0.116  -0.068  0.00  0.00    -0.050 A 
ATOM     30  C   UNL     1       0.759  -0.827  -1.045  0.00  0.00    +0.008 A 
ATOM     31  C   UNL     1       0.715  -2.207  -1.051  0.00  0.00    -0.029 A 
ATOM     32  C   UNL     1      -0.005  -2.882  -0.074  0.00  0.00    +0.039 A 
ATOM     33  C   UNL     1      -0.679  -2.165   0.906  0.00  0.00    -0.029 A 
ATOM     34  C   UNL     1      -0.628  -0.785   0.909  0.00  0.00    +0.008 A 
ATOM     35  C   UNL     1      -1.463  -2.893   1.968  0.00  0.00    +0.045 C 
ATOM     36  C   UNL     1       1.448  -2.981  -2.117  0.00  0.00    +0.045 C 
ENDBRANCH  24  32
ENDBRANCH  23  25
ENDBRANCH   1  23
TORSDOF 7
