REMARK  Name = ZINC57289925
REMARK  16 active torsions:
REMARK  status: ('A' for Active; 'I' for Inactive)
REMARK    1  A    between atoms: C_1  and  C_2
REMARK    2  A    between atoms: C_2  and  C_3
REMARK    3  A    between atoms: C_3  and  C_4
REMARK    4  A    between atoms: C_4  and  N_5
REMARK    5  A    between atoms: N_5  and  C_6
REMARK    6  A    between atoms: C_7  and  N_19
REMARK    7  A    between atoms: N_8  and  C_15
REMARK    8  A    between atoms: C_15  and  C_16
REMARK    9  A    between atoms: C_16  and  C_17
REMARK   10  A    between atoms: C_16  and  C_18
REMARK   11  A    between atoms: C_20  and  C_22
REMARK   12  A    between atoms: C_22  and  N_23
REMARK   13  A    between atoms: N_23  and  C_24
REMARK   14  A    between atoms: C_24  and  C_26
REMARK   15  A    between atoms: C_24  and  C_33
REMARK   16  A    between atoms: C_26  and  C_27
REMARK                            x       y       z     vdW  Elec       q    Type
REMARK                         _______ _______ _______ _____ _____    ______ ____
ROOT
ATOM      1  N   UNL     1      -2.689  -2.585   0.029  0.00  0.00    -0.263 N 
ATOM      2  C   UNL     1      -3.117  -2.947   1.256  0.00  0.00    +0.234 C 
ATOM      3  O   UNL     1      -4.192  -3.495   1.386  0.00  0.00    -0.274 OA
ENDROOT
BRANCH   1   4
ATOM      4  C   UNL     1      -3.537  -2.738  -1.089  0.00  0.00    +0.140 A 
ATOM      5  C   UNL     1      -3.224  -3.635  -2.090  0.00  0.00    +0.127 A 
ATOM      6  N   UNL     1      -4.071  -3.762  -3.166  0.00  0.00    -0.280 N 
ATOM      7  C   UNL     1      -5.190  -3.020  -3.243  0.00  0.00    +0.331 A 
ATOM      8  O   UNL     1      -5.926  -3.147  -4.203  0.00  0.00    -0.246 OA
ATOM      9  N   UNL     1      -5.512  -2.141  -2.277  0.00  0.00    -0.273 N 
ATOM     10  H   UNL     1      -6.325  -1.619  -2.355  0.00  0.00    +0.173 HD
ATOM     11  C   UNL     1      -4.720  -1.983  -1.198  0.00  0.00    +0.277 A 
ATOM     12  O   UNL     1      -5.023  -1.187  -0.326  0.00  0.00    -0.266 OA
BRANCH   5  13
ATOM     13  N   UNL     1      -2.080  -4.392  -2.012  0.00  0.00    -0.343 N 
ATOM     14  H   UNL     1      -1.456  -4.255  -1.282  0.00  0.00    +0.144 HD
ATOM     15  H   UNL     1      -1.896  -5.064  -2.687  0.00  0.00    +0.144 HD
ENDBRANCH   5  13
BRANCH   6  16
ATOM     16  C   UNL     1      -3.751  -4.710  -4.236  0.00  0.00    +0.131 C 
BRANCH  16  17
ATOM     17  C   UNL     1      -4.370  -6.071  -3.913  0.00  0.00    +0.003 C 
ATOM     18  C   UNL     1      -4.143  -7.026  -5.087  0.00  0.00    +0.009 C 
ATOM     19  C   UNL     1      -3.714  -6.644  -2.655  0.00  0.00    +0.009 C 
ENDBRANCH  16  17
ENDBRANCH   6  16
ENDBRANCH   1   4
BRANCH   1  20
ATOM     20  C   UNL     1      -1.343  -2.033  -0.144  0.00  0.00    +0.114 C 
BRANCH  20  21
ATOM     21  C   UNL     1      -1.410  -0.505  -0.107  0.00  0.00    +0.019 C 
BRANCH  21  23
ATOM     22  C   UNL     1      -0.071   1.600  -0.251  0.00  0.00    +0.004 C 
ATOM     23  C   UNL     1      -0.004   0.072  -0.288  0.00  0.00    -0.002 C 
ENDBRANCH  21  23
ENDBRANCH  20  21
ENDBRANCH   1  20
BRANCH   2  24
ATOM     24  C   UNL     1      -2.261  -2.671   2.465  0.00  0.00    +0.178 C 
BRANCH  24  25
ATOM     25  N   UNL     1      -2.945  -3.157   3.670  0.00  0.00    -0.301 NA
ATOM     26  H   UNL     1      -3.861  -2.744   3.757  0.00  0.00    +0.123 HD
BRANCH  25  27
ATOM     27  C   UNL     1      -2.138  -2.905   4.872  0.00  0.00    +0.089 C 
BRANCH  27  28
ATOM     28  C   UNL     1      -1.150  -4.027   5.058  0.00  0.00    -0.030 A 
ATOM     29  C   UNL     1      -1.532  -5.333   4.809  0.00  0.00    +0.005 A 
ATOM     30  C   UNL     1      -0.625  -6.362   4.980  0.00  0.00    +0.000 A 
ATOM     31  C   UNL     1       0.662  -6.087   5.400  0.00  0.00    +0.000 A 
ATOM     32  C   UNL     1       1.045  -4.782   5.648  0.00  0.00    +0.000 A 
ATOM     33  C   UNL     1       0.140  -3.752   5.473  0.00  0.00    +0.005 A 
ENDBRANCH  27  28
BRANCH  27  34
ATOM     34  C   UNL     1      -3.054  -2.824   6.094  0.00  0.00    +0.058 C 
BRANCH  34  35
ATOM     35  C   UNL     1      -3.960  -1.626   5.964  0.00  0.00    -0.046 A 
ATOM     36  C   UNL     1      -3.562  -0.400   6.463  0.00  0.00    +0.004 A 
ATOM     37  C   UNL     1      -4.393   0.698   6.343  0.00  0.00    +0.000 A 
ATOM     38  C   UNL     1      -5.622   0.570   5.725  0.00  0.00    +0.000 A 
ATOM     39  C   UNL     1      -6.021  -0.656   5.225  0.00  0.00    +0.000 A 
ATOM     40  C   UNL     1      -5.188  -1.753   5.341  0.00  0.00    +0.004 A 
ENDBRANCH  34  35
ENDBRANCH  27  34
ENDBRANCH  25  27
ENDBRANCH  24  25
ENDBRANCH   2  24
TORSDOF 13
