REMARK  Name = ZINC15969991
REMARK  6 active torsions:
REMARK  status: ('A' for Active; 'I' for Inactive)
REMARK    1  A    between atoms: C_1  and  C_2
REMARK    2  A    between atoms: C_2  and  C_3
REMARK    3  A    between atoms: C_3  and  C_4
REMARK    4  A    between atoms: C_4  and  N_5
REMARK    5  A    between atoms: C_10  and  C_27
REMARK    6  A    between atoms: C_27  and  C_28
REMARK                            x       y       z     vdW  Elec       q    Type
REMARK                         _______ _______ _______ _____ _____    ______ ____
ROOT
ATOM      1  N   UNL     1       1.006  -2.019   3.165  0.00  0.00    -0.242 N 
ATOM      2  C   UNL     1       2.128  -2.736   3.042  0.00  0.00    +0.227 C 
ATOM      3  O   UNL     1       2.584  -3.150   1.998  0.00  0.00    -0.275 OA
ATOM      4  C   UNL     1       2.741  -2.949   4.407  0.00  0.00    +0.107 C 
ATOM      5  C   UNL     1       4.072  -2.174   4.496  0.00  0.00    +0.072 C 
ATOM      6  N   UNL     1       3.690  -0.806   4.939  0.00  0.00    -0.295 NA
ATOM      7  C   UNL     1       2.610  -1.034   5.917  0.00  0.00    +0.136 C 
ATOM      8  C   UNL     1       1.763  -2.205   5.360  0.00  0.00    +0.122 C 
ATOM      9  C   UNL     1       0.708  -1.665   4.420  0.00  0.00    +0.228 C 
ATOM     10  O   UNL     1      -0.258  -1.014   4.754  0.00  0.00    -0.275 OA
ATOM     11  C   UNL     1       1.782   0.202   6.122  0.00  0.00    +0.003 A 
ATOM     12  C   UNL     1       1.024   0.987   5.282  0.00  0.00    +0.008 A 
ATOM     13  C   UNL     1       0.358   2.093   5.780  0.00  0.00    +0.000 A 
ATOM     14  C   UNL     1       0.457   2.409   7.122  0.00  0.00    +0.002 A 
ATOM     15  C   UNL     1       1.214   1.625   7.969  0.00  0.00    +0.023 A 
ATOM     16  C   UNL     1       1.887   0.510   7.476  0.00  0.00    +0.039 A 
ATOM     17  N   UNL     1       2.700  -0.424   8.122  0.00  0.00    -0.283 N 
ATOM     18  C   UNL     1       3.164  -1.365   7.276  0.00  0.00    +0.243 C 
ATOM     19  O   UNL     1       3.888  -2.296   7.556  0.00  0.00    -0.273 OA
ATOM     20  H   UNL     1       4.471  -0.333   5.366  0.00  0.00    +0.124 HD
ATOM     21  H   UNL     1       2.907  -0.398   9.069  0.00  0.00    +0.155 HD
ENDROOT
BRANCH   1  22
ATOM     22  C   UNL     1       0.174  -1.646   2.018  0.00  0.00    +0.116 C 
BRANCH  22  23
ATOM     23  C   UNL     1       0.648  -0.304   1.458  0.00  0.00    +0.019 C 
BRANCH  23  25
ATOM     24  C   UNL     1       0.254   1.427  -0.299  0.00  0.00    +0.004 C 
ATOM     25  C   UNL     1      -0.221   0.085   0.261  0.00  0.00    -0.002 C 
ENDBRANCH  23  25
ENDBRANCH  22  23
ENDBRANCH   1  22
BRANCH   5  26
ATOM     26  C   UNL     1       5.001  -2.827   5.521  0.00  0.00    +0.056 C 
BRANCH  26  27
ATOM     27  C   UNL     1       5.900  -3.817   4.826  0.00  0.00    -0.021 A 
ATOM     28  C   UNL     1       5.687  -5.136   4.700  0.00  0.00    +0.087 A 
ATOM     29  N   UNL     1       6.718  -5.711   4.007  0.00  0.00    -0.360 N 
ATOM     30  H   UNL     1       6.787  -6.654   3.791  0.00  0.00    +0.165 HD
ATOM     31  C   UNL     1       7.643  -4.750   3.662  0.00  0.00    +0.047 A 
ATOM     32  C   UNL     1       7.168  -3.521   4.155  0.00  0.00    +0.003 A 
ATOM     33  C   UNL     1       7.906  -2.355   3.946  0.00  0.00    +0.010 A 
ATOM     34  C   UNL     1       9.087  -2.413   3.260  0.00  0.00    +0.001 A 
ATOM     35  C   UNL     1       9.558  -3.623   2.769  0.00  0.00    +0.002 A 
ATOM     36  C   UNL     1       8.850  -4.787   2.972  0.00  0.00    +0.026 A 
ENDBRANCH  26  27
ENDBRANCH   5  26
TORSDOF 5
