REMARK  Name = ZINC15732157
REMARK  7 active torsions:
REMARK  status: ('A' for Active; 'I' for Inactive)
REMARK    1  A    between atoms: C_1  and  C_2
REMARK    2  A    between atoms: C_2  and  C_3
REMARK    3  A    between atoms: C_8  and  N_9
REMARK    4  A    between atoms: C_25  and  C_27
REMARK    5  A    between atoms: C_30  and  C_33
REMARK    6  A    between atoms: C_33  and  C_34
REMARK    7  A    between atoms: C_33  and  C_35
REMARK                            x       y       z     vdW  Elec       q    Type
REMARK                         _______ _______ _______ _____ _____    ______ ____
ROOT
ATOM      1  N   UNL     1       0.201   0.035   2.416  0.00  0.00    -0.269 N 
ATOM      2  C   UNL     1       0.253  -0.657   3.571  0.00  0.00    +0.308 C 
ATOM      3  O   UNL     1       0.293  -1.873   3.550  0.00  0.00    -0.252 OA
ATOM      4  N   UNL     1       0.261  -0.003   4.750  0.00  0.00    -0.268 N 
ATOM      5  C   UNL     1       0.140   1.465   4.809  0.00  0.00    +0.147 C 
ATOM      6  C   UNL     1      -0.765   1.904   5.926  0.00  0.00    -0.006 A 
ATOM      7  C   UNL     1      -2.044   2.353   5.667  0.00  0.00    +0.007 A 
ATOM      8  C   UNL     1      -2.844   2.797   6.705  0.00  0.00    +0.000 A 
ATOM      9  C   UNL     1      -2.366   2.797   8.003  0.00  0.00    +0.002 A 
ATOM     10  C   UNL     1      -1.093   2.331   8.272  0.00  0.00    +0.026 A 
ATOM     11  C   UNL     1      -0.301   1.863   7.237  0.00  0.00    +0.051 A 
ATOM     12  N   UNL     1       0.944   1.266   7.489  0.00  0.00    -0.318 N 
ATOM     13  C   UNL     1       1.970   1.713   8.256  0.00  0.00    +0.091 A 
ATOM     14  C   UNL     1       2.963   0.798   8.200  0.00  0.00    +0.020 A 
ATOM     15  C   UNL     1       2.527  -0.252   7.364  0.00  0.00    +0.025 A 
ATOM     16  C   UNL     1       1.291   0.059   6.942  0.00  0.00    +0.049 A 
ATOM     17  C   UNL     1       0.384  -0.731   6.028  0.00  0.00    +0.155 C 
ATOM     18  H   UNL     1       0.206   1.005   2.432  0.00  0.00    +0.156 HD
ENDROOT
BRANCH   1  24
ATOM     19  C   UNL     1       0.214   0.061   0.001  0.00  0.00    -0.026 A 
ATOM     20  C   UNL     1       0.146  -0.613  -1.203  0.00  0.00    +0.005 A 
ATOM     21  C   UNL     1       0.015  -1.989  -1.220  0.00  0.00    +0.000 A 
ATOM     22  C   UNL     1      -0.061  -2.695  -0.033  0.00  0.00    +0.002 A 
ATOM     23  C   UNL     1       0.001  -2.027   1.174  0.00  0.00    +0.023 A 
ATOM     24  C   UNL     1       0.138  -0.645   1.195  0.00  0.00    +0.038 A 
BRANCH  19  26
ATOM     25  C   UNL     1       1.843   1.924   0.158  0.00  0.00    +0.009 C 
ATOM     26  C   UNL     1       0.363   1.560   0.019  0.00  0.00    +0.033 C 
ENDBRANCH  19  26
ENDBRANCH   1  24
BRANCH  17  27
ATOM     27  C   UNL     1      -0.976  -0.876   6.661  0.00  0.00    -0.021 A 
ATOM     28  C   UNL     1      -1.097  -0.920   8.037  0.00  0.00    +0.006 A 
ATOM     29  C   UNL     1      -2.345  -1.048   8.618  0.00  0.00    +0.004 A 
ATOM     30  C   UNL     1      -3.471  -1.143   7.822  0.00  0.00    -0.045 A 
ATOM     31  C   UNL     1      -3.350  -1.105   6.445  0.00  0.00    +0.004 A 
ATOM     32  C   UNL     1      -2.102  -0.972   5.865  0.00  0.00    +0.006 A 
BRANCH  30  33
ATOM     33  C   UNL     1      -4.831  -1.289   8.454  0.00  0.00    +0.013 C 
ATOM     34  C   UNL     1      -4.866  -2.564   9.299  0.00  0.00    +0.012 C 
ATOM     35  C   UNL     1      -5.111  -0.078   9.347  0.00  0.00    +0.012 C 
ENDBRANCH  30  33
ENDBRANCH  17  27
TORSDOF 4
