REMARK  Name = ZINC22709192
REMARK  9 active torsions:
REMARK  status: ('A' for Active; 'I' for Inactive)
REMARK    1  A    between atoms: C_1  and  C_2
REMARK    2  A    between atoms: C_4  and  C_14
REMARK    3  A    between atoms: C_5  and  C_13
REMARK    4  A    between atoms: C_9  and  C_12
REMARK    5  A    between atoms: C_14  and  C_16
REMARK    6  A    between atoms: C_16  and  O_17
REMARK    7  A    between atoms: O_17  and  C_18
REMARK    8  A    between atoms: C_18  and  C_20
REMARK    9  A    between atoms: C_22  and  N_28
REMARK                            x       y       z     vdW  Elec       q    Type
REMARK                         _______ _______ _______ _____ _____    ______ ____
ROOT
ATOM      1  C   UNL     1      -0.177  -3.267  -2.946  0.00  0.00    +0.312 C 
ENDROOT
BRANCH   1   2
ATOM      2  C   UNL     1      -0.010  -3.377  -1.453  0.00  0.00    +0.202 C 
ATOM      3  O   UNL     1       0.110  -4.468  -0.934  0.00  0.00    -0.288 OA
BRANCH   2   7
ATOM      4  C   UNL     1      -0.138   1.498   0.023  0.00  0.00    +0.064 C 
ATOM      5  C   UNL     1      -0.051  -0.006   0.008  0.00  0.00    +0.023 A 
ATOM      6  C   UNL     1      -0.123  -0.779  -1.088  0.00  0.00    +0.034 A 
ATOM      7  C   UNL     1       0.009  -2.168  -0.627  0.00  0.00    +0.042 A 
ATOM      8  C   UNL     1       0.152  -2.100   0.746  0.00  0.00    +0.033 A 
ATOM      9  N   UNL     1       0.121  -0.801   1.107  0.00  0.00    -0.299 N 
ATOM     10  C   UNL     1       0.242  -0.335   2.420  0.00  0.00    +0.181 A 
ATOM     11  C   UNL     1       1.222  -0.732   3.356  0.00  0.00    +0.094 A 
ATOM     12  C   UNL     1       1.004  -0.059   4.500  0.00  0.00    +0.136 A 
ATOM     13  O   UNL     1      -0.062   0.737   4.320  0.00  0.00    -0.358 OA
ATOM     14  N   UNL     1      -0.528   0.552   2.996  0.00  0.00    -0.060 NA
ATOM     15  C   UNL     1       1.815  -0.178   5.764  0.00  0.00    +0.089 C 
ATOM     16  C   UNL     1       0.321  -3.273   1.676  0.00  0.00    +0.064 C 
ENDBRANCH   2   7
ENDBRANCH   1   2
BRANCH   1  17
ATOM     17  O   UNL     1      -0.163  -4.574  -3.525  0.00  0.00    -0.452 OA
BRANCH  17  18
ATOM     18  C   UNL     1      -0.303  -4.652  -4.862  0.00  0.00    +0.360 C 
ATOM     19  O   UNL     1      -0.433  -3.639  -5.519  0.00  0.00    -0.243 OA
BRANCH  18  20
ATOM     20  C   UNL     1      -0.298  -5.971  -5.531  0.00  0.00    +0.169 A 
ATOM     21  C   UNL     1      -0.437  -6.044  -6.914  0.00  0.00    +0.095 A 
ATOM     22  C   UNL     1      -0.430  -7.297  -7.529  0.00  0.00    +0.067 A 
ATOM     23  C   UNL     1      -0.283  -8.427  -6.727  0.00  0.00    +0.100 A 
ATOM     24  C   UNL     1      -0.150  -8.272  -5.356  0.00  0.00    +0.150 A 
ATOM     25  N   UNL     1      -0.155  -7.076  -4.805  0.00  0.00    -0.226 NA
ATOM     26 CL   UNL     1       0.034  -9.676  -4.351  0.00  0.00    -0.060 Cl
ATOM     27 CL   UNL     1      -0.267 -10.011  -7.437  0.00  0.00    -0.078 Cl
ATOM     28 CL   UNL     1      -0.617  -4.599  -7.859  0.00  0.00    -0.079 Cl
BRANCH  22  29
ATOM     29  N   UNL     1      -0.567  -7.415  -8.911  0.00  0.00    -0.356 N 
ATOM     30  H   UNL     1      -0.669  -6.620  -9.458  0.00  0.00    +0.142 HD
ATOM     31  H   UNL     1      -0.560  -8.291  -9.326  0.00  0.00    +0.142 HD
ENDBRANCH  22  29
ENDBRANCH  18  20
ENDBRANCH  17  18
ENDBRANCH   1  17
TORSDOF 6
