REMARK  Name = ZINC23362860
REMARK  6 active torsions:
REMARK  status: ('A' for Active; 'I' for Inactive)
REMARK    1  A    between atoms: C_5  and  C_6
REMARK    2  A    between atoms: C_6  and  N_7
REMARK    3  A    between atoms: C_8  and  C_10
REMARK    4  A    between atoms: C_13  and  C_17
REMARK    5  A    between atoms: C_17  and  N_18
REMARK    6  A    between atoms: N_21  and  C_24
REMARK                            x       y       z     vdW  Elec       q    Type
REMARK                         _______ _______ _______ _____ _____    ______ ____
ROOT
ATOM      1  C   UNL     1      -8.164  -4.482  -5.857  0.00  0.00    +0.101 A 
ATOM      2  C   UNL     1      -7.493  -4.973  -6.975  0.00  0.00    +0.020 A 
ATOM      3  C   UNL     1      -6.366  -4.294  -7.439  0.00  0.00    +0.023 A 
ATOM      4  C   UNL     1      -5.938  -3.172  -6.805  0.00  0.00    +0.033 A 
ATOM      5  N   UNL     1      -6.586  -2.689  -5.718  0.00  0.00    -0.324 N 
ATOM      6  C   UNL     1      -7.682  -3.303  -5.233  0.00  0.00    +0.261 A 
ATOM      7  O   UNL     1      -8.255  -2.850  -4.257  0.00  0.00    -0.267 OA
ATOM      8  H   UNL     1      -6.257  -1.886  -5.284  0.00  0.00    +0.169 HD
ENDROOT
BRANCH   1  10
ATOM      9  N   UNL     1     -10.066  -4.622  -4.332  0.00  0.00    -0.307 N 
ATOM     10  C   UNL     1      -9.356  -5.170  -5.338  0.00  0.00    +0.250 C 
ATOM     11  O   UNL     1      -9.701  -6.234  -5.817  0.00  0.00    -0.270 OA
ATOM     12  H   UNL     1      -9.751  -3.812  -3.901  0.00  0.00    +0.149 HD
BRANCH   9  13
ATOM     13  C   UNL     1     -11.312  -5.251  -3.887  0.00  0.00    +0.140 C 
BRANCH  13  18
ATOM     14  C   UNL     1     -12.791  -3.419  -3.019  0.00  0.00    +0.013 A 
ATOM     15  C   UNL     1     -13.307  -2.717  -1.981  0.00  0.00    +0.045 A 
ATOM     16  S   UNL     1     -12.535  -3.509  -0.580  0.00  0.00    -0.105 S 
ATOM     17  C   UNL     1     -11.578  -4.723  -1.472  0.00  0.00    +0.050 A 
ATOM     18  C   UNL     1     -11.905  -4.447  -2.759  0.00  0.00    -0.023 A 
ENDBRANCH  13  18
ENDBRANCH   9  13
ENDBRANCH   1  10
BRANCH   4  19
ATOM     19  C   UNL     1      -4.719  -2.452  -7.320  0.00  0.00    +0.137 C 
BRANCH  19  20
ATOM     20  N   UNL     1      -5.104  -1.116  -7.796  0.00  0.00    -0.300 NA
ATOM     21  C   UNL     1      -3.936  -0.229  -7.878  0.00  0.00    +0.066 C 
ATOM     22  C   UNL     1      -4.387   1.165  -8.319  0.00  0.00    -0.062 C 
ATOM     23  N   UNL     1      -5.048   1.074  -9.628  0.00  0.00    +0.385 N 
ATOM     24  C   UNL     1      -6.227   0.205  -9.524  0.00  0.00    -0.062 C 
ATOM     25  C   UNL     1      -5.791  -1.197  -9.093  0.00  0.00    +0.066 C 
ATOM     26  H   UNL     1      -4.405   0.689 -10.303  0.00  0.00    -0.081 HD
BRANCH  23  27
ATOM     27  C   UNL     1      -5.465   2.415 -10.059  0.00  0.00    -0.065 C 
ATOM     28  C   UNL     1      -4.237   3.321 -10.170  0.00  0.00    -0.009 C 
ATOM     29  C   UNL     1      -4.672   4.717 -10.619  0.00  0.00    -0.012 C 
ATOM     30  C   UNL     1      -5.360   4.623 -11.982  0.00  0.00    +0.007 C 
ATOM     31  C   UNL     1      -6.589   3.717 -11.872  0.00  0.00    -0.012 C 
ATOM     32  C   UNL     1      -6.154   2.321 -11.423  0.00  0.00    -0.009 C 
ATOM     33  C   UNL     1      -7.563   4.302 -10.848  0.00  0.00    +0.007 C 
ATOM     34  C   UNL     1      -6.875   4.396  -9.485  0.00  0.00    -0.012 C 
ATOM     35  C   UNL     1      -5.646   5.302  -9.595  0.00  0.00    +0.007 C 
ATOM     36  C   UNL     1      -6.440   3.000  -9.035  0.00  0.00    -0.009 C 
ENDBRANCH  23  27
ENDBRANCH  19  20
ENDBRANCH   4  19
TORSDOF 6
