REMARK  Name = ZINC29162343
REMARK  6 active torsions:
REMARK  status: ('A' for Active; 'I' for Inactive)
REMARK    1  A    between atoms: C_1  and  N_2
REMARK    2  A    between atoms: C_3  and  C_5
REMARK    3  A    between atoms: N_8  and  C_11
REMARK    4  A    between atoms: C_11  and  C_12
REMARK    5  A    between atoms: N_14  and  C_15
REMARK    6  A    between atoms: C_16  and  C_24
REMARK                            x       y       z     vdW  Elec       q    Type
REMARK                         _______ _______ _______ _____ _____    ______ ____
ROOT
ATOM      1  C   UNL     1      -1.115  -6.550  -2.652  0.00  0.00    +0.201 C 
ATOM      2  O   UNL     1      -0.454  -5.725  -3.245  0.00  0.00    -0.278 OA
ATOM      3  N   UNL     1      -1.119  -7.834  -3.063  0.00  0.00    -0.281 N 
ATOM      4  H   UNL     1      -1.719  -8.582  -2.525  0.00  0.00    +0.155 HD
ENDROOT
BRANCH   3   5
ATOM      5  C   UNL     1      -0.366  -8.210  -4.165  0.00  0.00    +0.084 A 
ATOM      6  C   UNL     1      -0.237  -9.471  -4.732  0.00  0.00    +0.068 A 
ATOM      7  C   UNL     1       0.621  -9.599  -5.897  0.00  0.00    -0.023 A 
ATOM      8  C   UNL     1       1.216  -8.456  -6.301  0.00  0.00    -0.004 A 
ATOM      9  S   UNL     1       0.649  -7.223  -5.165  0.00  0.00    -0.077 S 
ATOM     10  C   UNL     1       2.151  -8.285  -7.459  0.00  0.00    +0.043 C 
ATOM     11  C   UNL     1       2.632  -9.675  -7.902  0.00  0.00    +0.005 C 
ATOM     12  C   UNL     1       1.419 -10.601  -8.024  0.00  0.00    +0.005 C 
ATOM     13  C   UNL     1       0.860 -10.911  -6.634  0.00  0.00    +0.037 C 
BRANCH   6  14
ATOM     14  C   UNL     1      -0.944 -10.630  -4.177  0.00  0.00    +0.244 C 
ATOM     15  O   UNL     1      -2.058 -10.911  -4.577  0.00  0.00    -0.270 OA
ATOM     16  N   UNL     1      -0.359 -11.382  -3.224  0.00  0.00    -0.325 N 
ATOM     17  H   UNL     1      -0.889 -12.252  -2.807  0.00  0.00    +0.145 HD
ATOM     18  H   UNL     1       0.648 -11.127  -2.862  0.00  0.00    +0.145 HD
ENDBRANCH   6  14
ENDBRANCH   3   5
BRANCH   1  19
ATOM     19  C   UNL     1      -1.933  -6.141  -1.455  0.00  0.00    +0.019 C 
BRANCH  19  23
ATOM     20  C   UNL     1      -2.934  -2.012  -0.974  0.00  0.00    +0.071 C 
ATOM     21  C   UNL     1      -2.250  -2.760   0.173  0.00  0.00    -0.006 C 
ATOM     22  C   UNL     1      -2.452  -4.266  -0.014  0.00  0.00    -0.077 C 
ATOM     23  N   UNL     1      -1.881  -4.681  -1.302  0.00  0.00    +0.385 N 
ATOM     24  C   UNL     1      -2.555  -4.010  -2.422  0.00  0.00    -0.077 C 
ATOM     25  C   UNL     1      -2.356  -2.497  -2.306  0.00  0.00    -0.006 C 
ATOM     26  H   UNL     1      -0.825  -4.375  -1.315  0.00  0.00    -0.081 HD
BRANCH  20  29
ATOM     27  C   UNL     1      -2.873   1.554   0.417  0.00  0.00    +0.128 C 
ATOM     28  N   UNL     1      -3.112   0.116   0.274  0.00  0.00    -0.318 N 
ATOM     29  C   UNL     1      -2.687  -0.532  -0.828  0.00  0.00    +0.216 C 
ATOM     30  O   UNL     1      -2.107   0.075  -1.703  0.00  0.00    -0.276 OA
ATOM     31  H   UNL     1      -3.639  -0.435   1.067  0.00  0.00    +0.148 HD
ENDBRANCH  20  29
ENDBRANCH  19  23
ENDBRANCH   1  19
TORSDOF 5
