REMARK  Name = ZINC37605308
REMARK  12 active torsions:
REMARK  status: ('A' for Active; 'I' for Inactive)
REMARK    1  A    between atoms: C_1  and  C_2
REMARK    2  A    between atoms: C_5  and  C_8
REMARK    3  A    between atoms: C_12  and  O_25
REMARK    4  A    between atoms: C_19  and  C_21
REMARK    5  A    between atoms: C_21  and  C_22
REMARK    6  A    between atoms: C_22  and  C_23
REMARK    7  A    between atoms: C_22  and  C_24
REMARK    8  A    between atoms: O_25  and  C_26
REMARK    9  A    between atoms: C_26  and  C_27
REMARK   10  A    between atoms: C_30  and  C_32
REMARK   11  A    between atoms: N_34  and  C_35
REMARK   12  A    between atoms: C_35  and  C_36
REMARK                            x       y       z     vdW  Elec       q    Type
REMARK                         _______ _______ _______ _____ _____    ______ ____
ROOT
ATOM      1  C   UNL     1       0.046  -4.270  -0.006  0.00  0.00    +0.137 C 
ATOM      2  C   UNL     1      -1.312  -4.805   0.373  0.00  0.00    -0.016 A 
ATOM      3  C   UNL     1      -2.420  -4.262  -0.262  0.00  0.00    +0.051 A 
ATOM      4  C   UNL     1      -3.693  -4.718   0.035  0.00  0.00    +0.121 A 
ATOM      5  C   UNL     1      -3.858  -5.727   0.974  0.00  0.00    +0.046 A 
ATOM      6  C   UNL     1      -2.755  -6.260   1.606  0.00  0.00    +0.007 A 
ATOM      7  C   UNL     1      -1.477  -5.798   1.312  0.00  0.00    -0.040 A 
ATOM      8  C   UNL     1      -0.325  -6.412   2.063  0.00  0.00    +0.054 C 
ATOM      9  C   UNL     1       0.992  -6.177   1.325  0.00  0.00    +0.113 C 
ATOM     10  N   UNL     1       1.051  -4.756   0.947  0.00  0.00    -0.290 N 
ATOM     11  C   UNL     1       1.990  -3.934   1.455  0.00  0.00    +0.217 C 
ATOM     12  O   UNL     1       1.973  -2.752   1.183  0.00  0.00    -0.276 OA
ENDROOT
BRANCH   1  17
ATOM     13  C   UNL     1      -0.061   1.506   0.096  0.00  0.00    +0.044 C 
ATOM     14  C   UNL     1      -0.033  -0.000   0.070  0.00  0.00    -0.050 A 
ATOM     15  C   UNL     1      -0.413  -0.718   1.188  0.00  0.00    +0.004 A 
ATOM     16  C   UNL     1      -0.388  -2.100   1.163  0.00  0.00    +0.006 A 
ATOM     17  C   UNL     1       0.018  -2.764   0.021  0.00  0.00    -0.023 A 
ATOM     18  C   UNL     1       0.397  -2.046  -1.098  0.00  0.00    +0.006 A 
ATOM     19  C   UNL     1       0.367  -0.664  -1.075  0.00  0.00    +0.004 A 
ENDBRANCH   1  17
BRANCH  11  20
ATOM     20  C   UNL     1       3.062  -4.483   2.360  0.00  0.00    +0.099 C 
BRANCH  20  21
ATOM     21  C   UNL     1       3.994  -3.350   2.794  0.00  0.00    -0.008 C 
ATOM     22  C   UNL     1       3.215  -2.349   3.650  0.00  0.00    +0.008 C 
ATOM     23  C   UNL     1       5.153  -3.926   3.610  0.00  0.00    +0.008 C 
ENDBRANCH  20  21
ENDBRANCH  11  20
BRANCH   4  24
ATOM     24  O   UNL     1      -4.774  -4.182  -0.589  0.00  0.00    -0.484 OA
BRANCH  24  25
ATOM     25  C   UNL     1      -6.055  -4.704  -0.230  0.00  0.00    +0.303 C 
BRANCH  25  26
ATOM     26  C   UNL     1      -7.126  -3.993  -1.018  0.00  0.00    +0.143 A 
ATOM     27  C   UNL     1      -7.604  -4.378  -2.221  0.00  0.00    +0.049 A 
ATOM     28  C   UNL     1      -8.583  -3.444  -2.595  0.00  0.00    +0.055 A 
ATOM     29  C   UNL     1      -8.653  -2.525  -1.588  0.00  0.00    +0.190 A 
ATOM     30  O   UNL     1      -7.764  -2.878  -0.637  0.00  0.00    -0.452 OA
BRANCH  29  31
ATOM     31  C   UNL     1      -9.542  -1.359  -1.546  0.00  0.00    +0.279 C 
ATOM     32  O   UNL     1     -10.309  -1.145  -2.467  0.00  0.00    -0.267 OA
ATOM     33  N   UNL     1      -9.511  -0.526  -0.487  0.00  0.00    -0.306 N 
ATOM     34  H   UNL     1      -8.900  -0.697   0.247  0.00  0.00    +0.149 HD
BRANCH  33  35
ATOM     35  C   UNL     1     -10.400   0.638  -0.445  0.00  0.00    +0.136 C 
BRANCH  35  36
ATOM     36  C   UNL     1     -10.165   1.411   0.854  0.00  0.00    +0.135 C 
ATOM     37  C   UNL     1     -11.180   2.570   0.964  0.00  0.00    +0.035 C 
ATOM     38  C   UNL     1     -10.313   3.711   1.565  0.00  0.00    +0.031 C 
ATOM     39  C   UNL     1      -8.942   3.417   0.905  0.00  0.00    +0.160 C 
ATOM     40  O   UNL     1      -8.852   1.983   0.849  0.00  0.00    -0.375 OA
ENDBRANCH  35  36
ENDBRANCH  33  35
ENDBRANCH  29  31
ENDBRANCH  25  26
ENDBRANCH  24  25
ENDBRANCH   4  24
TORSDOF 9
