REMARK  Name = ZINC39672133
REMARK  9 active torsions:
REMARK  status: ('A' for Active; 'I' for Inactive)
REMARK    1  A    between atoms: C_1  and  C_2
REMARK    2  A    between atoms: C_2  and  C_3
REMARK    3  A    between atoms: C_3  and  C_4
REMARK    4  A    between atoms: C_4  and  C_6
REMARK    5  A    between atoms: C_4  and  C_7
REMARK    6  A    between atoms: C_11  and  C_20
REMARK    7  A    between atoms: N_22  and  C_23
REMARK    8  A    between atoms: C_23  and  C_24
REMARK    9  A    between atoms: N_33  and  C_34
REMARK                            x       y       z     vdW  Elec       q    Type
REMARK                         _______ _______ _______ _____ _____    ______ ____
ROOT
ATOM      1  C   UNL     1       1.433  -2.534  -2.681  0.00  0.00    +0.218 C 
ATOM      2  O   UNL     1       1.764  -1.759  -3.553  0.00  0.00    -0.275 OA
ATOM      3  N   UNL     1       1.508  -3.862  -2.896  0.00  0.00    -0.300 N 
ATOM      4  C   UNL     1       1.144  -4.955  -1.963  0.00  0.00    +0.121 C 
ATOM      5  C   UNL     1       0.466  -6.019  -2.854  0.00  0.00    +0.100 C 
ATOM      6  C   UNL     1       1.014  -5.756  -4.267  0.00  0.00    -0.004 C 
ATOM      7  C   UNL     1       1.966  -4.560  -4.121  0.00  0.00    +0.115 C 
ATOM      8  C   UNL     1      -0.124  -5.403  -5.219  0.00  0.00    -0.010 C 
ATOM      9  C   UNL     1       0.439  -5.202  -6.628  0.00  0.00    -0.082 C 
ATOM     10  N   UNL     1       1.109  -6.431  -7.070  0.00  0.00    +0.379 N 
ATOM     11  C   UNL     1       2.260  -6.713  -6.203  0.00  0.00    -0.082 C 
ATOM     12  C   UNL     1       1.774  -6.978  -4.775  0.00  0.00    -0.010 C 
ATOM     13  H   UNL     1       0.459  -7.202  -7.024  0.00  0.00    -0.086 HD
ATOM     14  H   UNL     1       1.426  -6.317  -8.021  0.00  0.00    -0.086 HD
ENDROOT
BRANCH   5  15
ATOM     15  C   UNL     1       0.839  -7.405  -2.394  0.00  0.00    +0.218 C 
ATOM     16  O   UNL     1       1.921  -7.603  -1.882  0.00  0.00    -0.275 OA
ATOM     17  N   UNL     1      -0.029  -8.424  -2.551  0.00  0.00    -0.311 N 
ATOM     18  H   UNL     1      -0.894  -8.266  -2.961  0.00  0.00    +0.149 HD
BRANCH  17  19
ATOM     19  C   UNL     1       0.334  -9.771  -2.103  0.00  0.00    +0.139 C 
BRANCH  19  20
ATOM     20  C   UNL     1      -0.801 -10.719  -2.392  0.00  0.00    -0.030 A 
ATOM     21  C   UNL     1      -1.792 -10.916  -1.448  0.00  0.00    +0.007 A 
ATOM     22  C   UNL     1      -2.831 -11.786  -1.711  0.00  0.00    +0.024 A 
ATOM     23  C   UNL     1      -2.881 -12.462  -2.926  0.00  0.00    +0.033 A 
ATOM     24  C   UNL     1      -1.889 -12.261  -3.873  0.00  0.00    -0.026 A 
ATOM     25  C   UNL     1      -0.852 -11.385  -3.601  0.00  0.00    +0.010 A 
ATOM     26  C   UNL     1      -1.917 -12.968  -5.202  0.00  0.00    +0.038 C 
ATOM     27  C   UNL     1      -2.800 -14.213  -5.129  0.00  0.00    +0.024 C 
ATOM     28  C   UNL     1      -4.162 -13.822  -4.543  0.00  0.00    +0.105 C 
ATOM     29  N   UNL     1      -3.940 -13.343  -3.171  0.00  0.00    -0.333 N 
ATOM     30  C   UNL     1      -4.813 -13.780  -2.079  0.00  0.00    +0.129 C 
ENDBRANCH  19  20
ENDBRANCH  17  19
ENDBRANCH   5  15
BRANCH   1  31
ATOM     31  C   UNL     1       0.936  -2.011  -1.357  0.00  0.00    +0.072 C 
ATOM     32  C   UNL     1       1.846  -2.516  -0.236  0.00  0.00    +0.017 C 
BRANCH  31  33
ATOM     33  C   UNL     1       0.950  -0.482  -1.375  0.00  0.00    +0.012 C 
BRANCH  33  35
ATOM     34  C   UNL     1       0.343   1.579  -0.099  0.00  0.00    +0.004 C 
ATOM     35  C   UNL     1       0.330   0.049  -0.081  0.00  0.00    -0.003 C 
ENDBRANCH  33  35
ENDBRANCH  31  33
ENDBRANCH   1  31
TORSDOF 6
