REMARK  Name = ZINC03838827
REMARK  17 active torsions:
REMARK  status: ('A' for Active; 'I' for Inactive)
REMARK    1  A    between atoms: C_1  and  C_2
REMARK    2  A    between atoms: C_2  and  C_3
REMARK    3  A    between atoms: C_2  and  C_4
REMARK    4  A    between atoms: C_4  and  C_5
REMARK    5  A    between atoms: C_5  and  C_7
REMARK    6  A    between atoms: C_5  and  N_69
REMARK    7  A    between atoms: N_9  and  C_10
REMARK    8  A    between atoms: C_13  and  C_21
REMARK    9  A    between atoms: C_15  and  O_20
REMARK   10  A    between atoms: C_17  and  O_19
REMARK   11  A    between atoms: N_23  and  C_24
REMARK   12  A    between atoms: C_24  and  C_26
REMARK   13  A    between atoms: C_24  and  C_35
REMARK   14  A    between atoms: C_26  and  C_27
REMARK   15  A    between atoms: C_30  and  O_33
REMARK   16  A    between atoms: O_33  and  C_34
REMARK   17  A    between atoms: C_38  and  N_69
REMARK                            x       y       z     vdW  Elec       q    Type
REMARK                         _______ _______ _______ _____ _____    ______ ____
ROOT
ATOM      1  C   UNL     1      -1.906   2.917   0.114  0.00  0.00    +0.127 C 
ATOM      2  C   UNL     1      -1.588   2.099  -1.103  0.00  0.00    +0.006 C 
ATOM      3  C   UNL     1      -0.813   1.036  -1.088  0.00  0.00    +0.015 C 
ATOM      4  C   UNL     1      -0.141   0.510   0.146  0.00  0.00    +0.074 C 
ATOM      5  C   UNL     1      -0.807   1.093   1.394  0.00  0.00    +0.149 C 
ATOM      6  C   UNL     1      -0.903   2.614   1.229  0.00  0.00    +0.167 C 
ENDROOT
BRANCH   1   9
ATOM      7  C   UNL     1      -4.323   3.217   0.036  0.00  0.00    +0.200 C 
ATOM      8  O   UNL     1      -4.162   4.047  -0.834  0.00  0.00    -0.278 OA
ATOM      9  N   UNL     1      -3.258   2.593   0.577  0.00  0.00    -0.308 N 
ATOM     10  H   UNL     1      -3.387   1.929   1.272  0.00  0.00    +0.149 HD
BRANCH   7  11
ATOM     11  C   UNL     1      -5.714   2.885   0.511  0.00  0.00    +0.016 C 
BRANCH  11  13
ATOM     12  C   UNL     1      -6.472   5.002   1.408  0.00  0.00    -0.099 C 
ATOM     13  N   UNL     1      -6.600   4.044   0.294  0.00  0.00    +0.385 N 
ATOM     14  H   UNL     1      -7.572   3.721   0.234  0.00  0.00    -0.085 HD
ATOM     15  H   UNL     1      -6.339   4.509  -0.584  0.00  0.00    -0.085 HD
ENDBRANCH  11  13
BRANCH  11  16
ATOM     16  C   UNL     1      -6.250   1.688  -0.277  0.00  0.00    -0.004 C 
BRANCH  16  18
ATOM     17  C   UNL     1      -8.213   0.175  -0.591  0.00  0.00    +0.007 C 
ATOM     18  C   UNL     1      -7.610   1.273   0.288  0.00  0.00    -0.018 C 
ATOM     19  C   UNL     1      -7.431   0.745   1.713  0.00  0.00    +0.007 C 
ENDBRANCH  16  18
ENDBRANCH  11  16
ENDBRANCH   7  11
ENDBRANCH   1   9
BRANCH   3  20
ATOM     20  C   UNL     1      -0.592   0.321  -2.355  0.00  0.00    +0.241 C 
ATOM     21  O   UNL     1      -1.120   0.717  -3.377  0.00  0.00    -0.271 OA
ATOM     22  N   UNL     1       0.195  -0.772  -2.384  0.00  0.00    -0.300 N 
ATOM     23  H   UNL     1       0.616  -1.088  -1.569  0.00  0.00    +0.150 HD
BRANCH  22  24
ATOM     24  C   UNL     1       0.415  -1.484  -3.645  0.00  0.00    +0.163 C 
BRANCH  24  25
ATOM     25  C   UNL     1      -0.708  -2.464  -3.872  0.00  0.00    +0.231 C 
ATOM     26  O   UNL     1      -1.603  -2.558  -3.059  0.00  0.00    -0.274 OA
ATOM     27  N   UNL     1      -0.716  -3.235  -4.977  0.00  0.00    -0.328 N 
ATOM     28  H   UNL     1      -0.000  -3.159  -5.627  0.00  0.00    +0.145 HD
ATOM     29  H   UNL     1      -1.439  -3.865  -5.123  0.00  0.00    +0.145 HD
ENDBRANCH  24  25
BRANCH  24  30
ATOM     30  C   UNL     1       1.745  -2.238  -3.580  0.00  0.00    +0.067 C 
BRANCH  30  31
ATOM     31  C   UNL     1       2.878  -1.250  -3.477  0.00  0.00    -0.045 A 
ATOM     32  C   UNL     1       3.479  -0.767  -4.625  0.00  0.00    +0.007 A 
ATOM     33  C   UNL     1       4.514   0.143  -4.533  0.00  0.00    +0.046 A 
ATOM     34  C   UNL     1       4.958   0.564  -3.288  0.00  0.00    +0.120 A 
ATOM     35  C   UNL     1       4.357   0.073  -2.138  0.00  0.00    +0.046 A 
ATOM     36  C   UNL     1       3.319  -0.833  -2.235  0.00  0.00    +0.007 A 
BRANCH  34  37
ATOM     37  O   UNL     1       5.980   1.455  -3.195  0.00  0.00    -0.495 OA
ATOM     38  C   UNL     1       6.551   1.918  -4.420  0.00  0.00    +0.277 C 
ENDBRANCH  34  37
ENDBRANCH  30  31
ENDBRANCH  24  30
ENDBRANCH  22  24
ENDBRANCH   3  20
BRANCH   6  39
ATOM     39  O   UNL     1      -1.352   3.203   2.451  0.00  0.00    -0.387 OA
ATOM     40  H   UNL     1      -0.761   3.050   3.202  0.00  0.00    +0.210 HD
ENDBRANCH   6  39
BRANCH   5  41
ATOM     41  O   UNL     1      -0.019   0.787   2.546  0.00  0.00    -0.389 OA
ATOM     42  H   UNL     1       0.098  -0.160   2.703  0.00  0.00    +0.210 HD
ENDBRANCH   5  41
TORSDOF 13
