REMARK  Name = ZINC45754577
REMARK  7 active torsions:
REMARK  status: ('A' for Active; 'I' for Inactive)
REMARK    1  A    between atoms: C_1  and  C_2
REMARK    2  A    between atoms: N_11  and  C_15
REMARK    3  A    between atoms: C_15  and  C_16
REMARK    4  A    between atoms: C_21  and  C_24
REMARK    5  A    between atoms: C_24  and  N_25
REMARK    6  A    between atoms: C_27  and  C_34
REMARK    7  A    between atoms: C_30  and  C_33
REMARK                            x       y       z     vdW  Elec       q    Type
REMARK                         _______ _______ _______ _____ _____    ______ ____
ROOT
ATOM      1  C   UNL     1       3.425   2.876   2.253  0.00  0.00    +0.237 C 
ATOM      2  O   UNL     1       2.503   3.237   1.554  0.00  0.00    -0.274 OA
ATOM      3  N   UNL     1       4.441   3.721   2.519  0.00  0.00    -0.263 N 
ATOM      4  C   UNL     1       4.430   5.007   1.991  0.00  0.00    +0.165 A 
ATOM      5  N   UNL     1       5.328   5.958   2.137  0.00  0.00    -0.231 NA
ATOM      6  C   UNL     1       5.171   7.138   1.566  0.00  0.00    +0.034 A 
ATOM      7  C   UNL     1       4.049   7.320   0.827  0.00  0.00    +0.070 A 
ATOM      8  S   UNL     1       3.270   5.724   1.005  0.00  0.00    -0.060 S 
ATOM      9  H   UNL     1       5.178   3.433   3.078  0.00  0.00    +0.157 HD
ENDROOT
BRANCH   1  10
ATOM     10  C   UNL     1       3.436   1.482   2.825  0.00  0.00    +0.214 C 
BRANCH  10  20
ATOM     11  C   UNL     1      -0.019   1.526   0.010  0.00  0.00    +0.010 C 
ATOM     12  C   UNL     1       0.002  -0.004   0.002  0.00  0.00    +0.018 C 
ATOM     13  C   UNL     1      -1.434  -0.534   0.012  0.00  0.00    +0.006 C 
ATOM     14  C   UNL     1      -1.412  -2.064   0.024  0.00  0.00    +0.000 C 
ATOM     15  C   UNL     1      -0.687  -2.556   1.279  0.00  0.00    +0.003 C 
ATOM     16  C   UNL     1       0.752  -2.033   1.273  0.00  0.00    +0.035 C 
ATOM     17  C   UNL     1       0.740  -0.509   1.237  0.00  0.00    +0.115 C 
ATOM     18  C   UNL     1       2.151   0.030   1.266  0.00  0.00    +0.247 C 
ATOM     19  O   UNL     1       3.026  -0.158   0.448  0.00  0.00    -0.273 OA
ATOM     20  N   UNL     1       2.233   0.767   2.394  0.00  0.00    -0.215 N 
ATOM     21  C   UNL     1       1.077   0.763   3.069  0.00  0.00    +0.310 C 
ATOM     22  O   UNL     1       0.904   1.356   4.116  0.00  0.00    -0.252 OA
ATOM     23  N   UNL     1       0.127   0.030   2.458  0.00  0.00    -0.285 N 
ATOM     24  H   UNL     1      -0.782  -0.114   2.764  0.00  0.00    +0.151 HD
ENDBRANCH  10  20
ENDBRANCH   1  10
BRANCH   6  25
ATOM     25  C   UNL     1       6.194   8.233   1.728  0.00  0.00    -0.022 C 
BRANCH  25  26
ATOM     26  N   UNL     1       5.929   8.970   2.971  0.00  0.00    +0.384 N 
ATOM     27  C   UNL     1       4.633   9.650   2.868  0.00  0.00    -0.075 C 
ATOM     28  C   UNL     1       4.315  10.353   4.189  0.00  0.00    -0.031 C 
ATOM     29  C   UNL     1       5.410  11.380   4.491  0.00  0.00    +0.003 C 
ATOM     30  C   UNL     1       6.767  10.671   4.522  0.00  0.00    -0.031 C 
ATOM     31  C   UNL     1       6.994   9.957   3.188  0.00  0.00    -0.075 C 
ATOM     32  C   UNL     1       7.876  11.701   4.747  0.00  0.00    +0.005 C 
ATOM     33  C   UNL     1       2.964  11.062   4.079  0.00  0.00    +0.005 C 
ATOM     34  H   UNL     1       5.907   8.324   3.745  0.00  0.00    -0.081 HD
ENDBRANCH  25  26
ENDBRANCH   6  25
TORSDOF 4
