REMARK  Name = ZINC21004574
REMARK  12 active torsions:
REMARK  status: ('A' for Active; 'I' for Inactive)
REMARK    1  A    between atoms: C_1  and  C_2
REMARK    2  A    between atoms: C_4  and  C_9
REMARK    3  A    between atoms: C_7  and  N_8
REMARK    4  A    between atoms: C_12  and  C_14
REMARK    5  A    between atoms: C_16  and  C_24
REMARK    6  A    between atoms: C_18  and  C_20
REMARK    7  A    between atoms: C_20  and  C_21
REMARK    8  A    between atoms: C_20  and  C_22
REMARK    9  A    between atoms: C_20  and  C_23
REMARK   10  A    between atoms: C_27  and  C_29
REMARK   11  A    between atoms: C_32  and  N_36
REMARK   12  A    between atoms: C_33  and  C_35
REMARK                            x       y       z     vdW  Elec       q    Type
REMARK                         _______ _______ _______ _____ _____    ______ ____
ROOT
ATOM      1  C   UNL     1       1.385   4.786   0.014  0.00  0.00    +0.039 A 
ATOM      2  C   UNL     1       2.777   4.715   0.002  0.00  0.00    +0.026 A 
ATOM      3  C   UNL     1       3.528   5.889   0.001  0.00  0.00    +0.039 A 
ATOM      4  C   UNL     1       2.882   7.128   0.013  0.00  0.00    +0.017 A 
ATOM      5  C   UNL     1       1.503   7.191   0.025  0.00  0.00    -0.041 A 
ATOM      6  C   UNL     1       0.752   6.032   0.020  0.00  0.00    +0.017 A 
ENDROOT
BRANCH   1  10
ATOM      7  C   UNL     1      -0.018   1.472   0.010  0.00  0.00    +0.249 A 
ATOM      8  N   UNL     1      -1.088   2.236   0.019  0.00  0.00    -0.107 NA
ATOM      9  N   UNL     1      -0.730   3.471   0.026  0.00  0.00    -0.107 NA
ATOM     10  C   UNL     1       0.581   3.547   0.015  0.00  0.00    +0.249 A 
ATOM     11  O   UNL     1       1.058   2.285   0.004  0.00  0.00    -0.416 OA
BRANCH   7  15
ATOM     12  C   UNL     1      -2.468  -2.872   0.010  0.00  0.00    +0.045 C 
ATOM     13  C   UNL     1      -1.175  -2.098   0.002  0.00  0.00    -0.029 A 
ATOM     14  C   UNL     1      -1.197  -0.721   0.010  0.00  0.00    +0.018 A 
ATOM     15  C   UNL     1       0.002  -0.004   0.002  0.00  0.00    +0.039 A 
ATOM     16  C   UNL     1       1.221  -0.688  -0.019  0.00  0.00    +0.015 A 
ATOM     17  C   UNL     1       1.236  -2.065  -0.022  0.00  0.00    +0.024 A 
ATOM     18  C   UNL     1       0.040  -2.775  -0.014  0.00  0.00    +0.028 A 
BRANCH  18  19
ATOM     19  N   UNL     1       0.059  -4.169  -0.021  0.00  0.00    -0.358 N 
ATOM     20  H   UNL     1       1.019  -4.706  -0.033  0.00  0.00    +0.142 HD
ATOM     21  H   UNL     1      -0.886  -4.732  -0.015  0.00  0.00    +0.142 HD
ENDBRANCH  18  19
ENDBRANCH   7  15
ENDBRANCH   1  10
BRANCH   3  22
ATOM     22  C   UNL     1       5.004   5.824  -0.011  0.00  0.00    +0.249 A 
ATOM     23  N   UNL     1       5.827   6.847  -0.012  0.00  0.00    -0.107 NA
ATOM     24  N   UNL     1       7.041   6.420  -0.025  0.00  0.00    -0.107 NA
ATOM     25  C   UNL     1       7.040   5.106  -0.032  0.00  0.00    +0.249 A 
ATOM     26  O   UNL     1       5.753   4.702  -0.017  0.00  0.00    -0.416 OA
BRANCH  25  27
ATOM     27  C   UNL     1       8.230   4.231  -0.046  0.00  0.00    +0.039 A 
ATOM     28  C   UNL     1       8.078   2.842  -0.046  0.00  0.00    +0.015 A 
ATOM     29  C   UNL     1       9.190   2.030  -0.064  0.00  0.00    +0.024 A 
ATOM     30  C   UNL     1      10.463   2.591  -0.073  0.00  0.00    +0.028 A 
ATOM     31  C   UNL     1      10.618   3.973  -0.067  0.00  0.00    -0.029 A 
ATOM     32  C   UNL     1       9.510   4.791  -0.054  0.00  0.00    +0.018 A 
ATOM     33  C   UNL     1      11.999   4.576  -0.076  0.00  0.00    +0.045 C 
BRANCH  30  34
ATOM     34  N   UNL     1      11.587   1.765  -0.086  0.00  0.00    -0.358 N 
ATOM     35  H   UNL     1      12.594   2.207  -0.093  0.00  0.00    +0.142 HD
ATOM     36  H   UNL     1      11.466   0.672  -0.090  0.00  0.00    +0.142 HD
ENDBRANCH  30  34
ENDBRANCH  25  27
ENDBRANCH   3  22
BRANCH   5  37
ATOM     37  C   UNL     1       0.813   8.531   0.038  0.00  0.00    -0.013 C 
ATOM     38  C   UNL     1       1.210   9.321  -1.210  0.00  0.00    +0.015 C 
ATOM     39  C   UNL     1      -0.703   8.324   0.050  0.00  0.00    +0.015 C 
ATOM     40  C   UNL     1       1.232   9.308   1.288  0.00  0.00    +0.015 C 
ENDBRANCH   5  37
TORSDOF 7
