REMARK  Name = ZINC05243302
REMARK  11 active torsions:
REMARK  status: ('A' for Active; 'I' for Inactive)
REMARK    1  A    between atoms: C_1  and  C_2
REMARK    2  A    between atoms: C_2  and  C_3
REMARK    3  A    between atoms: C_3  and  C_5
REMARK    4  A    between atoms: C_3  and  N_56
REMARK    5  A    between atoms: N_9  and  C_10
REMARK    6  A    between atoms: C_11  and  C_18
REMARK    7  A    between atoms: C_13  and  C_17
REMARK    8  A    between atoms: C_15  and  C_16
REMARK    9  A    between atoms: C_19  and  C_20
REMARK   10  A    between atoms: C_19  and  N_56
REMARK   11  A    between atoms: C_20  and  C_21
REMARK                            x       y       z     vdW  Elec       q    Type
REMARK                         _______ _______ _______ _____ _____    ______ ____
ROOT
ATOM      1  C   UNL     1       1.076   0.886  -1.367  0.00  0.00    -0.001 C 
ENDROOT
BRANCH   1   2
ATOM      2  C   UNL     1       0.817  -0.553  -1.004  0.00  0.00    +0.143 A 
ATOM      3  N   UNL     1       1.637  -1.354  -0.374  0.00  0.00    -0.115 NA
ATOM      4  N   UNL     1       1.109  -2.515  -0.223  0.00  0.00    -0.023 NA
ATOM      5  N   UNL     1      -0.072  -2.538  -0.741  0.00  0.00    -0.039 NA
ATOM      6  N   UNL     1      -0.307  -1.255  -1.265  0.00  0.00    -0.198 N 
BRANCH   6   7
ATOM      7  C   UNL     1      -1.462  -0.801  -1.921  0.00  0.00    +0.075 A 
ATOM      8  C   UNL     1      -2.494  -0.226  -1.193  0.00  0.00    -0.024 A 
ATOM      9  C   UNL     1      -3.627   0.224  -1.841  0.00  0.00    +0.008 A 
ATOM     10  C   UNL     1      -3.738   0.093  -3.213  0.00  0.00    -0.050 A 
ATOM     11  C   UNL     1      -2.714  -0.485  -3.941  0.00  0.00    +0.008 A 
ATOM     12  C   UNL     1      -1.576  -0.932  -3.298  0.00  0.00    -0.024 A 
ATOM     13  C   UNL     1      -0.460  -1.562  -4.091  0.00  0.00    +0.046 C 
ATOM     14  C   UNL     1      -4.979   0.579  -3.918  0.00  0.00    +0.044 C 
ATOM     15  C   UNL     1      -2.377  -0.088   0.303  0.00  0.00    +0.046 C 
ENDBRANCH   6   7
ENDBRANCH   1   2
BRANCH   1  16
ATOM     16  N   UNL     1       2.415   0.998  -1.977  0.00  0.00    +0.386 N 
ATOM     17  H   UNL     1       2.610   0.151  -2.523  0.00  0.00    -0.085 HD
ATOM     18  H   UNL     1       3.118   1.097  -1.235  0.00  0.00    -0.085 HD
BRANCH  16  19
ATOM     19  C   UNL     1       2.476   2.175  -2.865  0.00  0.00    -0.077 C 
BRANCH  19  20
ATOM     20  C   UNL     1       3.843   2.213  -3.552  0.00  0.00    +0.018 C 
BRANCH  20  21
ATOM     21  C   UNL     1       3.914   3.413  -4.461  0.00  0.00    -0.024 A 
ATOM     22  C   UNL     1       3.655   3.433  -5.778  0.00  0.00    +0.087 A 
ATOM     23  N   UNL     1       3.822   4.700  -6.267  0.00  0.00    -0.360 N 
ATOM     24  H   UNL     1       3.689   4.963  -7.191  0.00  0.00    +0.165 HD
ATOM     25  C   UNL     1       4.211   5.546  -5.253  0.00  0.00    +0.047 A 
ATOM     26  C   UNL     1       4.285   4.777  -4.077  0.00  0.00    +0.003 A 
ATOM     27  C   UNL     1       4.659   5.378  -2.874  0.00  0.00    +0.010 A 
ATOM     28  C   UNL     1       4.951   6.713  -2.844  0.00  0.00    +0.001 A 
ATOM     29  C   UNL     1       4.880   7.476  -4.001  0.00  0.00    +0.002 A 
ATOM     30  C   UNL     1       4.512   6.903  -5.199  0.00  0.00    +0.026 A 
ENDBRANCH  20  21
ENDBRANCH  19  20
ENDBRANCH  16  19
ENDBRANCH   1  16
BRANCH   1  32
ATOM     31  C   UNL     1       2.173   1.375   0.824  0.00  0.00    +0.002 C 
ATOM     32  C   UNL     1       1.016   1.749  -0.105  0.00  0.00    -0.011 C 
ENDBRANCH   1  32
TORSDOF 7
