REMARK  Name = ZINC38700966
REMARK  14 active torsions:
REMARK  status: ('A' for Active; 'I' for Inactive)
REMARK    1  A    between atoms: C_1  and  C_2
REMARK    2  A    between atoms: C_10  and  C_11
REMARK    3  A    between atoms: C_11  and  O_13
REMARK    4  A    between atoms: O_13  and  C_14
REMARK    5  A    between atoms: C_21  and  N_40
REMARK    6  A    between atoms: C_22  and  C_38
REMARK    7  A    between atoms: C_23  and  C_25
REMARK    8  A    between atoms: C_28  and  O_33
REMARK    9  A    between atoms: C_29  and  O_31
REMARK   10  A    between atoms: O_31  and  C_32
REMARK   11  A    between atoms: O_33  and  C_34
REMARK   12  A    between atoms: C_34  and  C_35
REMARK   13  A    between atoms: C_35  and  C_36
REMARK   14  A    between atoms: C_35  and  C_37
REMARK                            x       y       z     vdW  Elec       q    Type
REMARK                         _______ _______ _______ _____ _____    ______ ____
ROOT
ATOM      1  C   UNL     1       0.025  -0.746   4.722  0.00  0.00    +0.136 A 
ATOM      2  C   UNL     1      -0.070   0.630   4.874  0.00  0.00    +0.047 A 
ATOM      3  C   UNL     1      -0.100   1.185   6.138  0.00  0.00    +0.012 A 
ATOM      4  C   UNL     1      -0.035   0.373   7.257  0.00  0.00    +0.008 A 
ATOM      5  C   UNL     1       0.060  -1.002   7.111  0.00  0.00    +0.138 A 
ATOM      6  C   UNL     1       0.084  -1.562   5.840  0.00  0.00    +0.093 A 
ATOM      7  O   UNL     1       0.124  -1.814   8.195  0.00  0.00    -0.441 OA
ATOM      8  C   UNL     1      -0.282  -1.364   9.394  0.00  0.00    +0.199 C 
ATOM      9  C   UNL     1      -0.395  -0.042   9.663  0.00  0.00    +0.098 C 
ATOM     10  C   UNL     1      -0.068   0.997   8.627  0.00  0.00    +0.098 C 
ENDROOT
BRANCH  10  11
ATOM     11  C   UNL     1       1.278   1.602   8.933  0.00  0.00    -0.031 A 
ATOM     12  C   UNL     1       2.405   0.802   8.949  0.00  0.00    +0.008 A 
ATOM     13  C   UNL     1       3.642   1.352   9.229  0.00  0.00    +0.050 A 
ATOM     14  C   UNL     1       3.754   2.708   9.494  0.00  0.00    +0.162 A 
ATOM     15  C   UNL     1       2.619   3.512   9.478  0.00  0.00    +0.162 A 
ATOM     16  C   UNL     1       1.383   2.956   9.191  0.00  0.00    +0.054 A 
BRANCH  15  17
ATOM     17  O   UNL     1       2.723   4.843   9.737  0.00  0.00    -0.491 OA
ATOM     18  C   UNL     1       1.516   5.608   9.702  0.00  0.00    +0.277 C 
ENDBRANCH  15  17
BRANCH  14  19
ATOM     19  O   UNL     1       4.970   3.250   9.771  0.00  0.00    -0.488 OA
BRANCH  19  20
ATOM     20  C   UNL     1       6.091   2.364   9.771  0.00  0.00    +0.232 C 
BRANCH  20  21
ATOM     21  C   UNL     1       7.362   3.149  10.099  0.00  0.00    +0.020 C 
ATOM     22  C   UNL     1       8.542   2.182  10.222  0.00  0.00    +0.010 C 
ATOM     23  C   UNL     1       7.643   4.156   8.982  0.00  0.00    +0.010 C 
ENDBRANCH  20  21
ENDBRANCH  19  20
ENDBRANCH  14  19
ENDBRANCH  10  11
BRANCH   8  24
ATOM     24  N   UNL     1      -0.592  -2.272  10.376  0.00  0.00    -0.328 N 
ATOM     25  H   UNL     1      -0.517  -3.223  10.199  0.00  0.00    +0.145 HD
ATOM     26  H   UNL     1      -0.887  -1.963  11.247  0.00  0.00    +0.145 HD
ENDBRANCH   8  24
BRANCH   9  27
ATOM     27  C   UNL     1      -0.834   0.376  10.961  0.00  0.00    +0.101 C 
ATOM     28  N   UNL     1      -1.182   0.707  11.990  0.00  0.00    -0.191 NA
ENDBRANCH   9  27
BRANCH   1  29
ATOM     29  O   UNL     1       0.054  -1.293   3.478  0.00  0.00    -0.420 OA
BRANCH  29  30
ATOM     30  C   UNL     1      -1.073  -1.869   3.014  0.00  0.00    +0.380 C 
ATOM     31  O   UNL     1      -2.047  -1.968   3.735  0.00  0.00    -0.241 OA
BRANCH  30  41
ATOM     32  C   UNL     1      -3.541  -3.235   1.703  0.00  0.00    +0.048 C 
ATOM     33  C   UNL     1      -2.202  -2.974   1.063  0.00  0.00    +0.010 A 
ATOM     34  C   UNL     1      -1.801  -3.307  -0.303  0.00  0.00    +0.024 A 
ATOM     35  C   UNL     1      -2.441  -3.917  -1.385  0.00  0.00    +0.012 A 
ATOM     36  C   UNL     1      -1.769  -4.085  -2.562  0.00  0.00    +0.001 A 
ATOM     37  C   UNL     1      -0.455  -3.654  -2.690  0.00  0.00    +0.004 A 
ATOM     38  C   UNL     1       0.194  -3.051  -1.635  0.00  0.00    +0.047 A 
ATOM     39  C   UNL     1      -0.469  -2.868  -0.427  0.00  0.00    +0.136 A 
ATOM     40  O   UNL     1      -0.108  -2.325   0.752  0.00  0.00    -0.448 OA
ATOM     41  C   UNL     1      -1.125  -2.377   1.637  0.00  0.00    +0.216 A 
ENDBRANCH  30  41
ENDBRANCH  29  30
ENDBRANCH   1  29
TORSDOF 10
