REMARK  Name = ZINC09492029
REMARK  9 active torsions:
REMARK  status: ('A' for Active; 'I' for Inactive)
REMARK    1  A    between atoms: C_4  and  C_7
REMARK    2  A    between atoms: C_7  and  C_9
REMARK    3  A    between atoms: C_7  and  N_50
REMARK    4  A    between atoms: N_11  and  C_12
REMARK    5  A    between atoms: C_15  and  N_19
REMARK    6  A    between atoms: C_22  and  C_23
REMARK    7  A    between atoms: C_22  and  N_50
REMARK    8  A    between atoms: C_26  and  S_29
REMARK    9  A    between atoms: S_29  and  N_32
REMARK                            x       y       z     vdW  Elec       q    Type
REMARK                         _______ _______ _______ _____ _____    ______ ____
ROOT
ATOM      1  C   UNL     1       1.258  -4.135  -1.464  0.00  0.00    +0.048 C 
ENDROOT
BRANCH   1   5
ATOM      2  C   UNL     1       5.290  -5.526  -1.224  0.00  0.00    +0.000 A 
ATOM      3  C   UNL     1       4.288  -6.191  -0.543  0.00  0.00    +0.000 A 
ATOM      4  C   UNL     1       2.983  -5.741  -0.620  0.00  0.00    +0.002 A 
ATOM      5  C   UNL     1       2.680  -4.626  -1.379  0.00  0.00    -0.053 A 
ATOM      6  C   UNL     1       3.682  -3.964  -2.065  0.00  0.00    +0.002 A 
ATOM      7  C   UNL     1       4.987  -4.411  -1.984  0.00  0.00    +0.000 A 
ENDBRANCH   1   5
BRANCH   1   8
ATOM      8  C   UNL     1       0.640  -4.606  -2.756  0.00  0.00    +0.207 C 
ATOM      9  O   UNL     1       0.228  -3.797  -3.560  0.00  0.00    -0.277 OA
ATOM     10  N   UNL     1       0.546  -5.925  -3.017  0.00  0.00    -0.285 N 
ATOM     11  H   UNL     1       0.933  -6.569  -2.404  0.00  0.00    +0.155 HD
BRANCH  10  12
ATOM     12  C   UNL     1      -0.111  -6.364  -4.172  0.00  0.00    +0.052 A 
ATOM     13  C   UNL     1      -0.036  -5.619  -5.341  0.00  0.00    +0.027 A 
ATOM     14  C   UNL     1      -0.685  -6.056  -6.479  0.00  0.00    +0.034 A 
ATOM     15  C   UNL     1      -1.410  -7.233  -6.456  0.00  0.00    +0.128 A 
ATOM     16  C   UNL     1      -1.487  -7.978  -5.294  0.00  0.00    +0.054 A 
ATOM     17  C   UNL     1      -0.835  -7.550  -4.152  0.00  0.00    +0.064 A 
ATOM     18 CL   UNL     1      -0.926  -8.489  -2.695  0.00  0.00    -0.082 Cl
BRANCH  15  19
ATOM     19  N   UNL     1      -2.104  -7.697  -7.678  0.00  0.00    +0.056 N 
ATOM     20  O   UNL     1      -2.037  -7.042  -8.703  0.00  0.00    -0.126 OA
ATOM     21  O   UNL     1      -2.743  -8.734  -7.659  0.00  0.00    -0.126 OA
ENDBRANCH  15  19
ENDBRANCH  10  12
ENDBRANCH   1   8
BRANCH   1  22
ATOM     22  N   UNL     1       1.242  -2.661  -1.428  0.00  0.00    +0.392 N 
ATOM     23  H   UNL     1       0.392  -2.320  -1.892  0.00  0.00    -0.084 HD
ATOM     24  H   UNL     1       2.069  -2.301  -1.921  0.00  0.00    -0.084 HD
BRANCH  22  25
ATOM     25  C   UNL     1       1.261  -2.182  -0.033  0.00  0.00    -0.045 C 
BRANCH  25  26
ATOM     26  C   UNL     1       1.245  -0.675  -0.028  0.00  0.00    -0.064 A 
ATOM     27  C   UNL     1       0.040   0.003  -0.006  0.00  0.00    +0.003 A 
ATOM     28  C   UNL     1       0.025   1.385  -0.001  0.00  0.00    +0.029 A 
ATOM     29  C   UNL     1       1.215   2.090  -0.018  0.00  0.00    +0.105 A 
ATOM     30  C   UNL     1       2.419   1.411  -0.042  0.00  0.00    +0.029 A 
ATOM     31  C   UNL     1       2.434   0.029  -0.047  0.00  0.00    +0.003 A 
BRANCH  29  32
ATOM     32  S   UNL     1       1.196   3.852  -0.013  0.00  0.00    +0.056 S 
ATOM     33  O   UNL     1       2.428   4.273  -0.583  0.00  0.00    -0.153 OA
ATOM     34  O   UNL     1      -0.063   4.246  -0.541  0.00  0.00    -0.153 OA
BRANCH  32  35
ATOM     35  N   UNL     1       1.217   4.336   1.571  0.00  0.00    -0.204 NA
ATOM     36  H   UNL     1       1.236   3.675   2.280  0.00  0.00    +0.144 HD
ATOM     37  H   UNL     1       1.210   5.281   1.789  0.00  0.00    +0.144 HD
ENDBRANCH  32  35
ENDBRANCH  29  32
ENDBRANCH  25  26
ENDBRANCH  22  25
ENDBRANCH   1  22
TORSDOF 9
