REMARK  Name = ZINC15016240
REMARK  5 active torsions:
REMARK  status: ('A' for Active; 'I' for Inactive)
REMARK    1  A    between atoms: C_2  and  C_3
REMARK    2  A    between atoms: C_3  and  S_4
REMARK    3  A    between atoms: S_4  and  C_5
REMARK    4  A    between atoms: C_18  and  C_21
REMARK    5  A    between atoms: C_26  and  C_27
REMARK                            x       y       z     vdW  Elec       q    Type
REMARK                         _______ _______ _______ _____ _____    ______ ____
ROOT
ATOM      1  C   UNL     1      -1.764  -2.375   1.165  0.00  0.00    +0.213 A 
ATOM      2  N   UNL     1      -1.899  -3.229   2.175  0.00  0.00    -0.184 NA
ATOM      3  C   UNL     1      -1.769  -4.525   1.948  0.00  0.00    +0.248 A 
ATOM      4  C   UNL     1      -1.485  -4.959   0.633  0.00  0.00    +0.156 A 
ATOM      5  N   UNL     1      -1.366  -4.056  -0.329  0.00  0.00    -0.141 NA
ATOM      6  N   UNL     1      -1.508  -2.804  -0.065  0.00  0.00    -0.122 NA
ATOM      7  C   UNL     1      -1.323  -6.402   0.360  0.00  0.00    +0.029 A 
ATOM      8  C   UNL     1      -1.968  -7.017  -0.706  0.00  0.00    +0.027 A 
ATOM      9  C   UNL     1      -1.780  -8.367  -0.936  0.00  0.00    +0.019 A 
ATOM     10  C   UNL     1      -0.952  -9.110  -0.110  0.00  0.00    +0.017 A 
ATOM     11  C   UNL     1      -0.309  -8.511   0.958  0.00  0.00    +0.025 A 
ATOM     12  C   UNL     1      -0.494  -7.163   1.205  0.00  0.00    +0.040 A 
ATOM     13  N   UNL     1       0.111  -6.533   2.297  0.00  0.00    -0.305 N 
ATOM     14  C   UNL     1      -0.729  -6.083   3.404  0.00  0.00    +0.297 C 
ATOM     15  O   UNL     1      -1.907  -5.434   2.942  0.00  0.00    -0.449 OA
ATOM     16 BR   UNL     1      -2.657  -9.205  -2.386  0.00  0.00    -0.050 Br
ATOM     17  H   UNL     1       1.072  -6.397   2.319  0.00  0.00    +0.150 HD
ENDROOT
BRANCH  14  18
ATOM     18  C   UNL     1      -1.121  -7.276   4.237  0.00  0.00    +0.056 A 
ATOM     19  C   UNL     1      -1.003  -8.572   3.877  0.00  0.00    +0.114 A 
ATOM     20  N   UNL     1      -1.459  -9.331   4.896  0.00  0.00    -0.284 N 
ATOM     21  H   UNL     1      -1.488 -10.331   4.916  0.00  0.00    +0.188 HD
ATOM     22  N   UNL     1      -1.885  -8.476   5.921  0.00  0.00    -0.173 NA
ATOM     23  C   UNL     1      -1.683  -7.236   5.528  0.00  0.00    +0.101 A 
BRANCH  23  24
ATOM     24  C   UNL     1      -1.992  -6.012   6.309  0.00  0.00    +0.003 A 
ATOM     25  C   UNL     1      -1.096  -4.945   6.321  0.00  0.00    +0.010 A 
ATOM     26  C   UNL     1      -1.391  -3.808   7.045  0.00  0.00    +0.001 A 
ATOM     27  C   UNL     1      -2.569  -3.729   7.765  0.00  0.00    +0.000 A 
ATOM     28  C   UNL     1      -3.460  -4.787   7.761  0.00  0.00    +0.001 A 
ATOM     29  C   UNL     1      -3.177  -5.928   7.037  0.00  0.00    +0.010 A 
ENDBRANCH  23  24
ENDBRANCH  14  18
BRANCH   1  30
ATOM     30  S   UNL     1      -1.934  -0.646   1.462  0.00  0.00    -0.080 S 
BRANCH  30  31
ATOM     31  C   UNL     1      -1.659  -0.011  -0.211  0.00  0.00    +0.104 C 
BRANCH  31  33
ATOM     32  C   UNL     1      -0.708   2.222  -0.475  0.00  0.00    +0.005 C 
ATOM     33  C   UNL     1      -1.761   1.492  -0.200  0.00  0.00    -0.023 C 
ENDBRANCH  31  33
ENDBRANCH  30  31
ENDBRANCH   1  30
TORSDOF 5
