REMARK  Name = ZINC08169763
REMARK  5 active torsions:
REMARK  status: ('A' for Active; 'I' for Inactive)
REMARK    1  A    between atoms: C_4  and  C_7
REMARK    2  A    between atoms: N_11  and  C_12
REMARK    3  A    between atoms: N_18  and  C_19
REMARK    4  A    between atoms: C_19  and  C_20
REMARK    5  A    between atoms: C_20  and  C_21
REMARK                            x       y       z     vdW  Elec       q    Type
REMARK                         _______ _______ _______ _____ _____    ______ ____
ROOT
ATOM      1  C   UNL     1      -3.935  -1.723   1.679  0.00  0.00    +0.058 A 
ATOM      2  C   UNL     1      -4.998  -2.551   1.625  0.00  0.00    +0.075 A 
ATOM      3  S   UNL     1      -4.227  -4.134   1.330  0.00  0.00    -0.058 S 
ATOM      4  C   UNL     1      -2.529  -3.581   1.290  0.00  0.00    +0.169 A 
ATOM      5  N   UNL     1      -1.436  -4.278   1.106  0.00  0.00    -0.258 NA
ATOM      6  N   UNL     1      -2.673  -2.228   1.506  0.00  0.00    -0.319 N 
ENDROOT
BRANCH   1  10
ATOM      7  C   UNL     1      -4.498   2.431   2.367  0.00  0.00    +0.000 A 
ATOM      8  C   UNL     1      -5.199   1.799   1.355  0.00  0.00    +0.001 A 
ATOM      9  C   UNL     1      -5.022   0.450   1.127  0.00  0.00    +0.010 A 
ATOM     10  C   UNL     1      -4.131  -0.277   1.918  0.00  0.00    -0.001 A 
ATOM     11  C   UNL     1      -3.431   0.365   2.941  0.00  0.00    +0.010 A 
ATOM     12  C   UNL     1      -3.614   1.716   3.155  0.00  0.00    +0.001 A 
ENDBRANCH   1  10
BRANCH   5  13
ATOM     13  C   UNL     1      -1.517  -5.725   0.893  0.00  0.00    +0.108 C 
ATOM     14  C   UNL     1      -0.738  -6.447   1.994  0.00  0.00    +0.027 C 
ATOM     15  C   UNL     1      -0.822  -7.959   1.771  0.00  0.00    +0.002 C 
ATOM     16  C   UNL     1      -0.222  -8.308   0.408  0.00  0.00    +0.000 C 
ATOM     17  C   UNL     1      -1.002  -7.586  -0.693  0.00  0.00    +0.002 C 
ATOM     18  C   UNL     1      -0.917  -6.075  -0.471  0.00  0.00    +0.027 C 
ENDBRANCH   5  13
BRANCH   6  19
ATOM     19  C   UNL     1      -1.502  -1.349   1.554  0.00  0.00    +0.129 C 
BRANCH  19  20
ATOM     20  C   UNL     1      -1.284  -0.714   0.179  0.00  0.00    +0.059 C 
BRANCH  20  21
ATOM     21  C   UNL     1      -0.080   0.190   0.228  0.00  0.00    -0.021 A 
ATOM     22  C   UNL     1      -0.084   1.515   0.445  0.00  0.00    +0.087 A 
ATOM     23  N   UNL     1       1.197   1.996   0.420  0.00  0.00    -0.360 N 
ATOM     24  H   UNL     1       1.385   3.068   0.580  0.00  0.00    +0.165 HD
ATOM     25  C   UNL     1       2.079   0.966   0.180  0.00  0.00    +0.047 A 
ATOM     26  C   UNL     1       1.318  -0.210   0.049  0.00  0.00    +0.003 A 
ATOM     27  C   UNL     1       1.954  -1.427  -0.202  0.00  0.00    +0.010 A 
ATOM     28  C   UNL     1       3.316  -1.469  -0.318  0.00  0.00    +0.001 A 
ATOM     29  C   UNL     1       4.070  -0.312  -0.190  0.00  0.00    +0.002 A 
ATOM     30  C   UNL     1       3.463   0.900   0.058  0.00  0.00    +0.026 A 
ENDBRANCH  20  21
ENDBRANCH  19  20
ENDBRANCH   6  19
TORSDOF 5
