REMARK  Name = ZINC12438728
REMARK  8 active torsions:
REMARK  status: ('A' for Active; 'I' for Inactive)
REMARK    1  A    between atoms: C_4  and  C_7
REMARK    2  A    between atoms: C_7  and  C_8
REMARK    3  A    between atoms: C_8  and  C_9
REMARK    4  A    between atoms: C_9  and  N_10
REMARK    5  A    between atoms: C_11  and  C_13
REMARK    6  A    between atoms: C_13  and  C_14
REMARK    7  A    between atoms: C_21  and  C_22
REMARK    8  A    between atoms: C_21  and  N_60
REMARK                            x       y       z     vdW  Elec       q    Type
REMARK                         _______ _______ _______ _____ _____    ______ ____
ROOT
ATOM      1  C   UNL     1       1.658   4.952   1.997  0.00  0.00    +0.028 C 
ATOM      2  C   UNL     1       1.930   5.157   3.460  0.00  0.00    +0.200 C 
ATOM      3  O   UNL     1       1.302   6.007   4.055  0.00  0.00    -0.278 OA
ATOM      4  N   UNL     1       2.837   4.441   4.135  0.00  0.00    -0.318 N 
ATOM      5  C   UNL     1       3.670   3.421   3.505  0.00  0.00    +0.085 C 
ATOM      6  C   UNL     1       3.060   2.998   2.168  0.00  0.00    -0.058 C 
ATOM      7  H   UNL     1       2.945   4.608   5.084  0.00  0.00    +0.149 HD
ATOM      8  N   UNL     1       2.782   4.219   1.385  0.00  0.00    +0.391 N 
ATOM      9  H   UNL     1       3.616   4.817   1.390  0.00  0.00    -0.080 HD
ENDROOT
BRANCH   1  10
ATOM     10  C   UNL     1       1.520   6.313   1.310  0.00  0.00    +0.089 C 
BRANCH  10  12
ATOM     11  N   UNL     1       2.975   8.241   0.776  0.00  0.00    -0.315 N 
ATOM     12  C   UNL     1       2.829   7.055   1.400  0.00  0.00    +0.212 C 
ATOM     13  O   UNL     1       3.751   6.585   2.032  0.00  0.00    -0.276 OA
ATOM     14  H   UNL     1       2.237   8.617   0.270  0.00  0.00    +0.149 HD
BRANCH  11  15
ATOM     15  C   UNL     1       4.247   8.963   0.863  0.00  0.00    +0.104 C 
BRANCH  15  16
ATOM     16  C   UNL     1       4.146  10.270   0.073  0.00  0.00    +0.023 C 
BRANCH  16  17
ATOM     17  C   UNL     1       5.475  11.023   0.164  0.00  0.00    +0.036 C 
BRANCH  17  21
ATOM     18  C   UNL     1       5.196  14.672  -2.040  0.00  0.00    +0.000 A 
ATOM     19  C   UNL     1       4.854  14.645  -0.701  0.00  0.00    +0.000 A 
ATOM     20  C   UNL     1       4.944  13.465   0.012  0.00  0.00    +0.003 A 
ATOM     21  C   UNL     1       5.376  12.310  -0.614  0.00  0.00    -0.047 A 
ATOM     22  C   UNL     1       5.723  12.338  -1.952  0.00  0.00    +0.003 A 
ATOM     23  C   UNL     1       5.628  13.517  -2.666  0.00  0.00    +0.000 A 
ENDBRANCH  17  21
ENDBRANCH  16  17
ENDBRANCH  15  16
ENDBRANCH  11  15
ENDBRANCH  10  12
ENDBRANCH   1  10
BRANCH   8  24
ATOM     24  C   UNL     1       2.453   3.862  -0.014  0.00  0.00    -0.041 C 
BRANCH  24  25
ATOM     25  C   UNL     1       3.612   3.110  -0.616  0.00  0.00    -0.056 A 
ATOM     26  C   UNL     1       4.585   3.780  -1.292  0.00  0.00    +0.002 A 
ATOM     27  C   UNL     1       5.665   3.103  -1.855  0.00  0.00    +0.001 A 
ATOM     28  C   UNL     1       5.775   1.750  -1.749  0.00  0.00    +0.008 A 
ATOM     29  C   UNL     1       4.793   1.025  -1.054  0.00  0.00    -0.018 A 
ATOM     30  C   UNL     1       3.695   1.714  -0.481  0.00  0.00    -0.017 A 
ATOM     31  C   UNL     1       2.709   0.988   0.209  0.00  0.00    +0.009 A 
ATOM     32  C   UNL     1       2.822  -0.364   0.319  0.00  0.00    +0.001 A 
ATOM     33  C   UNL     1       3.902  -1.042  -0.244  0.00  0.00    +0.001 A 
ATOM     34  C   UNL     1       4.875  -0.372  -0.920  0.00  0.00    +0.008 A 
ENDBRANCH  24  25
ENDBRANCH   8  24
TORSDOF 8
