REMARK  Name = ZINC36028187
REMARK  11 active torsions:
REMARK  status: ('A' for Active; 'I' for Inactive)
REMARK    1  A    between atoms: C_1  and  C_2
REMARK    2  A    between atoms: C_2  and  C_3
REMARK    3  A    between atoms: C_3  and  C_5
REMARK    4  A    between atoms: C_3  and  C_6
REMARK    5  A    between atoms: C_6  and  N_7
REMARK    6  A    between atoms: C_10  and  C_32
REMARK    7  A    between atoms: N_16  and  S_19
REMARK    8  A    between atoms: S_19  and  C_22
REMARK    9  A    between atoms: C_32  and  C_34
REMARK   10  A    between atoms: C_32  and  C_35
REMARK   11  A    between atoms: C_35  and  C_36
REMARK                            x       y       z     vdW  Elec       q    Type
REMARK                         _______ _______ _______ _____ _____    ______ ____
ROOT
ATOM      1  N   UNL     1       1.152  -2.561   2.573  0.00  0.00    -0.313 N 
ATOM      2  C   UNL     1       2.437  -2.876   2.838  0.00  0.00    +0.201 C 
ATOM      3  O   UNL     1       3.367  -2.768   2.067  0.00  0.00    -0.277 OA
ATOM      4  C   UNL     1       2.523  -3.386   4.261  0.00  0.00    +0.022 C 
ATOM      5  N   UNL     1       1.125  -3.715   4.630  0.00  0.00    +0.401 N 
ATOM      6  C   UNL     1       0.331  -2.818   3.760  0.00  0.00    +0.006 C 
ATOM      7  C   UNL     1      -0.972  -3.510   3.361  0.00  0.00    +0.023 C 
ATOM      8  C   UNL     1      -1.768  -2.593   2.427  0.00  0.00    +0.109 C 
ATOM      9  N   UNL     1      -1.942  -1.288   3.080  0.00  0.00    -0.177 NA
ATOM     10  C   UNL     1      -0.752  -0.577   3.567  0.00  0.00    +0.109 C 
ATOM     11  C   UNL     1       0.036  -1.510   4.492  0.00  0.00    +0.023 C 
ATOM     12  H   UNL     1       0.922  -4.683   4.431  0.00  0.00    -0.082 HD
ATOM     13  H   UNL     1       0.955  -3.506   5.602  0.00  0.00    -0.082 HD
ENDROOT
BRANCH   9  14
ATOM     14  S   UNL     1      -3.451  -0.632   3.265  0.00  0.00    +0.063 S 
ATOM     15  O   UNL     1      -3.271   0.773   3.383  0.00  0.00    -0.153 OA
ATOM     16  O   UNL     1      -4.272  -1.213   2.261  0.00  0.00    -0.153 OA
BRANCH  14  17
ATOM     17  C   UNL     1      -4.077  -1.192   4.814  0.00  0.00    +0.131 A 
ATOM     18  C   UNL     1      -4.316  -0.302   5.816  0.00  0.00    +0.031 A 
ATOM     19  C   UNL     1      -4.810  -0.723   7.048  0.00  0.00    +0.003 A 
ATOM     20  C   UNL     1      -5.069  -2.039   7.285  0.00  0.00    +0.010 A 
ATOM     21  C   UNL     1      -4.834  -2.985   6.274  0.00  0.00    +0.002 A 
ATOM     22  C   UNL     1      -4.336  -2.558   5.018  0.00  0.00    +0.097 A 
ATOM     23  N   UNL     1      -4.115  -3.454   4.050  0.00  0.00    -0.253 NA
ATOM     24  C   UNL     1      -4.356  -4.729   4.235  0.00  0.00    +0.111 A 
ATOM     25  C   UNL     1      -4.851  -5.215   5.444  0.00  0.00    +0.020 A 
ATOM     26  C   UNL     1      -5.088  -4.354   6.478  0.00  0.00    +0.011 A 
ENDBRANCH  14  17
ENDBRANCH   9  14
BRANCH   4  27
ATOM     27  C   UNL     1       3.402  -4.637   4.326  0.00  0.00    -0.020 C 
ATOM     28  C   UNL     1       2.893  -5.671   3.320  0.00  0.00    +0.006 C 
BRANCH  27  29
ATOM     29  C   UNL     1       4.846  -4.263   3.987  0.00  0.00    -0.001 C 
ATOM     30  C   UNL     1       5.746  -5.486   4.173  0.00  0.00    +0.004 C 
ENDBRANCH  27  29
ENDBRANCH   4  27
BRANCH   1  31
ATOM     31  C   UNL     1       0.655  -2.037   1.299  0.00  0.00    +0.109 C 
BRANCH  31  32
ATOM     32  C   UNL     1       0.505  -3.186   0.299  0.00  0.00    +0.003 C 
ATOM     33  C   UNL     1      -0.193  -4.365   0.979  0.00  0.00    +0.009 C 
BRANCH  32  35
ATOM     34  C   UNL     1      -0.375  -3.824  -1.950  0.00  0.00    +0.004 C 
ATOM     35  C   UNL     1      -0.330  -2.718  -0.894  0.00  0.00    +0.001 C 
ENDBRANCH  32  35
ENDBRANCH  31  32
ENDBRANCH   1  31
TORSDOF 7
