REMARK  Name = ZINC59332806
REMARK  6 active torsions:
REMARK  status: ('A' for Active; 'I' for Inactive)
REMARK    1  A    between atoms: C_1  and  C_2
REMARK    2  A    between atoms: C_3  and  C_28
REMARK    3  A    between atoms: C_4  and  C_21
REMARK    4  A    between atoms: C_10  and  C_11
REMARK    5  A    between atoms: C_16  and  O_17
REMARK    6  A    between atoms: N_30  and  C_31
REMARK                            x       y       z     vdW  Elec       q    Type
REMARK                         _______ _______ _______ _____ _____    ______ ____
ROOT
ATOM      1  C   UNL     1       0.822   1.381   2.674  0.00  0.00    +0.066 C 
ATOM      2  C   UNL     1       0.613   0.230   1.725  0.00  0.00    +0.051 C 
ATOM      3  C   UNL     1      -0.655  -0.139   1.376  0.00  0.00    +0.063 C 
ATOM      4  C   UNL     1      -0.821  -1.298   0.421  0.00  0.00    +0.160 C 
ATOM      5  N   UNL     1       0.421  -1.957  -0.072  0.00  0.00    -0.275 N 
ATOM      6  C   UNL     1       0.479  -2.993  -0.919  0.00  0.00    +0.268 A 
ATOM      7  O   UNL     1      -0.536  -3.494  -1.367  0.00  0.00    -0.266 OA
ATOM      8  C   UNL     1       1.804  -3.507  -1.291  0.00  0.00    +0.081 A 
ATOM      9  C   UNL     1       2.131  -4.532  -2.119  0.00  0.00    +0.032 C 
ATOM     10  S   UNL     1       2.869  -2.417  -0.359  0.00  0.00    -0.046 S 
ATOM     11  C   UNL     1       1.598  -1.427   0.405  0.00  0.00    +0.178 A 
ATOM     12  N   UNL     1       1.664  -0.414   1.230  0.00  0.00    -0.228 NA
ENDROOT
BRANCH   4  13
ATOM     13  C   UNL     1      -1.660  -2.346   1.106  0.00  0.00    -0.020 A 
ATOM     14  C   UNL     1      -1.123  -3.099   2.133  0.00  0.00    +0.007 A 
ATOM     15  C   UNL     1      -1.891  -4.060   2.762  0.00  0.00    +0.020 A 
ATOM     16  C   UNL     1      -3.200  -4.269   2.363  0.00  0.00    +0.041 A 
ATOM     17  C   UNL     1      -3.737  -3.515   1.335  0.00  0.00    +0.020 A 
ATOM     18  C   UNL     1      -2.969  -2.550   0.710  0.00  0.00    +0.007 A 
ATOM     19 CL   UNL     1      -4.166  -5.476   3.151  0.00  0.00    -0.084 Cl
ENDBRANCH   4  13
BRANCH   9  20
ATOM     20  C   UNL     1       1.089  -5.199  -2.909  0.00  0.00    +0.018 A 
ATOM     21  C   UNL     1       0.061  -4.449  -3.494  0.00  0.00    +0.011 A 
ATOM     22  C   UNL     1      -0.913  -5.082  -4.233  0.00  0.00    +0.001 A 
ATOM     23  C   UNL     1      -0.881  -6.457  -4.402  0.00  0.00    +0.004 A 
ATOM     24  C   UNL     1       0.127  -7.210  -3.830  0.00  0.00    +0.046 A 
ATOM     25  C   UNL     1       1.120  -6.591  -3.088  0.00  0.00    +0.124 A 
BRANCH  25  26
ATOM     26  O   UNL     1       2.114  -7.329  -2.531  0.00  0.00    -0.506 OA
ATOM     27  H   UNL     1       1.916  -7.647  -1.640  0.00  0.00    +0.292 HD
ENDBRANCH  25  26
ENDBRANCH   9  20
BRANCH   3  28
ATOM     28  C   UNL     1      -1.773   0.541   1.891  0.00  0.00    +0.248 C 
ATOM     29  O   UNL     1      -2.384   1.329   1.190  0.00  0.00    -0.270 OA
ATOM     30  N   UNL     1      -2.170   0.321   3.161  0.00  0.00    -0.282 N 
ATOM     31  H   UNL     1      -1.633  -0.236   3.747  0.00  0.00    +0.155 HD
BRANCH  30  32
ATOM     32  C   UNL     1      -3.354   0.896   3.633  0.00  0.00    +0.034 A 
ATOM     33  C   UNL     1      -4.442   1.045   2.784  0.00  0.00    +0.023 A 
ATOM     34  C   UNL     1      -5.611   1.612   3.253  0.00  0.00    +0.002 A 
ATOM     35  C   UNL     1      -5.697   2.033   4.568  0.00  0.00    +0.000 A 
ATOM     36  C   UNL     1      -4.614   1.887   5.416  0.00  0.00    +0.002 A 
ATOM     37  C   UNL     1      -3.445   1.315   4.954  0.00  0.00    +0.023 A 
ENDBRANCH  30  32
ENDBRANCH   3  28
TORSDOF 5
