REMARK  Name = ZINC39916194
REMARK  14 active torsions:
REMARK  status: ('A' for Active; 'I' for Inactive)
REMARK    1  A    between atoms: C_1  and  C_2
REMARK    2  A    between atoms: C_2  and  C_29
REMARK    3  A    between atoms: C_4  and  O_28
REMARK    4  A    between atoms: C_6  and  C_26
REMARK    5  A    between atoms: C_6  and  C_27
REMARK    6  A    between atoms: N_7  and  C_8
REMARK    7  A    between atoms: C_8  and  C_9
REMARK    8  A    between atoms: C_9  and  C_11
REMARK    9  A    between atoms: C_9  and  O_25
REMARK   10  A    between atoms: C_11  and  O_12
REMARK   11  A    between atoms: O_12  and  C_13
REMARK   12  A    between atoms: C_13  and  C_14
REMARK   13  A    between atoms: C_14  and  O_15
REMARK   14  A    between atoms: O_15  and  C_16
REMARK                            x       y       z     vdW  Elec       q    Type
REMARK                         _______ _______ _______ _____ _____    ______ ____
ROOT
ATOM      1  C   UNL     1      -0.320  -0.009   4.164  0.00  0.00    +0.124 C 
ENDROOT
BRANCH   1   2
ATOM      2  O   UNL     1       1.077   0.160   4.416  0.00  0.00    -0.391 OA
ATOM      3  H   UNL     1       1.369   1.082   4.412  0.00  0.00    +0.210 HD
ENDBRANCH   1   2
BRANCH   1   4
ATOM      4  C   UNL     1      -0.664   0.568   2.789  0.00  0.00    -0.043 C 
BRANCH   4  11
ATOM      5  C   UNL     1      -0.885   1.577   0.301  0.00  0.00    -0.010 C 
ATOM      6  C   UNL     1       0.334   0.710   0.629  0.00  0.00    -0.068 C 
ATOM      7  C   UNL     1       0.805  -0.017  -0.626  0.00  0.00    +0.019 C 
ATOM      8  C   UNL     1      -0.149  -1.160  -0.971  0.00  0.00    +0.112 C 
ATOM      9  C   UNL     1      -0.176  -2.130   0.211  0.00  0.00    +0.019 C 
ATOM     10  C   UNL     1      -0.653  -1.419   1.472  0.00  0.00    -0.068 C 
ATOM     11  N   UNL     1       0.064  -0.184   1.744  0.00  0.00    +0.388 N 
ATOM     12  C   UNL     1      -0.405  -2.375   2.663  0.00  0.00    -0.010 C 
ATOM     13  C   UNL     1      -2.165  -1.181   1.395  0.00  0.00    -0.010 C 
ATOM     14  C   UNL     1       1.468   1.667   1.061  0.00  0.00    -0.010 C 
ATOM     15  H   UNL     1       0.970  -0.440   2.158  0.00  0.00    -0.080 HD
BRANCH   8  16
ATOM     16  O   UNL     1       0.333  -1.845  -2.132  0.00  0.00    -0.392 OA
ATOM     17  H   UNL     1      -0.222  -2.585  -2.412  0.00  0.00    +0.210 HD
ENDBRANCH   8  16
ENDBRANCH   4  11
ENDBRANCH   1   4
BRANCH   1  18
ATOM     18  C   UNL     1      -1.124   0.724   5.240  0.00  0.00    +0.189 C 
BRANCH  18  19
ATOM     19  O   UNL     1      -0.892   0.110   6.509  0.00  0.00    -0.374 OA
BRANCH  19  20
ATOM     20  C   UNL     1      -1.600   0.722   7.589  0.00  0.00    +0.201 C 
BRANCH  20  21
ATOM     21  C   UNL     1      -1.278  -0.013   8.892  0.00  0.00    +0.257 C 
BRANCH  21  22
ATOM     22  O   UNL     1       0.106   0.155   9.204  0.00  0.00    -0.484 OA
BRANCH  22  23
ATOM     23  C   UNL     1       0.560  -0.440  10.339  0.00  0.00    +0.191 A 
ATOM     24  C   UNL     1       0.525   0.246  11.546  0.00  0.00    +0.169 A 
ATOM     25  C   UNL     1       0.987  -0.362  12.700  0.00  0.00    +0.057 A 
ATOM     26  C   UNL     1       1.483  -1.653  12.652  0.00  0.00    +0.024 A 
ATOM     27  C   UNL     1       1.520  -2.338  11.451  0.00  0.00    +0.057 A 
ATOM     28  C   UNL     1       1.054  -1.737  10.295  0.00  0.00    +0.169 A 
ATOM     29  F   UNL     1       1.084  -2.409   9.124  0.00  0.00    -0.202 F 
ATOM     30 BR   UNL     1       2.114  -2.480  14.231  0.00  0.00    -0.050 Br
ATOM     31  F   UNL     1       0.041   1.506  11.593  0.00  0.00    -0.202 F 
ENDBRANCH  22  23
ENDBRANCH  21  22
ENDBRANCH  20  21
ENDBRANCH  19  20
ENDBRANCH  18  19
ENDBRANCH   1  18
TORSDOF 10
