REMARK  Name = ZINC39912402
REMARK  14 active torsions:
REMARK  status: ('A' for Active; 'I' for Inactive)
REMARK    1  A    between atoms: C_1  and  C_2
REMARK    2  A    between atoms: C_2  and  O_3
REMARK    3  A    between atoms: O_3  and  C_4
REMARK    4  A    between atoms: C_6  and  C_14
REMARK    5  A    between atoms: C_9  and  O_10
REMARK    6  A    between atoms: O_10  and  C_11
REMARK    7  A    between atoms: C_11  and  C_12
REMARK    8  A    between atoms: C_17  and  C_33
REMARK    9  A    between atoms: N_24  and  C_25
REMARK   10  A    between atoms: C_25  and  C_26
REMARK   11  A    between atoms: C_29  and  C_32
REMARK   12  A    between atoms: C_35  and  C_41
REMARK   13  A    between atoms: C_37  and  C_40
REMARK   14  A    between atoms: C_38  and  O_39
REMARK                            x       y       z     vdW  Elec       q    Type
REMARK                         _______ _______ _______ _____ _____    ______ ____
ROOT
ATOM      1  C   UNL     1       0.202  -4.980   0.014  0.00  0.00    +0.142 C 
ATOM      2  C   UNL     1       0.851  -5.313  -1.301  0.00  0.00    +0.035 A 
ATOM      3  C   UNL     1       1.457  -4.840  -2.470  0.00  0.00    +0.102 A 
ATOM      4  N   UNL     1       1.783  -5.890  -3.198  0.00  0.00    -0.173 NA
ATOM      5  N   UNL     1       1.444  -6.979  -2.604  0.00  0.00    -0.272 N 
ATOM      6  H   UNL     1       1.588  -7.872  -2.954  0.00  0.00    +0.189 HD
ATOM      7  C   UNL     1       0.853  -6.691  -1.407  0.00  0.00    +0.126 A 
ATOM      8  C   UNL     1       0.228  -7.252  -0.204  0.00  0.00    +0.266 C 
ATOM      9  O   UNL     1       0.076  -8.439   0.010  0.00  0.00    -0.268 OA
ATOM     10  N   UNL     1      -0.154  -6.265   0.630  0.00  0.00    -0.281 N 
ENDROOT
BRANCH   3  11
ATOM     11  C   UNL     1       1.688  -3.418  -2.827  0.00  0.00    +0.044 A 
ATOM     12  C   UNL     1       1.404  -2.412  -1.907  0.00  0.00    +0.017 A 
ATOM     13  C   UNL     1       1.621  -1.091  -2.244  0.00  0.00    -0.049 A 
ATOM     14  C   UNL     1       2.119  -0.762  -3.492  0.00  0.00    +0.010 A 
ATOM     15  C   UNL     1       2.404  -1.753  -4.412  0.00  0.00    -0.008 A 
ATOM     16  C   UNL     1       2.197  -3.084  -4.085  0.00  0.00    +0.129 A 
ATOM     17  C   UNL     1       2.946  -1.387  -5.770  0.00  0.00    +0.047 C 
ATOM     18  C   UNL     1       1.313  -0.002  -1.248  0.00  0.00    +0.044 C 
BRANCH  16  19
ATOM     19  O   UNL     1       2.482  -4.060  -4.986  0.00  0.00    -0.506 OA
ATOM     20  H   UNL     1       1.742  -4.288  -5.566  0.00  0.00    +0.292 HD
ENDBRANCH  16  19
ENDBRANCH   3  11
BRANCH   1  23
ATOM     21  C   UNL     1      -3.233  -3.917  -1.146  0.00  0.00    +0.162 A 
ATOM     22  C   UNL     1      -2.093  -4.677  -0.936  0.00  0.00    +0.055 A 
ATOM     23  C   UNL     1      -1.037  -4.153  -0.213  0.00  0.00    -0.019 A 
ATOM     24  C   UNL     1      -1.115  -2.873   0.302  0.00  0.00    +0.009 A 
ATOM     25  C   UNL     1      -2.250  -2.110   0.096  0.00  0.00    +0.050 A 
ATOM     26  C   UNL     1      -3.309  -2.626  -0.633  0.00  0.00    +0.162 A 
BRANCH  21  27
ATOM     27  O   UNL     1      -4.272  -4.431  -1.857  0.00  0.00    -0.489 OA
BRANCH  27  29
ATOM     28  C   UNL     1      -5.317  -6.091  -3.269  0.00  0.00    +0.048 C 
ATOM     29  C   UNL     1      -4.080  -5.717  -2.449  0.00  0.00    +0.226 C 
ENDBRANCH  27  29
ENDBRANCH  21  27
BRANCH  26  30
ATOM     30  O   UNL     1      -4.424  -1.875  -0.841  0.00  0.00    -0.484 OA
BRANCH  30  31
ATOM     31  C   UNL     1      -4.432  -0.559  -0.284  0.00  0.00    +0.256 C 
BRANCH  31  32
ATOM     32  C   UNL     1      -5.737   0.118  -0.615  0.00  0.00    +0.006 C 
ATOM     33  C   UNL     1      -6.385   0.780   0.312  0.00  0.00    +0.007 C 
ENDBRANCH  31  32
ENDBRANCH  30  31
ENDBRANCH  26  30
ENDBRANCH   1  23
BRANCH  10  34
ATOM     34  C   UNL     1      -0.812  -6.443   1.927  0.00  0.00    +0.144 C 
BRANCH  34  35
ATOM     35  C   UNL     1      -2.307  -6.457   1.735  0.00  0.00    -0.030 A 
ATOM     36  C   UNL     1      -3.022  -5.275   1.788  0.00  0.00    +0.005 A 
ATOM     37  C   UNL     1      -4.393  -5.288   1.611  0.00  0.00    +0.003 A 
ATOM     38  C   UNL     1      -5.048  -6.483   1.381  0.00  0.00    -0.050 A 
ATOM     39  C   UNL     1      -4.333  -7.665   1.327  0.00  0.00    +0.003 A 
ATOM     40  C   UNL     1      -2.962  -7.651   1.499  0.00  0.00    +0.005 A 
ATOM     41  C   UNL     1      -6.543  -6.497   1.190  0.00  0.00    +0.044 C 
ENDBRANCH  34  35
ENDBRANCH  10  34
TORSDOF 10
