REMARK  Name = ZINC20573674
REMARK  13 active torsions:
REMARK  status: ('A' for Active; 'I' for Inactive)
REMARK    1  A    between atoms: C_1  and  C_2
REMARK    2  A    between atoms: C_2  and  O_3
REMARK    3  A    between atoms: O_3  and  C_4
REMARK    4  A    between atoms: C_6  and  C_16
REMARK    5  A    between atoms: C_8  and  O_13
REMARK    6  A    between atoms: C_9  and  O_10
REMARK    7  A    between atoms: O_10  and  C_11
REMARK    8  A    between atoms: C_11  and  C_12
REMARK    9  A    between atoms: O_13  and  C_14
REMARK   10  A    between atoms: C_14  and  C_15
REMARK   11  A    between atoms: N_18  and  C_19
REMARK   12  A    between atoms: C_19  and  C_20
REMARK   13  A    between atoms: C_20  and  C_21
REMARK                            x       y       z     vdW  Elec       q    Type
REMARK                         _______ _______ _______ _____ _____    ______ ____
ROOT
ATOM      1  C   UNL     1      -0.673  -7.203   1.293  0.00  0.00    +0.113 C 
ENDROOT
BRANCH   1   4
ATOM      2  C   UNL     1      -0.215  -4.962   0.454  0.00  0.00    +0.244 C 
ATOM      3  O   UNL     1      -0.778  -4.512   1.433  0.00  0.00    -0.270 OA
ATOM      4  N   UNL     1      -0.109  -6.296   0.291  0.00  0.00    -0.311 N 
ATOM      5  H   UNL     1       0.340  -6.655  -0.491  0.00  0.00    +0.149 HD
BRANCH   2   8
ATOM      6  C   UNL     1       0.777  -1.811  -1.336  0.00  0.00    +0.166 A 
ATOM      7  C   UNL     1       0.244  -2.665  -0.389  0.00  0.00    +0.062 A 
ATOM      8  C   UNL     1       0.353  -4.048  -0.557  0.00  0.00    +0.044 A 
ATOM      9  C   UNL     1       1.000  -4.564  -1.682  0.00  0.00    +0.062 A 
ATOM     10  C   UNL     1       1.531  -3.705  -2.627  0.00  0.00    +0.166 A 
ATOM     11  C   UNL     1       1.417  -2.328  -2.460  0.00  0.00    +0.204 A 
BRANCH   6  12
ATOM     12  O   UNL     1       0.671  -0.465  -1.174  0.00  0.00    -0.488 OA
BRANCH  12  14
ATOM     13  C   UNL     1      -0.019   1.526   0.010  0.00  0.00    +0.048 C 
ATOM     14  C   UNL     1       0.002  -0.004   0.002  0.00  0.00    +0.226 C 
ENDBRANCH  12  14
ENDBRANCH   6  12
BRANCH  11  15
ATOM     15  O   UNL     1       1.935  -1.486  -3.392  0.00  0.00    -0.485 OA
BRANCH  15  16
ATOM     16  C   UNL     1       3.291  -1.073  -3.211  0.00  0.00    +0.226 C 
ATOM     17  C   UNL     1       3.695  -0.136  -4.351  0.00  0.00    +0.048 C 
ENDBRANCH  15  16
ENDBRANCH  11  15
BRANCH  10  18
ATOM     18  O   UNL     1       2.162  -4.207  -3.722  0.00  0.00    -0.488 OA
BRANCH  18  19
ATOM     19  C   UNL     1       2.238  -5.630  -3.832  0.00  0.00    +0.226 C 
ATOM     20  C   UNL     1       2.977  -6.003  -5.119  0.00  0.00    +0.048 C 
ENDBRANCH  18  19
ENDBRANCH  10  18
ENDBRANCH   2   8
ENDBRANCH   1   4
BRANCH   1  21
ATOM     21  C   UNL     1      -0.418  -8.651   0.871  0.00  0.00    +0.114 C 
BRANCH  21  22
ATOM     22  C   UNL     1      -0.998  -9.585   1.902  0.00  0.00    +0.217 C 
ATOM     23  O   UNL     1      -1.559  -9.136   2.879  0.00  0.00    -0.276 OA
ATOM     24  N   UNL     1      -0.892 -10.918   1.739  0.00  0.00    -0.301 N 
ATOM     25  C   UNL     1      -0.210 -11.477   0.564  0.00  0.00    +0.110 C 
ATOM     26  C   UNL     1      -1.152 -12.468  -0.128  0.00  0.00    +0.047 C 
ATOM     27  C   UNL     1      -1.621 -13.513   0.885  0.00  0.00    +0.064 C 
ATOM     28  C   UNL     1      -2.385 -12.828   2.019  0.00  0.00    +0.047 C 
ATOM     29  C   UNL     1      -1.452 -11.841   2.736  0.00  0.00    +0.110 C 
ATOM     30  C   UNL     1      -2.511 -14.517   0.204  0.00  0.00    +0.057 A 
ATOM     31  C   UNL     1      -2.109 -15.762  -0.143  0.00  0.00    +0.039 A 
ATOM     32  N   UNL     1      -3.138 -16.382  -0.720  0.00  0.00    -0.349 N 
ATOM     33  C   UNL     1      -4.165 -15.572  -0.748  0.00  0.00    +0.171 A 
ATOM     34  N   UNL     1      -3.809 -14.396  -0.179  0.00  0.00    -0.348 N 
ATOM     35  H   UNL     1      -4.374 -13.616  -0.066  0.00  0.00    +0.166 HD
ATOM     36  C   UNL     1      -0.714 -16.277   0.115  0.00  0.00    +0.070 C 
ATOM     37  C   UNL     1       0.185 -15.072   0.422  0.00  0.00    +0.088 C 
ATOM     38  N   UNL     1      -0.454 -14.222   1.436  0.00  0.00    -0.305 NA
ATOM     39  H   UNL     1       0.208 -13.573   1.834  0.00  0.00    +0.123 HD
ATOM     40  H   UNL     1      -3.127 -17.289  -1.064  0.00  0.00    +0.166 HD
ENDBRANCH  21  22
ENDBRANCH   1  21
TORSDOF 10
