REMARK  Name = ZINC23635440
REMARK  7 active torsions:
REMARK  status: ('A' for Active; 'I' for Inactive)
REMARK    1  A    between atoms: C_1  and  C_2
REMARK    2  A    between atoms: C_2  and  N_3
REMARK    3  A    between atoms: C_13  and  S_14
REMARK    4  A    between atoms: S_14  and  C_15
REMARK    5  A    between atoms: C_15  and  C_16
REMARK    6  A    between atoms: N_21  and  C_22
REMARK    7  A    between atoms: C_28  and  C_30
REMARK                            x       y       z     vdW  Elec       q    Type
REMARK                         _______ _______ _______ _____ _____    ______ ____
ROOT
ATOM      1  C   UNL     1      -0.022   1.806   0.012  0.00  0.00    +0.173 C 
ENDROOT
BRANCH   1   2
ATOM      2  C   UNL     1      -0.728   2.292   1.252  0.00  0.00    +0.231 C 
ATOM      3  O   UNL     1      -1.170   1.493   2.050  0.00  0.00    -0.274 OA
ATOM      4  N   UNL     1      -0.867   3.614   1.474  0.00  0.00    -0.239 N 
ATOM      5  C   UNL     1      -1.498   4.048   2.582  0.00  0.00    +0.306 C 
ATOM      6  O   UNL     1      -1.941   3.248   3.382  0.00  0.00    -0.252 OA
ATOM      7  N   UNL     1      -1.637   5.371   2.804  0.00  0.00    -0.296 N 
ATOM      8  H   UNL     1      -0.466   4.338   0.750  0.00  0.00    +0.159 HD
ATOM      9  H   UNL     1      -1.235   6.095   2.080  0.00  0.00    +0.151 HD
BRANCH   7  10
ATOM     10  C   UNL     1      -2.322   5.843   4.010  0.00  0.00    +0.077 C 
ATOM     11  C   UNL     1      -1.329   5.902   5.172  0.00  0.00    +0.022 C 
ATOM     12  C   UNL     1      -2.045   6.395   6.430  0.00  0.00    +0.002 C 
ATOM     13  C   UNL     1      -2.617   7.791   6.178  0.00  0.00    +0.000 C 
ATOM     14  C   UNL     1      -3.611   7.733   5.015  0.00  0.00    +0.005 C 
ATOM     15  C   UNL     1      -2.894   7.239   3.757  0.00  0.00    +0.006 C 
ATOM     16  C   UNL     1      -3.888   7.181   2.595  0.00  0.00    +0.009 C 
ENDBRANCH   7  10
ENDBRANCH   1   2
BRANCH   1  17
ATOM     17  S   UNL     1       0.002  -0.004   0.002  0.00  0.00    -0.078 S 
BRANCH  17  28
ATOM     18  N   UNL     1       1.095  -1.580  -1.892  0.00  0.00    -0.288 N 
ATOM     19  C   UNL     1       1.745  -1.848  -3.048  0.00  0.00    +0.262 A 
ATOM     20  O   UNL     1       1.957  -2.993  -3.402  0.00  0.00    -0.267 OA
ATOM     21  C   UNL     1       2.190  -0.706  -3.857  0.00  0.00    +0.066 A 
ATOM     22  C   UNL     1       2.873  -0.878  -5.061  0.00  0.00    +0.030 A 
ATOM     23  C   UNL     1       3.267   0.230  -5.779  0.00  0.00    +0.019 A 
ATOM     24  C   UNL     1       2.990   1.510  -5.313  0.00  0.00    +0.017 A 
ATOM     25  C   UNL     1       2.323   1.701  -4.137  0.00  0.00    +0.029 A 
ATOM     26  C   UNL     1       1.909   0.597  -3.385  0.00  0.00    +0.079 A 
ATOM     27  N   UNL     1       1.246   0.745  -2.215  0.00  0.00    -0.223 NA
ATOM     28  C   UNL     1       0.859  -0.290  -1.510  0.00  0.00    +0.173 A 
ATOM     29 BR   UNL     1       4.193   0.008  -7.413  0.00  0.00    -0.050 Br
BRANCH  18  31
ATOM     30  C   UNL     1      -0.783  -3.087  -1.459  0.00  0.00    +0.027 C 
ATOM     31  C   UNL     1       0.634  -2.683  -1.045  0.00  0.00    +0.124 C 
ENDBRANCH  18  31
ENDBRANCH  17  28
ENDBRANCH   1  17
TORSDOF 5
