REMARK  Name = ZINC09109270
REMARK  2 active torsions:
REMARK  status: ('A' for Active; 'I' for Inactive)
REMARK    1  A    between atoms: C_1  and  C_2
REMARK    2  A    between atoms: N_23  and  C_26
REMARK                            x       y       z     vdW  Elec       q    Type
REMARK                         _______ _______ _______ _____ _____    ______ ____
ROOT
ATOM      1  C   UNL     1      -1.660   1.437   1.001  0.00  0.00    +0.047 C 
ATOM      2  C   UNL     1      -0.489   2.353   0.754  0.00  0.00    -0.011 A 
ATOM      3  C   UNL     1       0.786   1.831   0.664  0.00  0.00    +0.046 A 
ATOM      4  C   UNL     1       1.866   2.663   0.431  0.00  0.00    +0.020 A 
ATOM      5  C   UNL     1       1.668   4.026   0.293  0.00  0.00    +0.006 A 
ATOM      6  C   UNL     1       0.399   4.551   0.387  0.00  0.00    -0.027 A 
ATOM      7  C   UNL     1      -0.696   3.723   0.622  0.00  0.00    +0.040 A 
ATOM      8  N   UNL     1      -1.869   4.479   0.677  0.00  0.00    -0.286 N 
ATOM      9  C   UNL     1      -1.637   5.792   0.490  0.00  0.00    +0.212 C 
ATOM     10  O   UNL     1      -2.463   6.680   0.488  0.00  0.00    -0.277 OA
ATOM     11  C   UNL     1      -0.154   5.945   0.285  0.00  0.00    +0.053 C 
ATOM     12  C   UNL     1       0.158   6.572  -1.079  0.00  0.00    +0.089 C 
ATOM     13  C   UNL     1       1.398   7.472  -0.823  0.00  0.00    +0.074 C 
ATOM     14  C   UNL     1       1.715   7.306   0.675  0.00  0.00    -0.054 C 
ATOM     15  C   UNL     1      -0.385   8.062   1.431  0.00  0.00    -0.076 C 
ATOM     16  C   UNL     1       0.609   9.179   1.808  0.00  0.00    -0.020 C 
ATOM     17  C   UNL     1       1.978   8.690   1.296  0.00  0.00    -0.016 C 
ATOM     18  C   UNL     1       2.492   6.826  -1.643  0.00  0.00    +0.228 C 
ATOM     19  O   UNL     1       3.635   7.222  -1.722  0.00  0.00    -0.275 OA
ATOM     20  N   UNL     1       2.002   5.748  -2.267  0.00  0.00    -0.210 N 
ATOM     21  C   UNL     1       0.708   5.507  -2.025  0.00  0.00    +0.229 C 
ATOM     22  O   UNL     1       0.068   4.588  -2.489  0.00  0.00    -0.275 OA
ATOM     23 CL   UNL     1       1.034   0.121   0.837  0.00  0.00    -0.083 Cl
ATOM     24  H   UNL     1      -2.749   4.102   0.832  0.00  0.00    +0.155 HD
ATOM     25  N   UNL     1       0.462   6.870   1.248  0.00  0.00    +0.395 N 
ATOM     26  H   UNL     1       0.614   6.400   2.148  0.00  0.00    -0.079 HD
ENDROOT
BRANCH  20  27
ATOM     27  C   UNL     1       2.780   4.939  -3.107  0.00  0.00    +0.044 A 
ATOM     28  C   UNL     1       3.823   4.190  -2.579  0.00  0.00    +0.027 A 
ATOM     29  C   UNL     1       4.585   3.389  -3.407  0.00  0.00    +0.040 A 
ATOM     30  C   UNL     1       4.317   3.341  -4.765  0.00  0.00    +0.124 A 
ATOM     31  C   UNL     1       3.280   4.092  -5.294  0.00  0.00    +0.040 A 
ATOM     32  C   UNL     1       2.512   4.889  -4.468  0.00  0.00    +0.027 A 
ATOM     33  F   UNL     1       5.067   2.562  -5.574  0.00  0.00    -0.205 F 
ENDBRANCH  20  27
TORSDOF 1
