REMARK  Name = ZINC38573606
REMARK  5 active torsions:
REMARK  status: ('A' for Active; 'I' for Inactive)
REMARK    1  A    between atoms: C_4  and  C_7
REMARK    2  A    between atoms: C_7  and  C_8
REMARK    3  A    between atoms: C_8  and  C_10
REMARK    4  A    between atoms: C_8  and  N_27
REMARK    5  A    between atoms: C_28  and  C_30
REMARK                            x       y       z     vdW  Elec       q    Type
REMARK                         _______ _______ _______ _____ _____    ______ ____
ROOT
ATOM      1  C   UNL     1       4.171  -0.964   1.402  0.00  0.00    +0.164 C 
ENDROOT
BRANCH   1   2
ATOM      2  C   UNL     1       5.348  -1.904   1.389  0.00  0.00    +0.236 C 
ATOM      3  O   UNL     1       6.466  -1.480   1.593  0.00  0.00    -0.274 OA
ATOM      4  N   UNL     1       5.159  -3.217   1.151  0.00  0.00    -0.300 N 
ATOM      5  C   UNL     1       3.831  -3.729   0.787  0.00  0.00    +0.106 C 
ATOM      6  C   UNL     1       3.460  -4.865   1.745  0.00  0.00    +0.009 C 
ATOM      7  C   UNL     1       4.567  -5.920   1.733  0.00  0.00    -0.037 C 
ATOM      8  C   UNL     1       5.881  -5.297   2.205  0.00  0.00    +0.009 C 
ATOM      9  C   UNL     1       6.279  -4.164   1.246  0.00  0.00    +0.106 C 
ATOM     10  C   UNL     1       4.185  -7.077   2.657  0.00  0.00    +0.140 C 
ATOM     11  C   UNL     1       5.272  -8.131   2.471  0.00  0.00    +0.042 C 
ATOM     12  N   UNL     1       5.745  -8.361   3.633  0.00  0.00    -0.243 NA
ATOM     13  C   UNL     1       5.198  -7.544   4.567  0.00  0.00    +0.216 C 
ATOM     14  N   UNL     1       4.284  -6.735   4.077  0.00  0.00    -0.264 NA
ATOM     15  C   UNL     1       5.680  -8.606   1.099  0.00  0.00    +0.034 C 
ATOM     16  C   UNL     1       5.892  -7.334   0.257  0.00  0.00    -0.076 C 
ATOM     17  N   UNL     1       4.731  -6.447   0.371  0.00  0.00    +0.385 N 
ATOM     18  H   UNL     1       3.901  -6.960   0.116  0.00  0.00    -0.085 HD
ATOM     19  H   UNL     1       4.846  -5.675  -0.268  0.00  0.00    -0.085 HD
ENDBRANCH   1   2
BRANCH   1  20
ATOM     20  N   UNL     1       4.503   0.224   2.193  0.00  0.00    -0.300 N 
ATOM     21  C   UNL     1       3.521   0.945   2.770  0.00  0.00    +0.245 C 
ATOM     22  O   UNL     1       2.360   0.611   2.633  0.00  0.00    -0.270 OA
ATOM     23  H   UNL     1       5.429   0.490   2.302  0.00  0.00    +0.150 HD
BRANCH  21  24
ATOM     24  C   UNL     1       3.856   2.141   3.567  0.00  0.00    +0.040 A 
ATOM     25  C   UNL     1       5.189   2.530   3.721  0.00  0.00    +0.017 A 
ATOM     26  C   UNL     1       5.499   3.647   4.465  0.00  0.00    +0.050 A 
ATOM     27  C   UNL     1       4.490   4.390   5.064  0.00  0.00    +0.166 A 
ATOM     28  C   UNL     1       3.157   4.006   4.915  0.00  0.00    +0.167 A 
ATOM     29  C   UNL     1       2.840   2.890   4.166  0.00  0.00    +0.062 A 
ATOM     30  O   UNL     1       2.370   4.892   5.594  0.00  0.00    -0.453 OA
ATOM     31  C   UNL     1       3.258   5.581   6.495  0.00  0.00    +0.466 C 
ATOM     32  O   UNL     1       4.535   5.514   5.835  0.00  0.00    -0.453 OA
ENDBRANCH  21  24
ENDBRANCH   1  20
BRANCH   1  33
ATOM     33  C   UNL     1       3.838  -0.544  -0.032  0.00  0.00    +0.067 C 
BRANCH  33  37
ATOM     34  C   UNL     1       0.271   1.806  -0.037  0.00  0.00    +0.000 A 
ATOM     35  C   UNL     1       1.503   2.419   0.103  0.00  0.00    +0.000 A 
ATOM     36  C   UNL     1       2.657   1.658   0.105  0.00  0.00    +0.004 A 
ATOM     37  C   UNL     1       2.580   0.285  -0.033  0.00  0.00    -0.045 A 
ATOM     38  C   UNL     1       1.348  -0.328  -0.172  0.00  0.00    +0.004 A 
ATOM     39  C   UNL     1       0.194   0.433  -0.176  0.00  0.00    +0.000 A 
ENDBRANCH  33  37
ENDBRANCH   1  33
TORSDOF 5
