REMARK  Name = ZINC44713899
REMARK  8 active torsions:
REMARK  status: ('A' for Active; 'I' for Inactive)
REMARK    1  A    between atoms: C_1  and  C_2
REMARK    2  A    between atoms: C_6  and  C_9
REMARK    3  A    between atoms: C_13  and  C_22
REMARK    4  A    between atoms: N_24  and  C_25
REMARK    5  A    between atoms: C_25  and  C_27
REMARK    6  A    between atoms: C_25  and  C_28
REMARK    7  A    between atoms: C_29  and  C_35
REMARK    8  A    between atoms: C_33  and  C_34
REMARK                            x       y       z     vdW  Elec       q    Type
REMARK                         _______ _______ _______ _____ _____    ______ ____
ROOT
ATOM      1  C   UNL     1      -0.002  -2.796   2.459  0.00  0.00    +0.251 C 
ATOM      2  O   UNL     1       1.054  -3.078   2.991  0.00  0.00    -0.270 OA
ATOM      3  N   UNL     1      -1.165  -3.157   3.035  0.00  0.00    -0.296 N 
ATOM      4  C   UNL     1      -2.540  -2.911   2.539  0.00  0.00    +0.121 C 
ATOM      5  C   UNL     1      -3.311  -4.209   2.866  0.00  0.00    +0.100 C 
ATOM      6  C   UNL     1      -2.533  -4.847   4.029  0.00  0.00    -0.004 C 
ATOM      7  C   UNL     1      -1.359  -3.896   4.306  0.00  0.00    +0.115 C 
ATOM      8  C   UNL     1      -2.007  -6.220   3.623  0.00  0.00    -0.010 C 
ATOM      9  C   UNL     1      -1.285  -6.857   4.814  0.00  0.00    -0.082 C 
ATOM     10  N   UNL     1      -2.216  -6.981   5.942  0.00  0.00    +0.379 N 
ATOM     11  C   UNL     1      -2.645  -5.650   6.386  0.00  0.00    -0.082 C 
ATOM     12  C   UNL     1      -3.424  -4.961   5.262  0.00  0.00    -0.010 C 
ATOM     13  H   UNL     1      -3.022  -7.515   5.655  0.00  0.00    -0.086 HD
ATOM     14  H   UNL     1      -1.756  -7.457   6.705  0.00  0.00    -0.086 HD
ENDROOT
BRANCH   1  20
ATOM     15  C   UNL     1      -0.079   1.531  -0.033  0.00  0.00    +0.047 C 
ATOM     16  C   UNL     1      -0.047   0.025  -0.025  0.00  0.00    -0.014 A 
ATOM     17  C   UNL     1      -0.026  -0.671  -1.220  0.00  0.00    +0.007 A 
ATOM     18  C   UNL     1       0.003  -2.054  -1.224  0.00  0.00    +0.021 A 
ATOM     19  C   UNL     1       0.011  -2.752  -0.032  0.00  0.00    +0.056 A 
ATOM     20  C   UNL     1      -0.010  -2.057   1.180  0.00  0.00    +0.091 A 
ATOM     21  C   UNL     1      -0.034  -0.659   1.177  0.00  0.00    +0.140 A 
ATOM     22  F   UNL     1      -0.050   0.022   2.344  0.00  0.00    -0.204 F 
ATOM     23 CL   UNL     1       0.047  -4.487  -0.041  0.00  0.00    -0.083 Cl
ENDBRANCH   1  20
BRANCH   5  24
ATOM     24  C   UNL     1      -3.320  -5.128   1.671  0.00  0.00    +0.219 C 
ATOM     25  O   UNL     1      -2.443  -5.048   0.838  0.00  0.00    -0.275 OA
ATOM     26  N   UNL     1      -4.304  -6.039   1.529  0.00  0.00    -0.308 N 
ATOM     27  H   UNL     1      -5.005  -6.103   2.196  0.00  0.00    +0.149 HD
BRANCH  26  28
ATOM     28  C   UNL     1      -4.312  -6.933   0.368  0.00  0.00    +0.104 C 
ATOM     29  C   UNL     1      -4.872  -6.187  -0.845  0.00  0.00    +0.033 C 
BRANCH  28  30
ATOM     30  C   UNL     1      -5.177  -8.132   0.664  0.00  0.00    +0.015 A 
ATOM     31  C   UNL     1      -4.833  -9.427   0.474  0.00  0.00    +0.038 A 
ATOM     32  N   UNL     1      -5.878 -10.190   0.859  0.00  0.00    -0.281 N 
ATOM     33  H   UNL     1      -5.916 -11.159   0.834  0.00  0.00    +0.189 HD
ATOM     34  N   UNL     1      -6.897  -9.335   1.300  0.00  0.00    -0.179 NA
ATOM     35  C   UNL     1      -6.473  -8.102   1.188  0.00  0.00    +0.065 A 
ATOM     36  C   UNL     1      -7.250  -6.864   1.556  0.00  0.00    +0.068 C 
ATOM     37  C   UNL     1      -3.520  -9.927  -0.070  0.00  0.00    +0.065 C 
ENDBRANCH  28  30
ENDBRANCH  26  28
ENDBRANCH   5  24
TORSDOF 4
