REMARK  Name = ZINC00647373
REMARK  12 active torsions:
REMARK  status: ('A' for Active; 'I' for Inactive)
REMARK    1  A    between atoms: C_1  and  C_2
REMARK    2  A    between atoms: C_3  and  C_33
REMARK    3  A    between atoms: C_4  and  C_21
REMARK    4  A    between atoms: C_10  and  C_15
REMARK    5  A    between atoms: C_23  and  O_31
REMARK    6  A    between atoms: C_24  and  O_29
REMARK    7  A    between atoms: C_25  and  O_27
REMARK    8  A    between atoms: O_27  and  C_28
REMARK    9  A    between atoms: O_29  and  C_30
REMARK   10  A    between atoms: O_31  and  C_32
REMARK   11  A    between atoms: C_33  and  O_35
REMARK   12  A    between atoms: O_35  and  C_36
REMARK                            x       y       z     vdW  Elec       q    Type
REMARK                         _______ _______ _______ _____ _____    ______ ____
ROOT
ATOM      1  C   UNL     1       6.375   6.354  -3.794  0.00  0.00    +0.061 C 
ATOM      2  C   UNL     1       5.652   6.388  -2.472  0.00  0.00    +0.016 C 
ATOM      3  C   UNL     1       6.302   6.788  -1.366  0.00  0.00    +0.065 C 
ATOM      4  C   UNL     1       5.612   6.841  -0.034  0.00  0.00    +0.092 C 
ATOM      5  C   UNL     1       4.349   6.017  -0.046  0.00  0.00    +0.024 C 
ATOM      6  C   UNL     1       3.775   5.653  -1.212  0.00  0.00    +0.016 C 
ATOM      7  N   UNL     1       4.340   6.011  -2.407  0.00  0.00    -0.321 N 
ATOM      8  C   UNL     1       2.502   4.844  -1.231  0.00  0.00    +0.059 C 
ATOM      9  C   UNL     1       2.451   3.937   0.000  0.00  0.00    +0.032 C 
ATOM     10  C   UNL     1       2.535   4.813   1.254  0.00  0.00    +0.088 C 
ATOM     11  C   UNL     1       3.788   5.643   1.188  0.00  0.00    +0.162 C 
ATOM     12  O   UNL     1       4.325   5.997   2.219  0.00  0.00    -0.292 OA
ATOM     13  H   UNL     1       3.726   5.993  -3.320  0.00  0.00    +0.152 HD
ENDROOT
BRANCH   9  14
ATOM     14  C   UNL     1       1.156   3.165   0.008  0.00  0.00    -0.044 A 
ATOM     15  C   UNL     1       1.175   1.783   0.000  0.00  0.00    +0.004 A 
ATOM     16  C   UNL     1      -0.013   1.076   0.008  0.00  0.00    +0.000 A 
ATOM     17  C   UNL     1      -1.219   1.751   0.017  0.00  0.00    +0.000 A 
ATOM     18  C   UNL     1      -1.238   3.133   0.029  0.00  0.00    +0.000 A 
ATOM     19  C   UNL     1      -0.050   3.840   0.022  0.00  0.00    +0.004 A 
ENDBRANCH   9  14
BRANCH   4  20
ATOM     20  C   UNL     1       5.267   8.273   0.287  0.00  0.00    -0.028 A 
ATOM     21  C   UNL     1       4.414   8.978  -0.541  0.00  0.00    +0.054 A 
ATOM     22  C   UNL     1       4.089  10.294  -0.245  0.00  0.00    +0.165 A 
ATOM     23  C   UNL     1       4.631  10.906   0.879  0.00  0.00    +0.204 A 
ATOM     24  C   UNL     1       5.492  10.194   1.706  0.00  0.00    +0.165 A 
ATOM     25  C   UNL     1       5.807   8.877   1.406  0.00  0.00    +0.054 A 
BRANCH  24  26
ATOM     26  O   UNL     1       6.024  10.788   2.808  0.00  0.00    -0.491 OA
ATOM     27  C   UNL     1       6.900   9.997   3.612  0.00  0.00    +0.277 C 
ENDBRANCH  24  26
BRANCH  23  28
ATOM     28  O   UNL     1       4.319  12.198   1.169  0.00  0.00    -0.488 OA
ATOM     29  C   UNL     1       5.162  13.209   0.614  0.00  0.00    +0.277 C 
ENDBRANCH  23  28
BRANCH  22  30
ATOM     30  O   UNL     1       3.246  10.986  -1.058  0.00  0.00    -0.491 OA
ATOM     31  C   UNL     1       2.728  10.294  -2.196  0.00  0.00    +0.277 C 
ENDBRANCH  22  30
ENDBRANCH   4  20
BRANCH   3  32
ATOM     32  C   UNL     1       7.662   7.167  -1.459  0.00  0.00    +0.338 C 
ATOM     33  O   UNL     1       8.232   7.128  -2.533  0.00  0.00    -0.245 OA
BRANCH  32  34
ATOM     34  O   UNL     1       8.326   7.571  -0.356  0.00  0.00    -0.458 OA
BRANCH  34  35
ATOM     35  C   UNL     1       9.697   7.939  -0.524  0.00  0.00    +0.177 C 
ATOM     36  C   UNL     1      10.583   6.707  -0.323  0.00  0.00    +0.044 C 
ATOM     37  C   UNL     1      12.051   7.101  -0.502  0.00  0.00    +0.004 C 
ATOM     38  C   UNL     1      12.422   8.169   0.528  0.00  0.00    +0.000 C 
ATOM     39  C   UNL     1      11.536   9.400   0.328  0.00  0.00    +0.004 C 
ATOM     40  C   UNL     1      10.068   9.007   0.506  0.00  0.00    +0.044 C 
ENDBRANCH  34  35
ENDBRANCH  32  34
ENDBRANCH   3  32
TORSDOF 8
