REMARK  Name = ZINC35664400
REMARK  11 active torsions:
REMARK  status: ('A' for Active; 'I' for Inactive)
REMARK    1  A    between atoms: C_1  and  C_2
REMARK    2  A    between atoms: C_2  and  N_3
REMARK    3  A    between atoms: C_4  and  C_21
REMARK    4  A    between atoms: C_5  and  C_16
REMARK    5  A    between atoms: C_6  and  C_11
REMARK    6  A    between atoms: C_16  and  O_18
REMARK    7  A    between atoms: O_18  and  C_19
REMARK    8  A    between atoms: C_19  and  C_20
REMARK    9  A    between atoms: C_21  and  N_22
REMARK   10  A    between atoms: C_26  and  C_29
REMARK   11  A    between atoms: C_30  and  C_32
REMARK                            x       y       z     vdW  Elec       q    Type
REMARK                         _______ _______ _______ _____ _____    ______ ____
ROOT
ATOM      1  N   UNL     1       2.847   0.384   1.257  0.00  0.00    -0.258 N 
ATOM      2  C   UNL     1       4.176   0.292   0.958  0.00  0.00    +0.041 C 
ATOM      3  C   UNL     1       5.091   0.036   1.918  0.00  0.00    +0.080 C 
ATOM      4  C   UNL     1       4.591  -0.143   3.338  0.00  0.00    +0.144 C 
ATOM      5  N   UNL     1       3.140  -0.024   3.554  0.00  0.00    -0.288 N 
ATOM      6  C   UNL     1       2.352   0.239   2.493  0.00  0.00    +0.307 C 
ATOM      7  O   UNL     1       1.153   0.343   2.662  0.00  0.00    -0.252 OA
ATOM      8  H   UNL     1       2.760  -0.130   4.441  0.00  0.00    +0.151 HD
ENDROOT
BRANCH   4   9
ATOM      9  C   UNL     1       5.276   0.882   4.204  0.00  0.00    -0.015 A 
ATOM     10  C   UNL     1       6.365   0.531   4.979  0.00  0.00    +0.013 A 
ATOM     11  C   UNL     1       6.957   1.478   5.747  0.00  0.00    +0.045 A 
ATOM     12  S   UNL     1       5.968   2.919   5.387  0.00  0.00    -0.105 S 
ATOM     13  C   UNL     1       4.835   2.164   4.232  0.00  0.00    +0.051 A 
ENDBRANCH   4   9
BRANCH   1  15
ATOM     14  C   UNL     1       1.740   2.176   0.014  0.00  0.00    +0.025 C 
ATOM     15  C   UNL     1       1.911   0.663   0.166  0.00  0.00    +0.111 C 
ENDBRANCH   1  15
BRANCH   3  16
ATOM     16  C   UNL     1       6.468  -0.060   1.610  0.00  0.00    +0.339 C 
ATOM     17  O   UNL     1       6.984  -1.153   1.467  0.00  0.00    -0.245 OA
BRANCH  16  18
ATOM     18  O   UNL     1       7.209   1.059   1.474  0.00  0.00    -0.462 OA
BRANCH  18  19
ATOM     19  C   UNL     1       8.593   0.887   1.162  0.00  0.00    +0.229 C 
ATOM     20  C   UNL     1       9.264   2.257   1.048  0.00  0.00    +0.048 C 
ENDBRANCH  18  19
ENDBRANCH  16  18
ENDBRANCH   3  16
BRANCH   2  21
ATOM     21  C   UNL     1       4.630   0.478  -0.467  0.00  0.00    +0.136 C 
BRANCH  21  22
ATOM     22  N   UNL     1       4.127  -0.630  -1.290  0.00  0.00    -0.294 NA
ATOM     23  C   UNL     1       4.735  -1.905  -0.885  0.00  0.00    +0.104 C 
ATOM     24  C   UNL     1       4.055  -3.053  -1.638  0.00  0.00    +0.124 C 
ATOM     25  N   UNL     1       4.113  -2.766  -3.079  0.00  0.00    -0.292 N 
ATOM     26  C   UNL     1       3.648  -1.452  -3.546  0.00  0.00    +0.087 C 
ATOM     27  C   UNL     1       4.344  -0.366  -2.718  0.00  0.00    +0.107 C 
ATOM     28  C   UNL     1       3.997  -1.278  -5.026  0.00  0.00    +0.029 C 
ATOM     29  C   UNL     1       4.581  -3.684  -3.949  0.00  0.00    +0.247 C 
ATOM     30  O   UNL     1       4.719  -3.394  -5.122  0.00  0.00    -0.270 OA
BRANCH  29  31
ATOM     31  C   UNL     1       4.925  -5.041  -3.477  0.00  0.00    +0.037 A 
ATOM     32  C   UNL     1       4.274  -5.583  -2.367  0.00  0.00    +0.014 A 
ATOM     33  C   UNL     1       4.599  -6.851  -1.932  0.00  0.00    +0.021 A 
ATOM     34  C   UNL     1       5.569  -7.586  -2.593  0.00  0.00    +0.041 A 
ATOM     35  C   UNL     1       6.218  -7.053  -3.695  0.00  0.00    +0.021 A 
ATOM     36  C   UNL     1       5.897  -5.789  -4.143  0.00  0.00    +0.014 A 
ATOM     37 CL   UNL     1       5.973  -9.180  -2.039  0.00  0.00    -0.084 Cl
ENDBRANCH  29  31
ENDBRANCH  21  22
ENDBRANCH   2  21
TORSDOF 8
