REMARK  Name = ZINC45788766
REMARK  8 active torsions:
REMARK  status: ('A' for Active; 'I' for Inactive)
REMARK    1  A    between atoms: C_1  and  C_2
REMARK    2  A    between atoms: N_7  and  C_9
REMARK    3  A    between atoms: C_9  and  C_10
REMARK    4  A    between atoms: C_15  and  C_16
REMARK    5  A    between atoms: C_16  and  N_17
REMARK    6  A    between atoms: N_20  and  N_21
REMARK    7  A    between atoms: C_22  and  C_24
REMARK    8  A    between atoms: N_26  and  C_27
REMARK                            x       y       z     vdW  Elec       q    Type
REMARK                         _______ _______ _______ _____ _____    ______ ____
ROOT
ATOM      1  N   UNL     1       4.527  -3.586   1.870  0.00  0.00    -0.294 N 
ATOM      2  C   UNL     1       5.645  -2.996   1.403  0.00  0.00    +0.316 C 
ATOM      3  O   UNL     1       5.738  -2.719   0.223  0.00  0.00    -0.251 OA
ATOM      4  N   UNL     1       6.660  -2.713   2.244  0.00  0.00    -0.218 N 
ATOM      5  H   UNL     1       4.453  -3.807   2.812  0.00  0.00    +0.151 HD
ATOM      6  H   UNL     1       7.465  -2.289   1.907  0.00  0.00    +0.174 HD
ENDROOT
BRANCH   4   7
ATOM      7  N   UNL     1       6.553  -3.033   3.603  0.00  0.00    -0.225 N 
ATOM      8  C   UNL     1       7.567  -2.751   4.444  0.00  0.00    +0.315 C 
ATOM      9  O   UNL     1       8.574  -2.220   4.023  0.00  0.00    -0.264 OA
ATOM     10  H   UNL     1       5.748  -3.457   3.940  0.00  0.00    +0.173 HD
BRANCH   8  11
ATOM     11  C   UNL     1       7.453  -3.091   5.895  0.00  0.00    +0.301 C 
ATOM     12  O   UNL     1       6.446  -3.623   6.316  0.00  0.00    -0.265 OA
ATOM     13  N   UNL     1       8.468  -2.809   6.735  0.00  0.00    -0.305 N 
ATOM     14  H   UNL     1       9.273  -2.385   6.399  0.00  0.00    +0.149 HD
BRANCH  13  15
ATOM     15  C   UNL     1       8.356  -3.143   8.157  0.00  0.00    +0.073 C 
ATOM     16  C   UNL     1       8.826  -2.095   9.168  0.00  0.00    +0.024 C 
ATOM     17  C   UNL     1       9.654  -3.360   8.937  0.00  0.00    +0.024 C 
ENDBRANCH  13  15
ENDBRANCH   8  11
ENDBRANCH   4   7
BRANCH   1  18
ATOM     18  C   UNL     1       3.424  -3.893   0.957  0.00  0.00    +0.141 C 
BRANCH  18  24
ATOM     19  C   UNL     1       1.396  -3.533   2.380  0.00  0.00    -0.059 A 
ATOM     20  C   UNL     1       0.316  -4.011   3.097  0.00  0.00    +0.002 A 
ATOM     21  C   UNL     1       0.092  -5.373   3.184  0.00  0.00    +0.000 A 
ATOM     22  C   UNL     1       0.949  -6.255   2.552  0.00  0.00    +0.000 A 
ATOM     23  C   UNL     1       2.029  -5.777   1.834  0.00  0.00    +0.005 A 
ATOM     24  C   UNL     1       2.250  -4.415   1.744  0.00  0.00    -0.029 A 
BRANCH  19  25
ATOM     25  C   UNL     1       1.640  -2.049   2.285  0.00  0.00    -0.043 C 
BRANCH  25  31
ATOM     26  C   UNL     1       4.489   1.621   3.829  0.00  0.00    +0.005 C 
ATOM     27  C   UNL     1       4.132   0.147   4.033  0.00  0.00    -0.031 C 
ATOM     28  C   UNL     1       3.659  -0.070   5.473  0.00  0.00    -0.001 C 
ATOM     29  C   UNL     1       3.230  -1.530   5.645  0.00  0.00    -0.018 C 
ATOM     30  C   UNL     1       2.141  -1.859   4.622  0.00  0.00    -0.078 C 
ATOM     31  N   UNL     1       2.663  -1.657   3.264  0.00  0.00    +0.383 N 
ATOM     32  C   UNL     1       3.010  -0.244   3.069  0.00  0.00    -0.075 C 
ATOM     33  H   UNL     1       3.486  -2.225   3.133  0.00  0.00    -0.081 HD
ENDBRANCH  25  31
ENDBRANCH  19  25
ENDBRANCH  18  24
ENDBRANCH   1  18
TORSDOF 7
