REMARK  Name = ZINC66407965
REMARK  4 active torsions:
REMARK  status: ('A' for Active; 'I' for Inactive)
REMARK    1  A    between atoms: C_1  and  O_2
REMARK    2  A    between atoms: O_2  and  C_3
REMARK    3  A    between atoms: C_5  and  C_10
REMARK    4  A    between atoms: C_8  and  O_9
REMARK                            x       y       z     vdW  Elec       q    Type
REMARK                         _______ _______ _______ _____ _____    ______ ____
ROOT
ATOM      1  C   UNL     1       2.454   0.296   4.187  0.00  0.00    +0.018 C 
ATOM      2  C   UNL     1       2.984  -0.319   5.268  0.00  0.00    +0.038 C 
ATOM      3  C   UNL     1       3.084  -1.830   5.384  0.00  0.00    +0.268 C 
ATOM      4  O   UNL     1       4.429  -2.167   5.725  0.00  0.00    -0.485 OA
ATOM      5  C   UNL     1       5.056  -1.501   6.722  0.00  0.00    +0.146 A 
ATOM      6  C   UNL     1       4.668  -0.212   7.109  0.00  0.00    +0.065 A 
ATOM      7  C   UNL     1       5.347   0.455   8.127  0.00  0.00    +0.015 A 
ATOM      8  C   UNL     1       6.402  -0.164   8.764  0.00  0.00    +0.002 A 
ATOM      9  C   UNL     1       6.782  -1.443   8.393  0.00  0.00    +0.019 A 
ATOM     10  C   UNL     1       6.119  -2.110   7.382  0.00  0.00    +0.060 A 
ATOM     11 BR   UNL     1       6.657  -3.855   6.892  0.00  0.00    -0.046 Br
ATOM     12  C   UNL     1       3.517   0.428   6.430  0.00  0.00    +0.196 C 
ATOM     13  O   UNL     1       3.046   1.488   6.802  0.00  0.00    -0.287 OA
ENDROOT
BRANCH   1  16
ATOM     14  C   UNL     1       0.445  -2.391   2.510  0.00  0.00    +0.162 A 
ATOM     15  C   UNL     1       1.073  -1.651   3.493  0.00  0.00    +0.057 A 
ATOM     16  C   UNL     1       1.784  -0.496   3.147  0.00  0.00    -0.021 A 
ATOM     17  C   UNL     1       1.855  -0.097   1.806  0.00  0.00    +0.012 A 
ATOM     18  C   UNL     1       1.225  -0.841   0.833  0.00  0.00    +0.050 A 
ATOM     19  C   UNL     1       0.525  -1.990   1.177  0.00  0.00    +0.158 A 
BRANCH  14  21
ATOM     20  C   UNL     1      -0.287  -3.865   4.227  0.00  0.00    +0.277 C 
ATOM     21  O   UNL     1      -0.247  -3.513   2.842  0.00  0.00    -0.491 OA
ENDBRANCH  14  21
BRANCH  19  22
ATOM     22  O   UNL     1      -0.089  -2.723   0.212  0.00  0.00    -0.503 OA
ATOM     23  H   UNL     1      -1.000  -2.454   0.033  0.00  0.00    +0.292 HD
ENDBRANCH  19  22
ENDBRANCH   1  16
TORSDOF 3
