REMARK  Name = ZINC27496695
REMARK  8 active torsions:
REMARK  status: ('A' for Active; 'I' for Inactive)
REMARK    1  A    between atoms: C_1  and  C_2
REMARK    2  A    between atoms: C_2  and  N_3
REMARK    3  A    between atoms: N_3  and  C_4
REMARK    4  A    between atoms: N_3  and  C_6
REMARK    5  A    between atoms: C_4  and  C_5
REMARK    6  A    between atoms: C_11  and  C_27
REMARK    7  A    between atoms: N_13  and  N_14
REMARK    8  A    between atoms: C_15  and  C_17
REMARK                            x       y       z     vdW  Elec       q    Type
REMARK                         _______ _______ _______ _____ _____    ______ ____
ROOT
ATOM      1  C   UNL     1       3.303   3.580   0.589  0.00  0.00    +0.033 A 
ATOM      2  C   UNL     1       2.073   4.213   0.405  0.00  0.00    +0.024 A 
ATOM      3  C   UNL     1       0.971   3.493   0.051  0.00  0.00    +0.013 A 
ATOM      4  C   UNL     1       1.067   2.104  -0.121  0.00  0.00    +0.018 A 
ATOM      5  C   UNL     1      -0.086   1.340  -0.441  0.00  0.00    +0.030 A 
ATOM      6  C   UNL     1       0.008  -0.041  -0.394  0.00  0.00    +0.098 A 
ATOM      7  C   UNL     1       1.305  -0.620   0.022  0.00  0.00    +0.224 A 
ATOM      8  N   UNL     1       1.373  -1.807   0.562  0.00  0.00    -0.273 N 
ATOM      9  O   UNL     1       2.425   0.130  -0.179  0.00  0.00    -0.437 OA
ATOM     10  C   UNL     1       2.313   1.466   0.034  0.00  0.00    +0.139 A 
ATOM     11  C   UNL     1       3.421   2.208   0.400  0.00  0.00    +0.070 A 
ATOM     12  H   UNL     1       2.352  -2.283   0.723  0.00  0.00    +0.188 HD
ENDROOT
BRANCH   6  13
ATOM     13  C   UNL     1      -1.136  -0.897  -0.744  0.00  0.00    +0.247 C 
ATOM     14  O   UNL     1      -2.265  -0.554  -0.449  0.00  0.00    -0.270 OA
ATOM     15  N   UNL     1      -0.932  -2.062  -1.391  0.00  0.00    -0.325 N 
ATOM     16  H   UNL     1      -1.787  -2.703  -1.652  0.00  0.00    +0.145 HD
ATOM     17  H   UNL     1       0.089  -2.372  -1.657  0.00  0.00    +0.145 HD
ENDBRANCH   6  13
BRANCH   8  18
ATOM     18  N   UNL     1       0.200  -2.474   0.938  0.00  0.00    -0.223 N 
ATOM     19  C   UNL     1       0.261  -3.745   1.383  0.00  0.00    +0.262 C 
ATOM     20  O   UNL     1       1.334  -4.313   1.458  0.00  0.00    -0.269 OA
ATOM     21  H   UNL     1      -0.770  -1.961   0.870  0.00  0.00    +0.175 HD
BRANCH  19  22
ATOM     22  C   UNL     1      -0.976  -4.449   1.779  0.00  0.00    +0.038 A 
ATOM     23  C   UNL     1      -2.209  -3.799   1.700  0.00  0.00    +0.014 A 
ATOM     24  C   UNL     1      -3.361  -4.463   2.066  0.00  0.00    +0.016 A 
ATOM     25  C   UNL     1      -3.295  -5.768   2.523  0.00  0.00    +0.018 A 
ATOM     26  C   UNL     1      -2.075  -6.417   2.609  0.00  0.00    +0.016 A 
ATOM     27  C   UNL     1      -0.917  -5.766   2.240  0.00  0.00    +0.014 A 
ATOM     28 BR   UNL     1      -4.879  -6.669   3.031  0.00  0.00    -0.050 Br
ENDBRANCH  19  22
ENDBRANCH   8  18
BRANCH   1  29
ATOM     29  N   UNL     1       4.415   4.325   0.962  0.00  0.00    -0.330 N 
BRANCH  29  31
ATOM     30  C   UNL     1       3.933   6.057   2.621  0.00  0.00    +0.024 C 
ATOM     31  C   UNL     1       4.295   5.771   1.162  0.00  0.00    +0.102 C 
ENDBRANCH  29  31
BRANCH  29  32
ATOM     32  C   UNL     1       5.708   3.664   1.156  0.00  0.00    +0.102 C 
ATOM     33  C   UNL     1       6.479   3.652  -0.166  0.00  0.00    +0.024 C 
ENDBRANCH  29  32
ENDBRANCH   1  29
TORSDOF 6
