REMARK  Name = ZINC20438543
REMARK  16 active torsions:
REMARK  status: ('A' for Active; 'I' for Inactive)
REMARK    1  A    between atoms: C_1  and  C_2
REMARK    2  A    between atoms: C_2  and  C_3
REMARK    3  A    between atoms: C_2  and  C_4
REMARK    4  A    between atoms: C_4  and  N_5
REMARK    5  A    between atoms: N_5  and  C_6
REMARK    6  A    between atoms: C_6  and  C_7
REMARK    7  A    between atoms: C_7  and  C_8
REMARK    8  A    between atoms: C_7  and  C_9
REMARK    9  A    between atoms: C_10  and  C_12
REMARK   10  A    between atoms: C_12  and  N_29
REMARK   11  A    between atoms: C_13  and  C_14
REMARK   12  A    between atoms: N_16  and  S_23
REMARK   13  A    between atoms: S_23  and  N_26
REMARK   14  A    between atoms: N_26  and  C_27
REMARK   15  A    between atoms: N_26  and  C_28
REMARK   16  A    between atoms: C_30  and  C_32
REMARK                            x       y       z     vdW  Elec       q    Type
REMARK                         _______ _______ _______ _____ _____    ______ ____
ROOT
ATOM      1  C   UNL     1      -0.649   1.405   0.259  0.00  0.00    +0.097 C 
ATOM      2  C   UNL     1       0.388   0.530   0.239  0.00  0.00    +0.038 C 
ENDROOT
BRANCH   2   3
ATOM      3  C   UNL     1       1.762   1.024   0.115  0.00  0.00    +0.004 A 
ATOM      4  C   UNL     1       2.222   2.257   0.477  0.00  0.00    +0.122 A 
ATOM      5  N   UNL     1       3.552   2.346   0.210  0.00  0.00    -0.208 N 
ATOM      6  C   UNL     1       4.011   1.167  -0.341  0.00  0.00    +0.074 A 
ATOM      7  C   UNL     1       2.920   0.285  -0.421  0.00  0.00    +0.009 A 
ATOM      8  C   UNL     1       3.092  -0.991  -0.949  0.00  0.00    +0.010 A 
ATOM      9  C   UNL     1       4.339  -1.389  -1.382  0.00  0.00    +0.001 A 
ATOM     10  C   UNL     1       5.418  -0.521  -1.298  0.00  0.00    +0.002 A 
ATOM     11  C   UNL     1       5.261   0.747  -0.783  0.00  0.00    +0.028 A 
BRANCH   5  12
ATOM     12  S   UNL     1       4.488   3.680   0.503  0.00  0.00    +0.123 S 
ATOM     13  O   UNL     1       3.626   4.670   1.046  0.00  0.00    -0.136 OA
ATOM     14  O   UNL     1       5.646   3.220   1.186  0.00  0.00    -0.136 OA
BRANCH  12  15
ATOM     15  N   UNL     1       5.000   4.251  -0.965  0.00  0.00    -0.168 NA
ATOM     16  C   UNL     1       4.138   5.144  -1.744  0.00  0.00    +0.133 C 
ATOM     17  C   UNL     1       6.314   3.864  -1.484  0.00  0.00    +0.133 C 
ENDBRANCH  12  15
ENDBRANCH   5  12
ENDBRANCH   2   3
BRANCH   1  18
ATOM     18  N   UNL     1      -0.422   2.767   0.015  0.00  0.00    -0.277 N 
ATOM     19  C   UNL     1      -1.425   3.655   0.164  0.00  0.00    +0.248 C 
ATOM     20  O   UNL     1      -2.498   3.292   0.604  0.00  0.00    -0.270 OA
ATOM     21  H   UNL     1       0.575   3.111  -0.298  0.00  0.00    +0.155 HD
BRANCH  19  22
ATOM     22  C   UNL     1      -1.219   5.071  -0.208  0.00  0.00    +0.037 A 
ATOM     23  C   UNL     1       0.014   5.493  -0.708  0.00  0.00    +0.013 A 
ATOM     24  C   UNL     1       0.197   6.815  -1.057  0.00  0.00    +0.001 A 
ATOM     25  C   UNL     1      -0.834   7.724  -0.903  0.00  0.00    +0.000 A 
ATOM     26  C   UNL     1      -2.057   7.314  -0.403  0.00  0.00    +0.001 A 
ATOM     27  C   UNL     1      -2.256   5.994  -0.055  0.00  0.00    +0.013 A 
ENDBRANCH  19  22
ENDBRANCH   1  18
BRANCH   1  29
ATOM     28  N   UNL     1      -2.784   0.491  -0.475  0.00  0.00    -0.296 N 
ATOM     29  C   UNL     1      -2.005   0.928   0.534  0.00  0.00    +0.261 C 
ATOM     30  O   UNL     1      -2.429   0.925   1.675  0.00  0.00    -0.269 OA
BRANCH  28  31
ATOM     31  C   UNL     1      -4.177   0.117  -0.217  0.00  0.00    +0.111 C 
BRANCH  31  33
ATOM     32  C   UNL     1      -5.042   1.793  -1.855  0.00  0.00    +0.009 C 
ATOM     33  C   UNL     1      -5.076   1.342  -0.393  0.00  0.00    +0.000 C 
ATOM     34  C   UNL     1      -6.511   0.982  -0.003  0.00  0.00    +0.009 C 
ENDBRANCH  31  33
ENDBRANCH  28  31
BRANCH  28  35
ATOM     35  C   UNL     1      -2.238   0.392  -1.831  0.00  0.00    +0.111 C 
BRANCH  35  36
ATOM     36  C   UNL     1      -1.576  -0.975  -2.015  0.00  0.00    +0.000 C 
ATOM     37  C   UNL     1      -2.641  -2.071  -1.944  0.00  0.00    +0.009 C 
ATOM     38  C   UNL     1      -0.881  -1.026  -3.377  0.00  0.00    +0.009 C 
ENDBRANCH  35  36
ENDBRANCH  28  35
ENDBRANCH   1  29
TORSDOF 10
