REMARK  Name = ZINC41894864
REMARK  6 active torsions:
REMARK  status: ('A' for Active; 'I' for Inactive)
REMARK    1  A    between atoms: C_1  and  C_2
REMARK    2  A    between atoms: C_2  and  C_3
REMARK    3  A    between atoms: C_3  and  C_4
REMARK    4  A    between atoms: C_4  and  C_5
REMARK    5  A    between atoms: C_4  and  C_11
REMARK    6  A    between atoms: C_4  and  N_14
REMARK                            x       y       z     vdW  Elec       q    Type
REMARK                         _______ _______ _______ _____ _____    ______ ____
ROOT
ATOM      1  C   UNL     1       0.849  -2.021  -1.205  0.00  0.00    +0.192 C 
ENDROOT
BRANCH   1   2
ATOM      2  N   UNL     1       1.167  -2.013   0.225  0.00  0.00    -0.204 N 
ATOM      3  C   UNL     1       2.370  -1.571   0.644  0.00  0.00    +0.269 A 
ATOM      4  O   UNL     1       3.196  -1.179  -0.164  0.00  0.00    -0.266 OA
ATOM      5  C   UNL     1       2.666  -1.567   2.022  0.00  0.00    +0.077 A 
ATOM      6  C   UNL     1       1.731  -2.008   2.906  0.00  0.00    +0.079 A 
ATOM      7  C   UNL     1       0.485  -2.462   2.435  0.00  0.00    +0.287 A 
ATOM      8  O   UNL     1      -0.449  -2.902   3.317  0.00  0.00    -0.264 OA
ATOM      9  N   UNL     1       0.217  -2.457   1.153  0.00  0.00    -0.125 NA
ENDBRANCH   1   2
BRANCH   1  10
ATOM     10  C   UNL     1      -0.543  -2.561  -1.407  0.00  0.00    -0.009 A 
ATOM     11  C   UNL     1      -1.403  -1.938  -2.293  0.00  0.00    +0.006 A 
ATOM     12  C   UNL     1      -2.681  -2.433  -2.479  0.00  0.00    +0.000 A 
ATOM     13  C   UNL     1      -3.098  -3.550  -1.779  0.00  0.00    +0.000 A 
ATOM     14  C   UNL     1      -2.237  -4.173  -0.895  0.00  0.00    +0.000 A 
ATOM     15  C   UNL     1      -0.958  -3.681  -0.712  0.00  0.00    +0.006 A 
ENDBRANCH   1  10
BRANCH   1  16
ATOM     16  C   UNL     1       1.837  -2.895  -1.934  0.00  0.00    +0.388 C 
ATOM     17  O   UNL     1       2.724  -3.458  -1.315  0.00  0.00    -0.243 OA
ATOM     18  O   UNL     1       1.750  -3.038  -3.141  0.00  0.00    -0.243 OA
ENDBRANCH   1  16
BRANCH   1  19
ATOM     19  C   UNL     1       0.928  -0.595  -1.753  0.00  0.00    +0.047 C 
BRANCH  19  21
ATOM     20  C   UNL     1       0.020   1.723  -1.538  0.00  0.00    +0.004 C 
ATOM     21  C   UNL     1       0.026   0.321  -0.924  0.00  0.00    -0.000 C 
ENDBRANCH  19  21
ENDBRANCH   1  19
TORSDOF 5
