REMARK  Name = ZINC18107388
REMARK  4 active torsions:
REMARK  status: ('A' for Active; 'I' for Inactive)
REMARK    1  A    between atoms: C_1  and  C_2
REMARK    2  A    between atoms: C_10  and  C_18
REMARK    3  A    between atoms: C_12  and  C_16
REMARK    4  A    between atoms: C_13  and  N_15
REMARK                            x       y       z     vdW  Elec       q    Type
REMARK                         _______ _______ _______ _____ _____    ______ ____
ROOT
ATOM      1  C   UNL     1       1.157  -2.196  -0.021  0.00  0.00    +0.063 C 
ATOM      2  C   UNL     1       1.176  -0.689  -0.013  0.00  0.00    +0.019 A 
ATOM      3  C   UNL     1       2.358  -0.037  -0.021  0.00  0.00    +0.067 A 
ATOM      4  C   UNL     1       2.382   1.373  -0.013  0.00  0.00    +0.141 A 
ATOM      5  C   UNL     1       1.186   2.060   0.002  0.00  0.00    +0.072 A 
ATOM      6  C   UNL     1      -0.016   1.342   0.009  0.00  0.00    +0.257 A 
ATOM      7  O   UNL     1      -1.082   1.937   0.018  0.00  0.00    -0.267 OA
ATOM      8  N   UNL     1       0.002  -0.004   0.002  0.00  0.00    -0.326 N 
ATOM      9  H   UNL     1      -0.836  -0.493   0.007  0.00  0.00    +0.169 HD
ATOM     10  C   UNL     1       1.165   3.564   0.010  0.00  0.00    +0.103 C 
ATOM     11  C   UNL     1       2.515   4.099   0.398  0.00  0.00    +0.098 C 
ATOM     12  C   UNL     1       3.618   3.314   0.362  0.00  0.00    +0.199 C 
ATOM     13  O   UNL     1       3.562   2.027  -0.021  0.00  0.00    -0.441 OA
ENDROOT
BRANCH  10  14
ATOM     14  C   UNL     1       0.807   4.063  -1.366  0.00  0.00    -0.034 A 
ATOM     15  C   UNL     1       1.616   3.758  -2.444  0.00  0.00    +0.004 A 
ATOM     16  C   UNL     1       1.285   4.212  -3.707  0.00  0.00    +0.000 A 
ATOM     17  C   UNL     1       0.150   4.978  -3.891  0.00  0.00    +0.000 A 
ATOM     18  C   UNL     1      -0.657   5.288  -2.812  0.00  0.00    +0.000 A 
ATOM     19  C   UNL     1      -0.329   4.830  -1.550  0.00  0.00    +0.004 A 
ENDBRANCH  10  14
BRANCH  12  20
ATOM     20  N   UNL     1       4.829   3.850   0.726  0.00  0.00    -0.328 N 
ATOM     21  H   UNL     1       5.628   3.300   0.705  0.00  0.00    +0.145 HD
ATOM     22  H   UNL     1       4.885   4.777   1.004  0.00  0.00    +0.145 HD
ENDBRANCH  12  20
BRANCH  11  23
ATOM     23  C   UNL     1       2.637   5.464   0.815  0.00  0.00    +0.101 C 
ATOM     24  N   UNL     1       2.734   6.546   1.145  0.00  0.00    -0.191 NA
ENDBRANCH  11  23
TORSDOF 3
