REMARK  Name = ZINC39931940
REMARK  8 active torsions:
REMARK  status: ('A' for Active; 'I' for Inactive)
REMARK    1  A    between atoms: C_1  and  C_2
REMARK    2  A    between atoms: C_5  and  N_8
REMARK    3  A    between atoms: N_9  and  C_10
REMARK    4  A    between atoms: C_11  and  N_30
REMARK    5  A    between atoms: C_14  and  C_16
REMARK    6  A    between atoms: C_17  and  C_29
REMARK    7  A    between atoms: N_18  and  C_28
REMARK    8  A    between atoms: N_19  and  C_22
REMARK                            x       y       z     vdW  Elec       q    Type
REMARK                         _______ _______ _______ _____ _____    ______ ____
ROOT
ATOM      1  C   UNL     1       0.165  -5.658   1.317  0.00  0.00    +0.134 C 
ATOM      2  C   UNL     1       0.144  -6.213   0.077  0.00  0.00    +0.148 C 
ATOM      3  N   UNL     1       0.081  -7.548   0.163  0.00  0.00    -0.138 NA
ATOM      4  N   UNL     1       0.054  -7.995   1.311  0.00  0.00    -0.171 NA
ATOM      5  C   UNL     1       0.111  -6.858   2.246  0.00  0.00    +0.218 C 
ENDROOT
BRANCH   5   6
ATOM      6  C   UNL     1      -1.128  -6.814   3.103  0.00  0.00    +0.071 A 
ATOM      7  C   UNL     1      -1.158  -6.670   4.444  0.00  0.00    +0.044 A 
ATOM      8  N   UNL     1      -2.463  -6.677   4.849  0.00  0.00    -0.284 N 
ATOM      9  N   UNL     1      -3.272  -6.832   3.716  0.00  0.00    -0.217 N 
ATOM     10  C   UNL     1      -2.461  -6.910   2.641  0.00  0.00    +0.278 A 
ATOM     11  O   UNL     1      -2.813  -7.043   1.483  0.00  0.00    -0.265 OA
ATOM     12  C   UNL     1      -2.934  -6.546   6.231  0.00  0.00    +0.171 C 
ATOM     13  C   UNL     1       0.043  -6.527   5.342  0.00  0.00    +0.065 C 
BRANCH   9  14
ATOM     14  C   UNL     1      -4.669  -6.888   3.701  0.00  0.00    +0.067 A 
ATOM     15  C   UNL     1      -5.318  -7.888   2.988  0.00  0.00    +0.028 A 
ATOM     16  C   UNL     1      -6.698  -7.941   2.975  0.00  0.00    +0.002 A 
ATOM     17  C   UNL     1      -7.434  -7.000   3.672  0.00  0.00    +0.000 A 
ATOM     18  C   UNL     1      -6.791  -6.003   4.384  0.00  0.00    +0.002 A 
ATOM     19  C   UNL     1      -5.411  -5.949   4.405  0.00  0.00    +0.028 A 
ENDBRANCH   9  14
ENDBRANCH   5   6
BRANCH   2  20
ATOM     20  N   UNL     1       0.183  -5.492  -1.120  0.00  0.00    -0.399 NA
ATOM     21  H   UNL     1       1.142  -5.363  -1.404  0.00  0.00    +0.122 HD
ATOM     22  H   UNL     1      -0.314  -6.001  -1.835  0.00  0.00    +0.122 HD
ATOM     23  H   UNL     1      -0.252  -4.591  -0.984  0.00  0.00    +0.122 HD
ENDBRANCH   2  20
BRANCH   1  25
ATOM     24  N   UNL     1       0.266  -3.456   0.718  0.00  0.00    -0.149 NA
ATOM     25  N   UNL     1       0.225  -4.353   1.645  0.00  0.00    -0.148 NA
BRANCH  24  30
ATOM     26  C   UNL     1       0.517   2.009   2.090  0.00  0.00    +0.044 C 
ATOM     27  C   UNL     1       0.450   0.549   1.724  0.00  0.00    -0.050 A 
ATOM     28  C   UNL     1       0.431   0.174   0.391  0.00  0.00    +0.005 A 
ATOM     29  C   UNL     1       0.370  -1.160   0.047  0.00  0.00    +0.030 A 
ATOM     30  C   UNL     1       0.327  -2.135   1.050  0.00  0.00    +0.086 A 
ATOM     31  C   UNL     1       0.345  -1.748   2.394  0.00  0.00    +0.030 A 
ATOM     32  C   UNL     1       0.412  -0.410   2.721  0.00  0.00    +0.005 A 
ENDBRANCH  24  30
ENDBRANCH   1  25
TORSDOF 5
