REMARK  Name = ZINC39674102
REMARK  8 active torsions:
REMARK  status: ('A' for Active; 'I' for Inactive)
REMARK    1  A    between atoms: C_1  and  C_2
REMARK    2  A    between atoms: C_4  and  C_12
REMARK    3  A    between atoms: C_12  and  C_13
REMARK    4  A    between atoms: C_13  and  N_14
REMARK    5  A    between atoms: C_15  and  C_17
REMARK    6  A    between atoms: C_28  and  C_30
REMARK    7  A    between atoms: C_31  and  C_42
REMARK    8  A    between atoms: C_34  and  C_36
REMARK                            x       y       z     vdW  Elec       q    Type
REMARK                         _______ _______ _______ _____ _____    ______ ____
ROOT
ATOM      1  C   UNL     1      -5.368   3.441   4.192  0.00  0.00    +0.100 C 
ATOM      2  C   UNL     1      -6.696   3.275   3.420  0.00  0.00    +0.121 C 
ATOM      3  N   UNL     1      -7.671   4.099   4.171  0.00  0.00    -0.296 N 
ATOM      4  C   UNL     1      -6.908   5.308   4.563  0.00  0.00    +0.115 C 
ATOM      5  C   UNL     1      -5.511   4.777   4.941  0.00  0.00    -0.004 C 
ATOM      6  C   UNL     1      -4.434   5.756   4.485  0.00  0.00    -0.010 C 
ATOM      7  C   UNL     1      -4.560   7.056   5.284  0.00  0.00    -0.082 C 
ATOM      8  N   UNL     1      -4.413   6.768   6.716  0.00  0.00    +0.379 N 
ATOM      9  C   UNL     1      -5.507   5.900   7.167  0.00  0.00    -0.082 C 
ATOM     10  C   UNL     1      -5.421   4.551   6.447  0.00  0.00    -0.010 C 
ATOM     11  C   UNL     1      -8.961   3.815   4.437  0.00  0.00    +0.248 C 
ATOM     12  O   UNL     1      -9.665   4.640   4.990  0.00  0.00    -0.270 OA
ATOM     13  H   UNL     1      -3.531   6.306   6.876  0.00  0.00    -0.086 HD
ATOM     14  H   UNL     1      -4.436   7.633   7.236  0.00  0.00    -0.086 HD
ENDROOT
BRANCH  11  15
ATOM     15  C   UNL     1      -9.499   2.554   4.072  0.00  0.00    +0.078 C 
ATOM     16  C   UNL     1      -9.916   2.192   2.847  0.00  0.00    +0.132 C 
ATOM     17  O   UNL     1     -10.383   0.929   2.829  0.00  0.00    -0.410 OA
ATOM     18  N   UNL     1      -9.895   0.244   4.039  0.00  0.00    -0.144 NA
ATOM     19  C   UNL     1      -9.703   1.365   4.993  0.00  0.00    +0.161 C 
ATOM     20  C   UNL     1      -9.868   3.091   1.639  0.00  0.00    +0.089 C 
ATOM     21  H   UNL     1     -10.579  -0.413   4.383  0.00  0.00    +0.168 HD
BRANCH  19  22
ATOM     22  C   UNL     1     -10.931   1.554   5.846  0.00  0.00    -0.023 A 
ATOM     23  C   UNL     1     -12.188   1.413   5.289  0.00  0.00    +0.005 A 
ATOM     24  C   UNL     1     -13.314   1.586   6.072  0.00  0.00    +0.000 A 
ATOM     25  C   UNL     1     -13.183   1.899   7.412  0.00  0.00    +0.000 A 
ATOM     26  C   UNL     1     -11.925   2.039   7.969  0.00  0.00    +0.000 A 
ATOM     27  C   UNL     1     -10.799   1.862   7.187  0.00  0.00    +0.005 A 
ENDBRANCH  19  22
ENDBRANCH  11  15
BRANCH   1  29
ATOM     28  N   UNL     1      -2.969   3.170   3.655  0.00  0.00    -0.315 N 
ATOM     29  C   UNL     1      -4.206   3.498   3.234  0.00  0.00    +0.218 C 
ATOM     30  O   UNL     1      -4.386   3.840   2.084  0.00  0.00    -0.275 OA
ATOM     31  H   UNL     1      -2.826   2.897   4.574  0.00  0.00    +0.149 HD
BRANCH  28  32
ATOM     32  C   UNL     1      -1.840   3.225   2.723  0.00  0.00    +0.109 C 
BRANCH  32  33
ATOM     33  C   UNL     1      -0.559   2.807   3.448  0.00  0.00    +0.056 C 
BRANCH  33  37
ATOM     34  C   UNL     1       1.265   5.265   2.930  0.00  0.00    +0.063 C 
ATOM     35  C   UNL     1       1.397   3.922   2.259  0.00  0.00    +0.017 A 
ATOM     36  H   UNL     1       3.022   4.206   0.988  0.00  0.00    +0.166 HD
ATOM     37  C   UNL     1       0.603   2.865   2.489  0.00  0.00    -0.018 A 
ATOM     38  C   UNL     1       1.080   1.776   1.632  0.00  0.00    +0.003 A 
ATOM     39  C   UNL     1       0.675   0.457   1.424  0.00  0.00    +0.010 A 
ATOM     40  C   UNL     1       1.348  -0.326   0.529  0.00  0.00    +0.001 A 
ATOM     41  C   UNL     1       2.431   0.180  -0.176  0.00  0.00    +0.002 A 
ATOM     42  C   UNL     1       2.848   1.480   0.014  0.00  0.00    +0.026 A 
ATOM     43  C   UNL     1       2.177   2.294   0.921  0.00  0.00    +0.047 A 
ATOM     44  N   UNL     1       2.340   3.602   1.321  0.00  0.00    -0.358 N 
ENDBRANCH  33  37
ENDBRANCH  32  33
ENDBRANCH  28  32
ENDBRANCH   1  29
TORSDOF 6
