REMARK  Name = ZINC39685986
REMARK  7 active torsions:
REMARK  status: ('A' for Active; 'I' for Inactive)
REMARK    1  A    between atoms: C_1  and  C_2
REMARK    2  A    between atoms: C_2  and  C_3
REMARK    3  A    between atoms: C_2  and  C_4
REMARK    4  A    between atoms: C_9  and  N_12
REMARK    5  A    between atoms: C_13  and  C_15
REMARK    6  A    between atoms: C_26  and  C_28
REMARK    7  A    between atoms: C_32  and  C_34
REMARK                            x       y       z     vdW  Elec       q    Type
REMARK                         _______ _______ _______ _____ _____    ______ ____
ROOT
ATOM      1  C   UNL     1       1.419   2.808   7.482  0.00  0.00    +0.100 C 
ATOM      2  C   UNL     1       2.664   3.697   7.266  0.00  0.00    +0.121 C 
ATOM      3  N   UNL     1       3.159   3.987   8.633  0.00  0.00    -0.296 N 
ATOM      4  C   UNL     1       2.976   2.713   9.369  0.00  0.00    +0.115 C 
ATOM      5  C   UNL     1       1.628   2.164   8.863  0.00  0.00    -0.004 C 
ATOM      6  C   UNL     1       1.692   0.645   8.732  0.00  0.00    -0.010 C 
ATOM      7  C   UNL     1       1.842   0.024  10.124  0.00  0.00    -0.082 C 
ATOM      8  N   UNL     1       0.702   0.415  10.962  0.00  0.00    +0.379 N 
ATOM      9  C   UNL     1       0.701   1.870  11.158  0.00  0.00    -0.082 C 
ATOM     10  C   UNL     1       0.503   2.569   9.810  0.00  0.00    -0.010 C 
ATOM     11  C   UNL     1       3.660   5.147   9.101  0.00  0.00    +0.247 C 
ATOM     12  O   UNL     1       3.633   6.145   8.407  0.00  0.00    -0.270 OA
ATOM     13  H   UNL     1      -0.157   0.138  10.510  0.00  0.00    -0.086 HD
ATOM     14  H   UNL     1       0.771  -0.044  11.857  0.00  0.00    -0.086 HD
ENDROOT
BRANCH  11  15
ATOM     15  C   UNL     1       4.244   5.205  10.456  0.00  0.00    +0.038 A 
ATOM     16  C   UNL     1       4.675   4.035  11.085  0.00  0.00    +0.016 A 
ATOM     17  C   UNL     1       5.218   4.096  12.350  0.00  0.00    +0.039 A 
ATOM     18  C   UNL     1       5.338   5.316  12.999  0.00  0.00    +0.135 A 
ATOM     19  C   UNL     1       4.912   6.480  12.379  0.00  0.00    +0.091 A 
ATOM     20  C   UNL     1       4.372   6.432  11.111  0.00  0.00    +0.028 A 
ATOM     21  F   UNL     1       5.871   5.369  14.239  0.00  0.00    -0.205 F 
BRANCH  19  22
ATOM     22  C   UNL     1       5.045   7.802  13.090  0.00  0.00    +0.420 C 
ATOM     23  F   UNL     1       4.551   8.824  12.271  0.00  0.00    -0.166 F 
ATOM     24  F   UNL     1       4.314   7.766  14.282  0.00  0.00    -0.166 F 
ATOM     25  F   UNL     1       6.393   8.044  13.377  0.00  0.00    -0.166 F 
ENDBRANCH  19  22
ENDBRANCH  11  15
BRANCH   1  27
ATOM     26  N   UNL     1       0.139   1.278   6.019  0.00  0.00    -0.312 N 
ATOM     27  C   UNL     1       1.339   1.748   6.414  0.00  0.00    +0.218 C 
ATOM     28  O   UNL     1       2.355   1.317   5.910  0.00  0.00    -0.275 OA
ATOM     29  H   UNL     1      -0.673   1.622   6.423  0.00  0.00    +0.149 HD
BRANCH  26  35
ATOM     30  C   UNL     1      -2.024  -1.242   1.771  0.00  0.00    +0.218 C 
ATOM     31  O   UNL     1      -1.828  -0.794   0.661  0.00  0.00    -0.275 OA
ATOM     32  N   UNL     1      -1.126  -1.027   2.753  0.00  0.00    -0.301 N 
ATOM     33  C   UNL     1      -1.302  -1.640   4.076  0.00  0.00    +0.109 C 
ATOM     34  C   UNL     1      -1.241  -0.541   5.141  0.00  0.00    +0.041 C 
ATOM     35  C   UNL     1       0.062   0.246   4.982  0.00  0.00    +0.076 C 
ATOM     36  C   UNL     1       0.094   0.908   3.602  0.00  0.00    +0.041 C 
ATOM     37  C   UNL     1       0.051  -0.179   2.518  0.00  0.00    +0.109 C 
BRANCH  30  39
ATOM     38  C   UNL     1      -4.322  -1.131   2.697  0.00  0.00    +0.017 C 
ATOM     39  C   UNL     1      -3.272  -2.038   2.053  0.00  0.00    +0.069 C 
ATOM     40  C   UNL     1      -3.822  -2.605   0.743  0.00  0.00    +0.017 C 
ENDBRANCH  30  39
ENDBRANCH  26  35
ENDBRANCH   1  27
TORSDOF 5
