REMARK  Name = ZINC27525689
REMARK  12 active torsions:
REMARK  status: ('A' for Active; 'I' for Inactive)
REMARK    1  A    between atoms: C_1  and  C_2
REMARK    2  A    between atoms: C_2  and  C_3
REMARK    3  A    between atoms: C_2  and  C_4
REMARK    4  A    between atoms: C_2  and  C_5
REMARK    5  A    between atoms: N_8  and  N_32
REMARK    6  A    between atoms: N_12  and  N_13
REMARK    7  A    between atoms: C_14  and  C_15
REMARK    8  A    between atoms: C_20  and  O_21
REMARK    9  A    between atoms: O_21  and  C_22
REMARK   10  A    between atoms: C_22  and  C_24
REMARK   11  A    between atoms: C_29  and  O_30
REMARK   12  A    between atoms: O_30  and  C_31
REMARK                            x       y       z     vdW  Elec       q    Type
REMARK                         _______ _______ _______ _____ _____    ______ ____
ROOT
ATOM      1  N   UNL     1       0.560  -1.628  -0.798  0.00  0.00    -0.187 NA
ATOM      2  C   UNL     1       1.491  -0.728  -0.699  0.00  0.00    +0.142 C 
ENDROOT
BRANCH   1  10
ATOM      3  C   UNL     1      -2.014  -5.734  -1.238  0.00  0.00    +0.106 A 
ATOM      4  C   UNL     1      -0.713  -6.184  -0.923  0.00  0.00    +0.292 A 
ATOM      5  O   UNL     1      -0.463  -7.375  -0.847  0.00  0.00    -0.264 OA
ATOM      6  N   UNL     1       0.248  -5.256  -0.705  0.00  0.00    -0.198 N 
ATOM      7  C   UNL     1      -0.085  -3.938  -0.802  0.00  0.00    +0.253 A 
ATOM      8  N   UNL     1      -1.323  -3.580  -1.096  0.00  0.00    -0.136 NA
ATOM      9  N   UNL     1      -2.249  -4.445  -1.311  0.00  0.00    -0.273 N 
ATOM     10  N   UNL     1       0.867  -2.979  -0.587  0.00  0.00    -0.204 N 
ATOM     11  H   UNL     1       1.873  -3.268  -0.249  0.00  0.00    +0.177 HD
ATOM     12  H   UNL     1      -3.258  -4.083  -1.561  0.00  0.00    +0.189 HD
BRANCH   3  14
ATOM     13  C   UNL     1      -4.403  -5.975  -1.857  0.00  0.00    +0.017 C 
ATOM     14  C   UNL     1      -3.121  -6.725  -1.489  0.00  0.00    +0.009 C 
ATOM     15  C   UNL     1      -2.725  -7.652  -2.640  0.00  0.00    +0.017 C 
ATOM     16  C   UNL     1      -3.359  -7.554  -0.226  0.00  0.00    +0.017 C 
ENDBRANCH   3  14
BRANCH   6  17
ATOM     17  N   UNL     1       1.524  -5.633  -0.396  0.00  0.00    -0.293 N 
ATOM     18  H   UNL     1       2.296  -4.869  -0.222  0.00  0.00    +0.163 HD
ATOM     19  H   UNL     1       1.780  -6.700  -0.321  0.00  0.00    +0.163 HD
ENDBRANCH   6  17
ENDBRANCH   1  10
BRANCH   2  20
ATOM     20  C   UNL     1       1.146   0.702  -0.789  0.00  0.00    +0.037 A 
ATOM     21  C   UNL     1       2.140   1.674  -0.657  0.00  0.00    +0.013 A 
ATOM     22  C   UNL     1       1.810   3.010  -0.742  0.00  0.00    +0.001 A 
ATOM     23  C   UNL     1       0.497   3.393  -0.958  0.00  0.00    +0.004 A 
ATOM     24  C   UNL     1      -0.496   2.441  -1.091  0.00  0.00    +0.047 A 
ATOM     25  C   UNL     1      -0.182   1.094  -1.008  0.00  0.00    +0.141 A 
BRANCH  25  26
ATOM     26  O   UNL     1      -1.157   0.157  -1.137  0.00  0.00    -0.422 OA
BRANCH  26  27
ATOM     27  C   UNL     1      -1.750  -0.269  -0.005  0.00  0.00    +0.348 C 
ATOM     28  O   UNL     1      -1.334   0.100   1.075  0.00  0.00    -0.244 OA
BRANCH  27  29
ATOM     29  C   UNL     1      -2.905  -1.183  -0.077  0.00  0.00    +0.101 A 
ATOM     30  C   UNL     1      -3.407  -1.585  -1.317  0.00  0.00    +0.018 A 
ATOM     31  C   UNL     1      -4.483  -2.443  -1.377  0.00  0.00    +0.001 A 
ATOM     32  C   UNL     1      -5.077  -2.903  -0.213  0.00  0.00    +0.004 A 
ATOM     33  C   UNL     1      -4.594  -2.510   1.020  0.00  0.00    +0.046 A 
ATOM     34  C   UNL     1      -3.509  -1.650   1.099  0.00  0.00    +0.134 A 
BRANCH  34  35
ATOM     35  O   UNL     1      -3.034  -1.262   2.309  0.00  0.00    -0.494 OA
ATOM     36  C   UNL     1      -3.700  -1.778   3.463  0.00  0.00    +0.277 C 
ENDBRANCH  34  35
ENDBRANCH  27  29
ENDBRANCH  26  27
ENDBRANCH  25  26
ENDBRANCH   2  20
TORSDOF 8
