REMARK  Name = ZINC09611482
REMARK  12 active torsions:
REMARK  status: ('A' for Active; 'I' for Inactive)
REMARK    1  A    between atoms: C_1  and  N_69
REMARK    2  A    between atoms: C_2  and  C_3
REMARK    3  A    between atoms: C_2  and  N_69
REMARK    4  A    between atoms: C_3  and  N_4
REMARK    5  A    between atoms: C_5  and  C_7
REMARK    6  A    between atoms: C_7  and  C_9
REMARK    7  A    between atoms: C_7  and  N_16
REMARK    8  A    between atoms: C_9  and  C_10
REMARK    9  A    between atoms: N_16  and  S_17
REMARK   10  A    between atoms: S_17  and  C_20
REMARK   11  A    between atoms: C_31  and  C_32
REMARK   12  A    between atoms: C_31  and  N_69
REMARK                            x       y       z     vdW  Elec       q    Type
REMARK                         _______ _______ _______ _____ _____    ______ ____
ROOT
ATOM      1  C   UNL     1       2.379   2.554  -1.002  0.00  0.00    +0.166 C 
ENDROOT
BRANCH   1   3
ATOM      2  N   UNL     1       4.160   3.822  -2.159  0.00  0.00    -0.316 N 
ATOM      3  C   UNL     1       3.236   3.780  -1.178  0.00  0.00    +0.232 C 
ATOM      4  O   UNL     1       3.096   4.730  -0.437  0.00  0.00    -0.274 OA
ATOM      5  H   UNL     1       4.272   3.063  -2.752  0.00  0.00    +0.149 HD
BRANCH   2   6
ATOM      6  C   UNL     1       4.994   5.014  -2.329  0.00  0.00    +0.086 C 
BRANCH   6   7
ATOM      7  C   UNL     1       5.951   4.803  -3.504  0.00  0.00    -0.060 C 
BRANCH   7   9
ATOM      8  C   UNL     1       7.682   6.185  -2.525  0.00  0.00    -0.096 C 
ATOM      9  N   UNL     1       6.770   6.022  -3.677  0.00  0.00    +0.382 N 
ATOM     10  H   UNL     1       6.148   6.837  -3.728  0.00  0.00    -0.082 HD
BRANCH   9  11
ATOM     11  C   UNL     1       7.550   5.933  -4.929  0.00  0.00    -0.043 C 
BRANCH  11  12
ATOM     12  C   UNL     1       8.200   7.266  -5.192  0.00  0.00    -0.064 A 
ATOM     13  C   UNL     1       7.531   8.229  -5.926  0.00  0.00    +0.002 A 
ATOM     14  C   UNL     1       8.126   9.454  -6.164  0.00  0.00    +0.000 A 
ATOM     15  C   UNL     1       9.393   9.713  -5.676  0.00  0.00    +0.000 A 
ATOM     16  C   UNL     1      10.064   8.749  -4.947  0.00  0.00    +0.000 A 
ATOM     17  C   UNL     1       9.467   7.526  -4.705  0.00  0.00    +0.002 A 
ENDBRANCH  11  12
ENDBRANCH   9  11
ENDBRANCH   7   9
ENDBRANCH   6   7
ENDBRANCH   2   6
ENDBRANCH   1   3
BRANCH   1  18
ATOM     18  N   UNL     1       1.462   2.756   0.122  0.00  0.00    -0.178 NA
ATOM     19  H   UNL     1       1.752   2.558   1.026  0.00  0.00    +0.149 HD
BRANCH  18  20
ATOM     20  S   UNL     1      -0.070   3.324  -0.150  0.00  0.00    +0.059 S 
ATOM     21  O   UNL     1       0.064   4.477  -0.970  0.00  0.00    -0.153 OA
ATOM     22  O   UNL     1      -0.720   3.359   1.113  0.00  0.00    -0.153 OA
BRANCH  20  23
ATOM     23  C   UNL     1      -0.910   2.114  -1.116  0.00  0.00    +0.106 A 
ATOM     24  C   UNL     1      -0.920   2.217  -2.495  0.00  0.00    +0.030 A 
ATOM     25  C   UNL     1      -1.575   1.269  -3.256  0.00  0.00    +0.025 A 
ATOM     26  C   UNL     1      -2.231   0.215  -2.634  0.00  0.00    +0.037 A 
ATOM     27  C   UNL     1      -2.223   0.117  -1.249  0.00  0.00    -0.024 A 
ATOM     28  C   UNL     1      -1.563   1.066  -0.493  0.00  0.00    +0.034 A 
ATOM     29  C   UNL     1      -2.934  -1.027  -0.574  0.00  0.00    +0.046 C 
ATOM     30  C   UNL     1      -4.181  -1.399  -1.378  0.00  0.00    +0.101 C 
ATOM     31  C   UNL     1      -3.828  -1.541  -2.834  0.00  0.00    +0.218 C 
ATOM     32  O   UNL     1      -4.388  -2.380  -3.508  0.00  0.00    -0.275 OA
ATOM     33  N   UNL     1      -2.899  -0.747  -3.398  0.00  0.00    -0.285 N 
ATOM     34  H   UNL     1      -2.692  -0.842  -4.340  0.00  0.00    +0.155 HD
ENDBRANCH  20  23
ENDBRANCH  18  20
ENDBRANCH   1  18
BRANCH   1  35
ATOM     35  C   UNL     1       3.271   1.343  -0.721  0.00  0.00    +0.065 C 
BRANCH  35  36
ATOM     36  C   UNL     1       2.427   0.096  -0.681  0.00  0.00    -0.045 A 
ATOM     37  C   UNL     1       1.836  -0.301   0.504  0.00  0.00    +0.004 A 
ATOM     38  C   UNL     1       1.058  -1.444   0.539  0.00  0.00    +0.000 A 
ATOM     39  C   UNL     1       0.879  -2.194  -0.608  0.00  0.00    +0.000 A 
ATOM     40  C   UNL     1       1.474  -1.800  -1.792  0.00  0.00    +0.000 A 
ATOM     41  C   UNL     1       2.248  -0.655  -1.828  0.00  0.00    +0.004 A 
ENDBRANCH  35  36
ENDBRANCH   1  35
TORSDOF 11
