REMARK  Name = ZINC54946231
REMARK  11 active torsions:
REMARK  status: ('A' for Active; 'I' for Inactive)
REMARK    1  A    between atoms: C_1  and  C_2
REMARK    2  A    between atoms: C_3  and  N_11
REMARK    3  A    between atoms: C_7  and  N_8
REMARK    4  A    between atoms: C_12  and  C_14
REMARK    5  A    between atoms: N_16  and  C_17
REMARK    6  A    between atoms: C_17  and  C_18
REMARK    7  A    between atoms: C_18  and  C_19
REMARK    8  A    between atoms: C_18  and  C_20
REMARK    9  A    between atoms: C_18  and  N_21
REMARK   10  A    between atoms: C_23  and  C_30
REMARK   11  A    between atoms: C_26  and  C_29
REMARK                            x       y       z     vdW  Elec       q    Type
REMARK                         _______ _______ _______ _____ _____    ______ ____
ROOT
ATOM      1  C   UNL     1      -1.622   3.800  -7.103  0.00  0.00    +0.299 C 
ATOM      2  O   UNL     1      -0.861   4.205  -6.248  0.00  0.00    -0.265 OA
ATOM      3  N   UNL     1      -1.138   3.167  -8.190  0.00  0.00    -0.309 N 
ATOM      4  H   UNL     1      -1.746   2.844  -8.873  0.00  0.00    +0.149 HD
ENDROOT
BRANCH   1   6
ATOM      5  N   UNL     1      -3.577   4.636  -5.862  0.00  0.00    -0.277 N 
ATOM      6  C   UNL     1      -3.094   4.003  -6.950  0.00  0.00    +0.303 C 
ATOM      7  O   UNL     1      -3.854   3.598  -7.804  0.00  0.00    -0.265 OA
ATOM      8  H   UNL     1      -2.975   4.908  -5.152  0.00  0.00    +0.155 HD
BRANCH   5  11
ATOM      9  C   UNL     1      -4.393   6.943  -4.410  0.00  0.00    +0.048 C 
ATOM     10  C   UNL     1      -5.388   6.015  -5.058  0.00  0.00    +0.001 A 
ATOM     11  C   UNL     1      -4.945   4.899  -5.758  0.00  0.00    +0.039 A 
ATOM     12  C   UNL     1      -5.866   4.047  -6.354  0.00  0.00    +0.024 A 
ATOM     13  C   UNL     1      -7.217   4.311  -6.250  0.00  0.00    +0.004 A 
ATOM     14  C   UNL     1      -7.655   5.422  -5.552  0.00  0.00    +0.033 A 
ATOM     15  C   UNL     1      -6.741   6.270  -4.953  0.00  0.00    +0.131 A 
BRANCH  15  16
ATOM     16  N   UNL     1      -7.214   7.454  -4.202  0.00  0.00    +0.057 N 
ATOM     17  O   UNL     1      -6.651   7.791  -3.187  0.00  0.00    -0.126 OA
ATOM     18  O   UNL     1      -8.164   8.085  -4.604  0.00  0.00    -0.126 OA
ENDBRANCH  15  16
ENDBRANCH   5  11
ENDBRANCH   1   6
BRANCH   3  19
ATOM     19  C   UNL     1       0.305   2.968  -8.340  0.00  0.00    +0.092 C 
BRANCH  19  20
ATOM     20  C   UNL     1       0.593   2.326  -9.699  0.00  0.00    -0.055 C 
ATOM     21  C   UNL     1       0.203   3.297 -10.815  0.00  0.00    -0.008 C 
ATOM     22  C   UNL     1       2.084   2.000  -9.803  0.00  0.00    -0.008 C 
BRANCH  20  23
ATOM     23  N   UNL     1      -0.189   1.089  -9.830  0.00  0.00    +0.384 N 
ATOM     24  C   UNL     1       0.162   0.172  -8.739  0.00  0.00    -0.075 C 
ATOM     25  C   UNL     1      -0.707  -1.085  -8.825  0.00  0.00    -0.031 C 
ATOM     26  C   UNL     1      -0.467  -1.775 -10.171  0.00  0.00    +0.003 C 
ATOM     27  C   UNL     1      -0.764  -0.785 -11.301  0.00  0.00    -0.031 C 
ATOM     28  C   UNL     1       0.107   0.461 -11.124  0.00  0.00    -0.075 C 
ATOM     29  C   UNL     1      -0.454  -1.439 -12.649  0.00  0.00    +0.005 C 
ATOM     30  C   UNL     1      -0.338  -2.040  -7.688  0.00  0.00    +0.005 C 
ATOM     31  H   UNL     1      -1.172   1.307  -9.780  0.00  0.00    -0.081 HD
ENDBRANCH  20  23
ENDBRANCH  19  20
ENDBRANCH   3  19
TORSDOF 6
