REMARK  Name = ZINC02055385
REMARK  14 active torsions:
REMARK  status: ('A' for Active; 'I' for Inactive)
REMARK    1  A    between atoms: C_1  and  C_2
REMARK    2  A    between atoms: C_2  and  O_3
REMARK    3  A    between atoms: O_3  and  C_4
REMARK    4  A    between atoms: C_4  and  C_5
REMARK    5  A    between atoms: C_5  and  O_6
REMARK    6  A    between atoms: O_6  and  C_7
REMARK    7  A    between atoms: C_7  and  C_9
REMARK    8  A    between atoms: C_10  and  C_33
REMARK    9  A    between atoms: C_14  and  C_16
REMARK   10  A    between atoms: C_18  and  O_24
REMARK   11  A    between atoms: C_19  and  O_23
REMARK   12  A    between atoms: O_24  and  C_25
REMARK   13  A    between atoms: C_29  and  C_31
REMARK   14  A    between atoms: C_29  and  C_32
REMARK                            x       y       z     vdW  Elec       q    Type
REMARK                         _______ _______ _______ _____ _____    ______ ____
ROOT
ATOM      1  C   UNL     1      -2.323   0.707  -0.317  0.00  0.00    +0.065 C 
ATOM      2  C   UNL     1      -2.163   2.005  -0.631  0.00  0.00    +0.016 C 
ATOM      3  N   UNL     1      -1.028   2.671  -0.264  0.00  0.00    -0.321 N 
ATOM      4  C   UNL     1       0.110   1.985   0.066  0.00  0.00    +0.016 C 
ATOM      5  C   UNL     1       0.048   0.681   0.411  0.00  0.00    +0.024 C 
ATOM      6  C   UNL     1      -1.274  -0.043   0.450  0.00  0.00    +0.092 C 
ATOM      7  C   UNL     1       1.209  -0.036   0.747  0.00  0.00    +0.162 C 
ATOM      8  O   UNL     1       1.121  -1.214   1.034  0.00  0.00    -0.292 OA
ATOM      9  C   UNL     1       2.559   0.627   0.757  0.00  0.00    +0.086 C 
ATOM     10  C   UNL     1       2.380   2.118   1.066  0.00  0.00    -0.023 C 
ATOM     11  C   UNL     1       1.429   2.717   0.027  0.00  0.00    +0.058 C 
ATOM     12  C   UNL     1       1.784   2.284   2.465  0.00  0.00    +0.011 C 
ATOM     13  C   UNL     1       3.735   2.824   0.997  0.00  0.00    +0.011 C 
ATOM     14  C   UNL     1      -3.241   2.728  -1.395  0.00  0.00    +0.061 C 
ATOM     15  H   UNL     1      -1.022   3.771  -0.231  0.00  0.00    +0.152 HD
ENDROOT
BRANCH   6  16
ATOM     16  C   UNL     1      -1.718  -0.185   1.883  0.00  0.00    -0.030 A 
ATOM     17  C   UNL     1      -1.973  -1.440   2.406  0.00  0.00    +0.054 A 
ATOM     18  C   UNL     1      -2.381  -1.572   3.723  0.00  0.00    +0.163 A 
ATOM     19  C   UNL     1      -2.533  -0.441   4.519  0.00  0.00    +0.173 A 
ATOM     20  C   UNL     1      -2.276   0.814   3.990  0.00  0.00    +0.063 A 
ATOM     21  C   UNL     1      -1.864   0.939   2.675  0.00  0.00    +0.023 A 
ATOM     22 BR   UNL     1      -2.480   2.355   5.067  0.00  0.00    -0.046 Br
BRANCH  19  23
ATOM     23  O   UNL     1      -2.934  -0.566   5.812  0.00  0.00    -0.503 OA
ATOM     24  H   UNL     1      -3.054   0.329   6.440  0.00  0.00    +0.292 HD
ENDBRANCH  19  23
BRANCH  18  25
ATOM     25  O   UNL     1      -2.632  -2.806   4.238  0.00  0.00    -0.491 OA
ATOM     26  C   UNL     1      -2.348  -3.928   3.400  0.00  0.00    +0.277 C 
ENDBRANCH  18  25
ENDBRANCH   6  16
BRANCH   1  27
ATOM     27  C   UNL     1      -3.502   0.037  -0.717  0.00  0.00    +0.338 C 
ATOM     28  O   UNL     1      -3.494  -0.670  -1.707  0.00  0.00    -0.245 OA
BRANCH  27  29
ATOM     29  O   UNL     1      -4.637   0.182  -0.001  0.00  0.00    -0.459 OA
BRANCH  29  30
ATOM     30  C   UNL     1      -5.771  -0.579  -0.420  0.00  0.00    +0.260 C 
BRANCH  30  31
ATOM     31  C   UNL     1      -6.917  -0.375   0.573  0.00  0.00    +0.201 C 
BRANCH  31  32
ATOM     32  O   UNL     1      -7.341   0.989   0.538  0.00  0.00    -0.377 OA
BRANCH  32  34
ATOM     33  C   UNL     1      -8.801   2.757   1.302  0.00  0.00    +0.034 C 
ATOM     34  C   UNL     1      -8.338   1.313   1.509  0.00  0.00    +0.156 C 
ENDBRANCH  32  34
ENDBRANCH  31  32
ENDBRANCH  30  31
ENDBRANCH  29  30
ENDBRANCH  27  29
ENDBRANCH   1  27
TORSDOF 9
