REMARK  Name = ZINC39685910
REMARK  13 active torsions:
REMARK  status: ('A' for Active; 'I' for Inactive)
REMARK    1  A    between atoms: C_1  and  C_2
REMARK    2  A    between atoms: C_4  and  C_8
REMARK    3  A    between atoms: N_6  and  C_7
REMARK    4  A    between atoms: C_12  and  C_21
REMARK    5  A    between atoms: N_23  and  C_24
REMARK    6  A    between atoms: C_24  and  C_26
REMARK    7  A    between atoms: C_24  and  C_29
REMARK    8  A    between atoms: C_26  and  C_27
REMARK    9  A    between atoms: C_26  and  C_28
REMARK   10  A    between atoms: N_31  and  C_32
REMARK   11  A    between atoms: C_32  and  C_33
REMARK   12  A    between atoms: C_32  and  C_34
REMARK   13  A    between atoms: C_32  and  C_35
REMARK                            x       y       z     vdW  Elec       q    Type
REMARK                         _______ _______ _______ _____ _____    ______ ____
ROOT
ATOM      1  C   UNL     1       1.756  -5.125  -1.885  0.00  0.00    +0.267 C 
ATOM      2  O   UNL     1       2.229  -5.435  -2.962  0.00  0.00    -0.268 OA
ATOM      3  N   UNL     1       1.631  -6.050  -0.913  0.00  0.00    -0.295 N 
ATOM      4  C   UNL     1       1.078  -5.866   0.450  0.00  0.00    +0.121 C 
ATOM      5  C   UNL     1       0.269  -7.154   0.720  0.00  0.00    +0.100 C 
ATOM      6  C   UNL     1       0.891  -8.210  -0.209  0.00  0.00    -0.004 C 
ATOM      7  C   UNL     1       2.011  -7.481  -0.966  0.00  0.00    +0.115 C 
ATOM      8  C   UNL     1      -0.152  -8.728  -1.195  0.00  0.00    -0.010 C 
ATOM      9  C   UNL     1       0.475  -9.817  -2.070  0.00  0.00    -0.082 C 
ATOM     10  N   UNL     1       0.961 -10.911  -1.220  0.00  0.00    +0.379 N 
ATOM     11  C   UNL     1       2.029 -10.425  -0.339  0.00  0.00    -0.082 C 
ATOM     12  C   UNL     1       1.468  -9.361   0.609  0.00  0.00    -0.010 C 
ATOM     13  H   UNL     1       0.199 -11.263  -0.659  0.00  0.00    -0.086 HD
ATOM     14  H   UNL     1       1.318 -11.654  -1.801  0.00  0.00    -0.086 HD
ENDROOT
BRANCH   1  18
ATOM     15  C   UNL     1       0.721  -0.196  -2.450  0.00  0.00    +0.065 C 
ATOM     16  C   UNL     1       0.872  -1.592  -1.905  0.00  0.00    +0.037 A 
ATOM     17  C   UNL     1       1.383  -2.660  -2.561  0.00  0.00    +0.057 A 
ATOM     18  C   UNL     1       1.317  -3.735  -1.644  0.00  0.00    +0.147 A 
ATOM     19  N   UNL     1       0.789  -3.261  -0.533  0.00  0.00    -0.167 NA
ATOM     20  N   UNL     1       0.528  -2.010  -0.668  0.00  0.00    -0.271 N 
ATOM     21  C   UNL     1      -0.061  -1.161   0.370  0.00  0.00    +0.172 C 
ENDBRANCH   1  18
BRANCH   5  22
ATOM     22  C   UNL     1       0.411  -7.571   2.161  0.00  0.00    +0.219 C 
ATOM     23  O   UNL     1       1.439  -7.338   2.761  0.00  0.00    -0.275 OA
ATOM     24  N   UNL     1      -0.604  -8.203   2.783  0.00  0.00    -0.303 N 
ATOM     25  H   UNL     1      -1.426  -8.390   2.303  0.00  0.00    +0.149 HD
BRANCH  24  26
ATOM     26  C   UNL     1      -0.466  -8.608   4.184  0.00  0.00    +0.161 C 
BRANCH  26  27
ATOM     27  C   UNL     1      -1.386  -9.768   4.465  0.00  0.00    +0.234 C 
ATOM     28  O   UNL     1      -2.314  -9.999   3.720  0.00  0.00    -0.274 OA
ATOM     29  N   UNL     1      -1.177 -10.548   5.543  0.00  0.00    -0.309 N 
ATOM     30  H   UNL     1      -0.477 -10.323   6.177  0.00  0.00    +0.149 HD
BRANCH  29  31
ATOM     31  C   UNL     1      -2.006 -11.737   5.760  0.00  0.00    +0.026 C 
ATOM     32  C   UNL     1      -1.846 -12.692   4.576  0.00  0.00    +0.031 C 
ATOM     33  C   UNL     1      -1.564 -12.439   7.045  0.00  0.00    +0.031 C 
ATOM     34  C   UNL     1      -3.472 -11.319   5.884  0.00  0.00    +0.031 C 
ENDBRANCH  29  31
ENDBRANCH  26  27
BRANCH  26  35
ATOM     35  C   UNL     1      -0.834  -7.434   5.093  0.00  0.00    +0.012 C 
ATOM     36  C   UNL     1       0.162  -6.292   4.879  0.00  0.00    +0.009 C 
ATOM     37  C   UNL     1      -2.245  -6.950   4.755  0.00  0.00    +0.009 C 
ENDBRANCH  26  35
ENDBRANCH  24  26
ENDBRANCH   5  22
TORSDOF 6
