REMARK  Name = ZINC15046530
REMARK  8 active torsions:
REMARK  status: ('A' for Active; 'I' for Inactive)
REMARK    1  A    between atoms: C_1  and  C_2
REMARK    2  A    between atoms: C_2  and  C_4
REMARK    3  A    between atoms: C_2  and  N_17
REMARK    4  A    between atoms: N_6  and  C_7
REMARK    5  A    between atoms: C_12  and  C_13
REMARK    6  A    between atoms: C_21  and  C_22
REMARK    7  A    between atoms: C_25  and  O_29
REMARK    8  A    between atoms: C_27  and  O_28
REMARK                            x       y       z     vdW  Elec       q    Type
REMARK                         _______ _______ _______ _____ _____    ______ ____
ROOT
ATOM      1  N   UNL     1       3.694  -5.041  -0.248  0.00  0.00    -0.244 N 
ATOM      2  C   UNL     1       4.106  -5.611  -1.368  0.00  0.00    +0.259 C 
ATOM      3  O   UNL     1       3.338  -5.853  -2.282  0.00  0.00    -0.269 OA
ATOM      4  C   UNL     1       5.541  -5.934  -1.458  0.00  0.00    +0.077 C 
ATOM      5  C   UNL     1       6.238  -6.511  -2.472  0.00  0.00    +0.031 C 
ATOM      6  S   UNL     1       6.113  -5.365   0.137  0.00  0.00    -0.061 S 
ATOM      7  C   UNL     1       4.547  -4.779   0.763  0.00  0.00    +0.121 C 
ATOM      8  S   UNL     1       4.210  -4.059   2.279  0.00  0.00    -0.027 S 
ENDROOT
BRANCH   5   9
ATOM      9  C   UNL     1       7.624  -6.938  -2.260  0.00  0.00    +0.018 A 
ATOM     10  C   UNL     1       8.114  -7.118  -0.960  0.00  0.00    +0.015 A 
ATOM     11  C   UNL     1       9.414  -7.523  -0.766  0.00  0.00    +0.046 A 
ATOM     12  C   UNL     1      10.249  -7.746  -1.857  0.00  0.00    +0.120 A 
ATOM     13  C   UNL     1       9.777  -7.566  -3.150  0.00  0.00    +0.091 A 
ATOM     14  C   UNL     1       8.470  -7.164  -3.360  0.00  0.00    +0.127 A 
BRANCH  14  15
ATOM     15  O   UNL     1       8.007  -6.988  -4.623  0.00  0.00    -0.506 OA
ATOM     16  H   UNL     1       8.128  -6.092  -4.966  0.00  0.00    +0.292 HD
ENDBRANCH  14  15
BRANCH  12  17
ATOM     17  O   UNL     1      11.532  -8.141  -1.656  0.00  0.00    -0.507 OA
ATOM     18  H   UNL     1      12.161  -7.411  -1.574  0.00  0.00    +0.292 HD
ENDBRANCH  12  17
ENDBRANCH   5   9
BRANCH   1  20
ATOM     19  C   UNL     1       1.691  -5.441   1.097  0.00  0.00    +0.038 C 
ATOM     20  C   UNL     1       2.279  -4.691  -0.101  0.00  0.00    +0.166 C 
BRANCH  20  21
ATOM     21  C   UNL     1       2.149  -3.207   0.123  0.00  0.00    +0.238 C 
ATOM     22  O   UNL     1       3.141  -2.509   0.156  0.00  0.00    -0.273 OA
ATOM     23  N   UNL     1       0.931  -2.654   0.287  0.00  0.00    -0.283 N 
ATOM     24  H   UNL     1       0.144  -3.220   0.334  0.00  0.00    +0.155 HD
BRANCH  23  25
ATOM     25  C   UNL     1       0.800  -1.265   0.389  0.00  0.00    +0.045 A 
ATOM     26  C   UNL     1       1.810  -0.512   0.975  0.00  0.00    +0.024 A 
ATOM     27  C   UNL     1       1.679   0.859   1.073  0.00  0.00    +0.002 A 
ATOM     28  C   UNL     1       0.544   1.483   0.589  0.00  0.00    +0.001 A 
ATOM     29  C   UNL     1      -0.463   0.737   0.004  0.00  0.00    +0.014 A 
ATOM     30  C   UNL     1      -0.338  -0.635  -0.097  0.00  0.00    +0.076 A 
BRANCH  30  31
ATOM     31  C   UNL     1      -1.436  -1.448  -0.734  0.00  0.00    +0.419 C 
ATOM     32  F   UNL     1      -2.469  -0.597  -1.141  0.00  0.00    -0.166 F 
ATOM     33  F   UNL     1      -0.927  -2.129  -1.845  0.00  0.00    -0.166 F 
ATOM     34  F   UNL     1      -1.930  -2.371   0.194  0.00  0.00    -0.166 F 
ENDBRANCH  30  31
ENDBRANCH  23  25
ENDBRANCH  20  21
ENDBRANCH   1  20
TORSDOF 7
