REMARK  Name = ZINC29030584
REMARK  9 active torsions:
REMARK  status: ('A' for Active; 'I' for Inactive)
REMARK    1  A    between atoms: C_1  and  C_2
REMARK    2  A    between atoms: C_7  and  C_9
REMARK    3  A    between atoms: C_7  and  C_10
REMARK    4  A    between atoms: N_13  and  C_17
REMARK    5  A    between atoms: C_17  and  C_18
REMARK    6  A    between atoms: N_20  and  C_21
REMARK    7  A    between atoms: C_24  and  N_31
REMARK    8  A    between atoms: C_26  and  C_27
REMARK    9  A    between atoms: C_32  and  C_34
REMARK                            x       y       z     vdW  Elec       q    Type
REMARK                         _______ _______ _______ _____ _____    ______ ____
ROOT
ATOM      1  C   UNL     1      -2.286  -3.290  -4.344  0.00  0.00    +0.235 C 
ATOM      2  O   UNL     1      -1.955  -2.146  -4.575  0.00  0.00    -0.274 OA
ATOM      3  N   UNL     1      -3.309  -3.845  -5.024  0.00  0.00    -0.284 N 
ATOM      4  H   UNL     1      -3.532  -4.780  -4.887  0.00  0.00    +0.155 HD
ENDROOT
BRANCH   3   5
ATOM      5  C   UNL     1      -4.051  -3.074  -5.927  0.00  0.00    +0.045 A 
ATOM      6  C   UNL     1      -3.424  -2.083  -6.672  0.00  0.00    +0.025 A 
ATOM      7  C   UNL     1      -4.155  -1.322  -7.562  0.00  0.00    +0.025 A 
ATOM      8  C   UNL     1      -5.517  -1.548  -7.713  0.00  0.00    +0.034 A 
ATOM      9  C   UNL     1      -6.144  -2.538  -6.969  0.00  0.00    +0.037 A 
ATOM     10  C   UNL     1      -5.412  -3.303  -6.082  0.00  0.00    +0.078 A 
BRANCH   8  11
ATOM     11  N   UNL     1      -6.259  -0.775  -8.616  0.00  0.00    -0.286 N 
ATOM     12  C   UNL     1      -5.699  -0.365  -9.771  0.00  0.00    +0.214 C 
ATOM     13  O   UNL     1      -4.529  -0.595  -9.992  0.00  0.00    -0.276 OA
ATOM     14  C   UNL     1      -6.527   0.377 -10.788  0.00  0.00    +0.109 C 
ATOM     15  H   UNL     1      -7.176  -0.535  -8.409  0.00  0.00    +0.155 HD
ENDBRANCH   8  11
BRANCH  10  16
ATOM     16  C   UNL     1      -6.090  -4.382  -5.279  0.00  0.00    +0.419 C 
ATOM     17  F   UNL     1      -7.450  -4.422  -5.606  0.00  0.00    -0.166 F 
ATOM     18  F   UNL     1      -5.504  -5.619  -5.570  0.00  0.00    -0.166 F 
ATOM     19  F   UNL     1      -5.947  -4.107  -3.914  0.00  0.00    -0.166 F 
ENDBRANCH  10  16
ENDBRANCH   3   5
BRANCH   1  20
ATOM     20  C   UNL     1      -1.554  -4.090  -3.298  0.00  0.00    +0.214 C 
BRANCH  20  32
ATOM     21  C   UNL     1      -0.045   1.580   0.028  0.00  0.00    +0.007 C 
ATOM     22  C   UNL     1      -0.011   0.048   0.018  0.00  0.00    -0.011 C 
ATOM     23  C   UNL     1       0.716  -0.431  -1.241  0.00  0.00    +0.038 C 
ATOM     24  C   UNL     1       0.713  -1.953  -1.287  0.00  0.00    +0.113 C 
ATOM     25  C   UNL     1       1.273  -2.582  -0.027  0.00  0.00    +0.041 C 
ATOM     26  C   UNL     1       0.795  -1.973   1.279  0.00  0.00    -0.032 C 
ATOM     27  C   UNL     1       0.757  -0.450   1.240  0.00  0.00    +0.009 C 
ATOM     28  C   UNL     1       1.782  -2.390   2.390  0.00  0.00    +0.011 C 
ATOM     29  C   UNL     1      -0.583  -2.522   1.661  0.00  0.00    +0.011 C 
ATOM     30  C   UNL     1      -0.660  -2.480  -1.625  0.00  0.00    +0.247 C 
ATOM     31  O   UNL     1      -1.712  -2.242  -1.071  0.00  0.00    -0.273 OA
ATOM     32  N   UNL     1      -0.494  -3.269  -2.708  0.00  0.00    -0.215 N 
ATOM     33  C   UNL     1       0.758  -3.206  -3.173  0.00  0.00    +0.310 C 
ATOM     34  O   UNL     1       1.149  -3.817  -4.149  0.00  0.00    -0.252 OA
ATOM     35  N   UNL     1       1.535  -2.393  -2.437  0.00  0.00    -0.285 N 
ATOM     36  H   UNL     1       2.452  -2.137  -2.612  0.00  0.00    +0.151 HD
ENDBRANCH  20  32
ENDBRANCH   1  20
TORSDOF 5
