REMARK  Name = ZINC32986900
REMARK  7 active torsions:
REMARK  status: ('A' for Active; 'I' for Inactive)
REMARK    1  A    between atoms: C_5  and  C_7
REMARK    2  A    between atoms: C_7  and  N_8
REMARK    3  A    between atoms: C_9  and  C_11
REMARK    4  A    between atoms: C_11  and  O_12
REMARK    5  A    between atoms: O_12  and  C_13
REMARK    6  A    between atoms: C_13  and  C_15
REMARK    7  A    between atoms: C_18  and  C_21
REMARK                            x       y       z     vdW  Elec       q    Type
REMARK                         _______ _______ _______ _____ _____    ______ ____
ROOT
ATOM      1  C   UNL     1       2.561   4.116  -4.659  0.00  0.00    +0.059 A 
ATOM      2  C   UNL     1       1.319   3.942  -4.045  0.00  0.00    +0.015 A 
ATOM      3  C   UNL     1       1.216   4.017  -2.671  0.00  0.00    +0.007 A 
ATOM      4  C   UNL     1       2.340   4.262  -1.903  0.00  0.00    -0.011 A 
ATOM      5  C   UNL     1       3.573   4.441  -2.505  0.00  0.00    +0.007 A 
ATOM      6  C   UNL     1       3.691   4.364  -3.877  0.00  0.00    +0.015 A 
ENDROOT
BRANCH   4   7
ATOM      7  C   UNL     1       2.220   4.342  -0.403  0.00  0.00    +0.191 C 
ATOM      8  N   UNL     1       1.127   3.483   0.048  0.00  0.00    -0.322 N 
ATOM      9  C   UNL     1       1.179   2.093   0.002  0.00  0.00    +0.055 A 
ATOM     10  C   UNL     1      -0.017   1.375   0.010  0.00  0.00    +0.025 A 
ATOM     11  C   UNL     1       0.002  -0.004   0.002  0.00  0.00    +0.002 A 
ATOM     12  C   UNL     1       1.206  -0.685  -0.013  0.00  0.00    +0.002 A 
ATOM     13  C   UNL     1       2.396   0.020  -0.029  0.00  0.00    +0.030 A 
ATOM     14  C   UNL     1       2.381   1.399  -0.028  0.00  0.00    +0.126 A 
ATOM     15  S   UNL     1       3.903   2.296  -0.084  0.00  0.00    +0.062 S 
ATOM     16  O   UNL     1       4.685   1.855   1.018  0.00  0.00    -0.153 OA
ATOM     17  O   UNL     1       4.365   2.245  -1.426  0.00  0.00    -0.153 OA
ATOM     18  N   UNL     1       3.475   3.879   0.223  0.00  0.00    -0.166 NA
ATOM     19  H   UNL     1       0.205   3.930   0.447  0.00  0.00    +0.148 HD
ATOM     20  H   UNL     1       4.147   4.602   0.709  0.00  0.00    +0.150 HD
ENDBRANCH   4   7
BRANCH   1  21
ATOM     21  C   UNL     1       2.679   4.038  -6.130  0.00  0.00    +0.340 C 
ATOM     22  O   UNL     1       1.694   3.823  -6.808  0.00  0.00    -0.245 OA
BRANCH  21  23
ATOM     23  O   UNL     1       3.879   4.206  -6.719  0.00  0.00    -0.452 OA
BRANCH  23  24
ATOM     24  C   UNL     1       3.920   4.117  -8.168  0.00  0.00    +0.328 C 
BRANCH  24  26
ATOM     25  N   UNL     1       5.614   4.290  -9.962  0.00  0.00    -0.308 N 
ATOM     26  C   UNL     1       5.333   4.329  -8.644  0.00  0.00    +0.251 C 
ATOM     27  O   UNL     1       6.219   4.536  -7.842  0.00  0.00    -0.272 OA
ATOM     28  H   UNL     1       4.810   4.103 -10.690  0.00  0.00    +0.149 HD
BRANCH  25  29
ATOM     29  C   UNL     1       6.988   4.496 -10.425  0.00  0.00    +0.141 C 
BRANCH  29  34
ATOM     30  C   UNL     1       7.495   3.153 -13.917  0.00  0.00    +0.000 A 
ATOM     31  C   UNL     1       7.110   4.234 -14.688  0.00  0.00    +0.001 A 
ATOM     32  C   UNL     1       6.685   5.400 -14.080  0.00  0.00    +0.020 A 
ATOM     33  C   UNL     1       6.645   5.486 -12.700  0.00  0.00    +0.046 A 
ATOM     34  C   UNL     1       7.031   4.404 -11.929  0.00  0.00    -0.012 A 
ATOM     35  C   UNL     1       7.460   3.240 -12.538  0.00  0.00    +0.006 A 
ATOM     36 CL   UNL     1       6.112   6.950 -11.936  0.00  0.00    -0.083 Cl
ENDBRANCH  29  34
ENDBRANCH  25  29
ENDBRANCH  24  26
ENDBRANCH  23  24
ENDBRANCH  21  23
ENDBRANCH   1  21
TORSDOF 7
