REMARK  Name = ZINC63458480
REMARK  5 active torsions:
REMARK  status: ('A' for Active; 'I' for Inactive)
REMARK    1  A    between atoms: C_1  and  O_2
REMARK    2  A    between atoms: O_2  and  C_3
REMARK    3  A    between atoms: C_10  and  C_18
REMARK    4  A    between atoms: N_24  and  C_27
REMARK    5  A    between atoms: C_31  and  C_33
REMARK                            x       y       z     vdW  Elec       q    Type
REMARK                         _______ _______ _______ _____ _____    ______ ____
ROOT
ATOM      1  C   UNL     1       4.399  -5.678   5.026  0.00  0.00    +0.101 A 
ATOM      2  C   UNL     1       3.423  -5.762   6.036  0.00  0.00    +0.263 A 
ATOM      3  N   UNL     1       3.712  -5.325   7.278  0.00  0.00    -0.274 N 
ATOM      4  H   UNL     1       3.042  -5.382   7.976  0.00  0.00    +0.173 HD
ATOM      5  C   UNL     1       4.925  -4.812   7.556  0.00  0.00    +0.337 A 
ATOM      6  O   UNL     1       5.167  -4.424   8.683  0.00  0.00    -0.246 OA
ATOM      7  N   UNL     1       5.874  -4.722   6.606  0.00  0.00    -0.229 N 
ATOM      8  C   UNL     1       5.622  -5.160   5.329  0.00  0.00    +0.270 A 
ATOM      9  O   UNL     1       6.579  -5.074   4.379  0.00  0.00    -0.267 OA
ATOM     10  O   UNL     1       2.323  -6.226   5.790  0.00  0.00    -0.267 OA
ENDROOT
BRANCH   1  17
ATOM     11  C   UNL     1       2.611  -3.810  -1.385  0.00  0.00    +0.121 A 
ATOM     12  C   UNL     1       3.132  -2.647  -0.791  0.00  0.00    +0.047 A 
ATOM     13  C   UNL     1       3.446  -2.582   0.520  0.00  0.00    +0.029 A 
ATOM     14  C   UNL     1       3.245  -3.752   1.379  0.00  0.00    +0.043 A 
ATOM     15  N   UNL     1       3.484  -3.955   2.654  0.00  0.00    -0.376 N 
ATOM     16  C   UNL     1       3.005  -5.287   3.008  0.00  0.00    +0.128 C 
ATOM     17  C   UNL     1       4.097  -6.160   3.631  0.00  0.00    +0.121 C 
ATOM     18  N   UNL     1       3.608  -7.548   3.679  0.00  0.00    -0.307 NA
ATOM     19  C   UNL     1       3.436  -8.147   2.353  0.00  0.00    +0.086 C 
ATOM     20  C   UNL     1       2.320  -7.415   1.584  0.00  0.00    +0.048 C 
ATOM     21  C   UNL     1       2.610  -5.934   1.690  0.00  0.00    -0.035 C 
ATOM     22  C   UNL     1       2.703  -4.984   0.752  0.00  0.00    +0.003 A 
ATOM     23  C   UNL     1       2.387  -4.944  -0.681  0.00  0.00    +0.055 A 
ATOM     24  H   UNL     1       4.202  -8.120   4.260  0.00  0.00    +0.123 HD
ATOM     25  H   UNL     1       3.909  -3.326   3.258  0.00  0.00    +0.160 HD
BRANCH  11  27
ATOM     26  C   UNL     1       2.568  -2.576  -3.417  0.00  0.00    +0.277 C 
ATOM     27  O   UNL     1       2.317  -3.793  -2.712  0.00  0.00    -0.495 OA
ENDBRANCH  11  27
ENDBRANCH   1  17
BRANCH   7  28
ATOM     28  C   UNL     1       7.128  -4.183   6.923  0.00  0.00    +0.055 A 
ATOM     29  C   UNL     1       8.147  -5.012   7.373  0.00  0.00    +0.026 A 
ATOM     30  C   UNL     1       9.382  -4.478   7.685  0.00  0.00    +0.003 A 
ATOM     31  C   UNL     1       9.604  -3.119   7.550  0.00  0.00    +0.012 A 
ATOM     32  C   UNL     1       8.590  -2.292   7.103  0.00  0.00    +0.057 A 
ATOM     33  C   UNL     1       7.355  -2.821   6.783  0.00  0.00    +0.038 A 
BRANCH  32  34
ATOM     34  C   UNL     1       8.836  -0.812   6.959  0.00  0.00    +0.417 C 
ATOM     35  F   UNL     1      10.151  -0.519   7.333  0.00  0.00    -0.166 F 
ATOM     36  F   UNL     1       8.635  -0.434   5.627  0.00  0.00    -0.166 F 
ATOM     37  F   UNL     1       7.949  -0.110   7.781  0.00  0.00    -0.166 F 
ENDBRANCH  32  34
ENDBRANCH   7  28
TORSDOF 4
