REMARK  Name = ZINC59039016
REMARK  13 active torsions:
REMARK  status: ('A' for Active; 'I' for Inactive)
REMARK    1  A    between atoms: C_1  and  C_2
REMARK    2  A    between atoms: C_2  and  N_3
REMARK    3  A    between atoms: N_3  and  C_4
REMARK    4  A    between atoms: N_3  and  C_6
REMARK    5  A    between atoms: C_4  and  C_5
REMARK    6  A    between atoms: C_9  and  C_13
REMARK    7  A    between atoms: C_10  and  O_12
REMARK    8  A    between atoms: N_14  and  N_15
REMARK    9  A    between atoms: C_18  and  S_21
REMARK   10  A    between atoms: S_21  and  C_22
REMARK   11  A    between atoms: C_22  and  C_23
REMARK   12  A    between atoms: N_25  and  C_26
REMARK   13  A    between atoms: C_30  and  C_32
REMARK                            x       y       z     vdW  Elec       q    Type
REMARK                         _______ _______ _______ _____ _____    ______ ____
ROOT
ATOM      1  N   UNL     1      -5.814  -2.236   6.160  0.00  0.00    -0.205 N 
ATOM      2  C   UNL     1      -7.110  -2.716   6.173  0.00  0.00    +0.232 A 
ATOM      3  N   UNL     1      -7.848  -2.981   5.116  0.00  0.00    -0.186 NA
ATOM      4  C   UNL     1      -9.047  -3.429   5.505  0.00  0.00    +0.211 A 
ATOM      5  N   UNL     1      -9.087  -3.454   6.816  0.00  0.00    -0.144 NA
ATOM      6  N   UNL     1      -7.839  -3.002   7.273  0.00  0.00    -0.245 N 
ATOM      7  H   UNL     1      -5.348  -2.074   6.995  0.00  0.00    +0.177 HD
ATOM      8  H   UNL     1      -7.557  -2.911   8.197  0.00  0.00    +0.192 HD
ENDROOT
BRANCH   1  10
ATOM      9  C   UNL     1      -3.957  -1.530   4.927  0.00  0.00    +0.142 C 
ATOM     10  N   UNL     1      -5.174  -1.981   4.940  0.00  0.00    -0.187 NA
BRANCH   9  14
ATOM     11  C   UNL     1      -2.015  -0.759   1.227  0.00  0.00    +0.033 A 
ATOM     12  C   UNL     1      -1.347  -0.527   2.426  0.00  0.00    +0.024 A 
ATOM     13  C   UNL     1      -1.974  -0.776   3.627  0.00  0.00    +0.015 A 
ATOM     14  C   UNL     1      -3.284  -1.262   3.644  0.00  0.00    +0.036 A 
ATOM     15  C   UNL     1      -3.955  -1.494   2.435  0.00  0.00    +0.127 A 
ATOM     16  C   UNL     1      -3.319  -1.236   1.234  0.00  0.00    +0.069 A 
BRANCH  15  17
ATOM     17  O   UNL     1      -5.229  -1.967   2.443  0.00  0.00    -0.506 OA
ATOM     18  H   UNL     1      -5.905  -1.275   2.457  0.00  0.00    +0.292 HD
ENDBRANCH  15  17
BRANCH  11  19
ATOM     19  N   UNL     1      -1.374  -0.504   0.014  0.00  0.00    -0.330 N 
BRANCH  19  21
ATOM     20  C   UNL     1      -0.016   1.530   0.023  0.00  0.00    +0.024 C 
ATOM     21  C   UNL     1       0.001   0.000   0.004  0.00  0.00    +0.102 C 
ENDBRANCH  19  21
BRANCH  19  22
ATOM     22  C   UNL     1      -2.077  -0.741  -1.249  0.00  0.00    +0.102 C 
ATOM     23  C   UNL     1      -1.826  -2.177  -1.711  0.00  0.00    +0.024 C 
ENDBRANCH  19  22
ENDBRANCH  11  19
ENDBRANCH   9  14
ENDBRANCH   1  10
BRANCH   4  24
ATOM     24  S   UNL     1     -10.360  -3.906   4.431  0.00  0.00    -0.075 S 
BRANCH  24  25
ATOM     25  C   UNL     1     -11.689  -4.408   5.559  0.00  0.00    +0.173 C 
BRANCH  25  26
ATOM     26  C   UNL     1     -12.888  -4.846   4.759  0.00  0.00    +0.227 C 
ATOM     27  O   UNL     1     -12.851  -4.821   3.547  0.00  0.00    -0.275 OA
ATOM     28  N   UNL     1     -14.003  -5.264   5.390  0.00  0.00    -0.285 N 
ATOM     29  H   UNL     1     -14.011  -5.348   6.356  0.00  0.00    +0.155 HD
BRANCH  28  30
ATOM     30  C   UNL     1     -15.149  -5.578   4.651  0.00  0.00    +0.034 A 
ATOM     31  C   UNL     1     -16.408  -5.300   5.167  0.00  0.00    +0.023 A 
ATOM     32  C   UNL     1     -17.537  -5.612   4.436  0.00  0.00    +0.002 A 
ATOM     33  C   UNL     1     -17.415  -6.200   3.190  0.00  0.00    +0.003 A 
ATOM     34  C   UNL     1     -16.164  -6.478   2.673  0.00  0.00    -0.049 A 
ATOM     35  C   UNL     1     -15.030  -6.163   3.397  0.00  0.00    +0.026 A 
ATOM     36  C   UNL     1     -16.035  -7.120   1.316  0.00  0.00    +0.044 C 
ENDBRANCH  28  30
ENDBRANCH  25  26
ENDBRANCH  24  25
ENDBRANCH   4  24
TORSDOF 10
