REMARK  Name = ZINC64175264
REMARK  6 active torsions:
REMARK  status: ('A' for Active; 'I' for Inactive)
REMARK    1  A    between atoms: C_4  and  C_7
REMARK    2  A    between atoms: C_7  and  C_9
REMARK    3  A    between atoms: C_7  and  C_26
REMARK    4  A    between atoms: C_9  and  N_10
REMARK    5  A    between atoms: N_13  and  C_14
REMARK    6  A    between atoms: C_14  and  C_15
REMARK                            x       y       z     vdW  Elec       q    Type
REMARK                         _______ _______ _______ _____ _____    ______ ____
ROOT
ATOM      1  C   UNL     1       3.791  -1.579  -1.292  0.00  0.00    +0.118 C 
ENDROOT
BRANCH   1   2
ATOM      2  N   UNL     1       3.810  -0.724  -2.481  0.00  0.00    -0.299 N 
ATOM      3  C   UNL     1       3.878  -1.277  -3.708  0.00  0.00    +0.300 C 
ATOM      4  O   UNL     1       3.924  -2.486  -3.829  0.00  0.00    -0.253 OA
ATOM      5  N   UNL     1       3.895  -0.490  -4.802  0.00  0.00    -0.296 N 
ATOM      6  H   UNL     1       3.773   0.241  -2.385  0.00  0.00    +0.150 HD
ATOM      7  H   UNL     1       3.858   0.474  -4.707  0.00  0.00    +0.150 HD
BRANCH   5   8
ATOM      8  C   UNL     1       3.969  -1.091  -6.136  0.00  0.00    +0.153 C 
BRANCH   8   9
ATOM      9  C   UNL     1       3.974   0.014  -7.194  0.00  0.00    +0.228 C 
ATOM     10  C   UNL     1       4.036  -0.611  -8.595  0.00  0.00    +0.275 C 
ATOM     11  O   UNL     1       4.025   0.448  -9.559  0.00  0.00    -0.485 OA
ATOM     12  C   UNL     1       3.104   1.433  -9.374  0.00  0.00    +0.162 A 
ATOM     13  C   UNL     1       2.789   2.276 -10.429  0.00  0.00    +0.049 A 
ATOM     14  C   UNL     1       1.859   3.284 -10.256  0.00  0.00    +0.004 A 
ATOM     15  C   UNL     1       1.240   3.453  -9.032  0.00  0.00    +0.004 A 
ATOM     16  C   UNL     1       1.548   2.615  -7.977  0.00  0.00    +0.049 A 
ATOM     17  C   UNL     1       2.480   1.602  -8.144  0.00  0.00    +0.163 A 
ATOM     18  O   UNL     1       2.768   0.780  -7.098  0.00  0.00    -0.480 OA
ENDBRANCH   8   9
ENDBRANCH   5   8
ENDBRANCH   1   2
BRANCH   1  19
ATOM     19  C   UNL     1       3.711  -0.707  -0.038  0.00  0.00    +0.064 C 
BRANCH  19  20
ATOM     20  C   UNL     1       3.816  -1.579   1.188  0.00  0.00    -0.033 C 
ATOM     21  C   UNL     1       4.756  -1.509   2.157  0.00  0.00    -0.000 A 
ATOM     22  C   UNL     1       5.920  -0.636   2.352  0.00  0.00    +0.010 A 
ATOM     23  C   UNL     1       6.696  -0.812   3.446  0.00  0.00    +0.001 A 
ATOM     24  C   UNL     1       6.417  -1.805   4.396  0.00  0.00    +0.002 A 
ATOM     25  C   UNL     1       5.366  -2.646   4.285  0.00  0.00    +0.026 A 
ATOM     26  C   UNL     1       4.483  -2.550   3.174  0.00  0.00    +0.043 A 
ATOM     27  N   UNL     1       3.415  -3.236   2.846  0.00  0.00    -0.380 N 
ATOM     28  C   UNL     1       2.886  -2.703   1.585  0.00  0.00    +0.145 C 
ATOM     29  H   UNL     1       3.036  -3.970   3.354  0.00  0.00    +0.160 HD
ENDBRANCH  19  20
BRANCH  19  33
ATOM     30  C   UNL     1      -0.017   1.378   0.010  0.00  0.00    +0.000 A 
ATOM     31  C   UNL     1       1.171   2.086   0.002  0.00  0.00    +0.000 A 
ATOM     32  C   UNL     1       2.377   1.411  -0.013  0.00  0.00    +0.004 A 
ATOM     33  C   UNL     1       2.396   0.029  -0.020  0.00  0.00    -0.039 A 
ATOM     34  C   UNL     1       1.208  -0.679  -0.012  0.00  0.00    +0.004 A 
ATOM     35  C   UNL     1       0.002  -0.004   0.002  0.00  0.00    +0.000 A 
ENDBRANCH  19  33
ENDBRANCH   1  19
TORSDOF 6
