REMARK  Name = ZINC09424468
REMARK  12 active torsions:
REMARK  status: ('A' for Active; 'I' for Inactive)
REMARK    1  A    between atoms: C_1  and  C_2
REMARK    2  A    between atoms: C_2  and  C_3
REMARK    3  A    between atoms: C_3  and  S_4
REMARK    4  A    between atoms: S_4  and  C_5
REMARK    5  A    between atoms: C_14  and  C_16
REMARK    6  A    between atoms: C_14  and  C_17
REMARK    7  A    between atoms: C_17  and  C_18
REMARK    8  A    between atoms: C_21  and  S_24
REMARK    9  A    between atoms: S_24  and  C_25
REMARK   10  A    between atoms: C_25  and  C_26
REMARK   11  A    between atoms: N_28  and  C_29
REMARK   12  A    between atoms: C_32  and  C_35
REMARK                            x       y       z     vdW  Elec       q    Type
REMARK                         _______ _______ _______ _____ _____    ______ ____
ROOT
ATOM      1  C   UNL     1       6.379  -7.344  -0.723  0.00  0.00    +0.178 A 
ATOM      2  N   UNL     1       7.147  -8.402  -0.849  0.00  0.00    -0.216 NA
ATOM      3  C   UNL     1       6.652  -9.635  -0.922  0.00  0.00    +0.115 A 
ATOM      4  C   UNL     1       5.274  -9.894  -0.868  0.00  0.00    +0.056 A 
ATOM      5  C   UNL     1       4.885 -11.296  -0.961  0.00  0.00    -0.019 A 
ATOM      6  C   UNL     1       5.880 -12.205  -1.088  0.00  0.00    +0.021 A 
ATOM      7  S   UNL     1       7.371 -11.250  -1.091  0.00  0.00    -0.071 S 
ATOM      8  C   UNL     1       5.716 -13.688  -1.200  0.00  0.00    +0.203 C 
ATOM      9  O   UNL     1       4.365 -14.011  -0.834  0.00  0.00    -0.368 OA
ATOM     10  C   UNL     1       3.387 -13.195  -1.483  0.00  0.00    +0.071 C 
ATOM     11  C   UNL     1       3.434 -11.770  -0.924  0.00  0.00    +0.071 C 
ATOM     12  C   UNL     1       3.674 -13.158  -2.985  0.00  0.00    +0.042 C 
ATOM     13  C   UNL     1       4.416  -8.698  -0.725  0.00  0.00    +0.174 A 
ATOM     14  N   UNL     1       5.016  -7.460  -0.658  0.00  0.00    -0.248 N 
ATOM     15  C   UNL     1       3.989  -6.564  -0.530  0.00  0.00    +0.198 A 
ATOM     16  N   UNL     1       2.872  -7.254  -0.519  0.00  0.00    -0.122 NA
ATOM     17  N   UNL     1       3.122  -8.512  -0.638  0.00  0.00    -0.128 NA
ENDROOT
BRANCH  10  18
ATOM     18  C   UNL     1       1.996 -13.786  -1.247  0.00  0.00    +0.032 C 
ATOM     19  C   UNL     1       1.940 -15.204  -1.820  0.00  0.00    +0.007 C 
ENDBRANCH  10  18
BRANCH   1  20
ATOM     20  S   UNL     1       7.117  -5.746  -0.635  0.00  0.00    -0.087 S 
BRANCH  20  21
ATOM     21  C   UNL     1       8.864  -6.199  -0.766  0.00  0.00    +0.077 C 
BRANCH  21  23
ATOM     22  C   UNL     1      11.201  -5.317  -0.823  0.00  0.00    +0.004 C 
ATOM     23  C   UNL     1       9.724  -4.934  -0.712  0.00  0.00    +0.008 C 
ENDBRANCH  21  23
ENDBRANCH  20  21
ENDBRANCH   1  20
BRANCH  15  24
ATOM     24  S   UNL     1       4.139  -4.814  -0.398  0.00  0.00    -0.076 S 
BRANCH  24  25
ATOM     25  C   UNL     1       2.425  -4.236  -0.258  0.00  0.00    +0.173 C 
BRANCH  25  26
ATOM     26  C   UNL     1       2.410  -2.734  -0.137  0.00  0.00    +0.227 C 
ATOM     27  O   UNL     1       3.452  -2.114  -0.144  0.00  0.00    -0.275 OA
ATOM     28  N   UNL     1       1.237  -2.079  -0.020  0.00  0.00    -0.285 N 
ATOM     29  H   UNL     1       0.409  -2.578   0.062  0.00  0.00    +0.155 HD
BRANCH  28  30
ATOM     30  C   UNL     1       1.214  -0.680  -0.019  0.00  0.00    +0.033 A 
ATOM     31  C   UNL     1       2.137   0.031  -0.774  0.00  0.00    +0.023 A 
ATOM     32  C   UNL     1       2.111   1.412  -0.771  0.00  0.00    +0.005 A 
ATOM     33  C   UNL     1       1.168   2.086  -0.017  0.00  0.00    -0.050 A 
ATOM     34  C   UNL     1       0.248   1.380   0.736  0.00  0.00    +0.005 A 
ATOM     35  C   UNL     1       0.268  -0.001   0.737  0.00  0.00    +0.023 A 
ATOM     36  C   UNL     1       1.143   3.593  -0.015  0.00  0.00    +0.044 C 
ENDBRANCH  28  30
ENDBRANCH  25  26
ENDBRANCH  24  25
ENDBRANCH  15  24
TORSDOF 8
