REMARK  Name = ZINC59286523
REMARK  9 active torsions:
REMARK  status: ('A' for Active; 'I' for Inactive)
REMARK    1  A    between atoms: C_1  and  C_2
REMARK    2  A    between atoms: C_5  and  C_36
REMARK    3  A    between atoms: N_8  and  C_10
REMARK    4  A    between atoms: C_10  and  C_11
REMARK    5  A    between atoms: C_16  and  C_17
REMARK    6  A    between atoms: C_17  and  N_18
REMARK    7  A    between atoms: C_19  and  C_21
REMARK    8  A    between atoms: N_24  and  C_27
REMARK    9  A    between atoms: C_32  and  N_33
REMARK                            x       y       z     vdW  Elec       q    Type
REMARK                         _______ _______ _______ _____ _____    ______ ____
ROOT
ATOM      1  N   UNL     1       2.165   0.117   4.691  0.00  0.00    -0.311 N 
ATOM      2  C   UNL     1       1.347   0.877   5.445  0.00  0.00    +0.216 C 
ATOM      3  O   UNL     1       0.794   1.840   4.958  0.00  0.00    -0.276 OA
ATOM      4  H   UNL     1       2.607  -0.654   5.080  0.00  0.00    +0.149 HD
ENDROOT
BRANCH   2   5
ATOM      5  C   UNL     1       1.119   0.529   6.894  0.00  0.00    +0.078 C 
ATOM      6  C   UNL     1       0.518  -0.875   6.992  0.00  0.00    +0.031 C 
ATOM      7  C   UNL     1       0.319  -1.238   8.467  0.00  0.00    +0.106 C 
ATOM      8  N   UNL     1      -0.486  -0.190   9.108  0.00  0.00    -0.328 N 
ATOM      9  C   UNL     1      -0.046   1.207   8.996  0.00  0.00    +0.106 C 
ATOM     10  C   UNL     1       0.156   1.543   7.516  0.00  0.00    +0.031 C 
BRANCH   8  11
ATOM     11  C   UNL     1      -1.649  -0.516   9.810  0.00  0.00    +0.060 A 
ATOM     12  C   UNL     1      -2.876  -0.529   9.158  0.00  0.00    +0.025 A 
ATOM     13  C   UNL     1      -4.023  -0.852   9.855  0.00  0.00    +0.002 A 
ATOM     14  C   UNL     1      -3.952  -1.163  11.201  0.00  0.00    +0.002 A 
ATOM     15  C   UNL     1      -2.733  -1.151  11.853  0.00  0.00    +0.034 A 
ATOM     16  C   UNL     1      -1.581  -0.834  11.161  0.00  0.00    +0.147 A 
BRANCH  16  17
ATOM     17  N   UNL     1      -0.275  -0.828  11.858  0.00  0.00    +0.058 N 
ATOM     18  O   UNL     1      -0.205  -1.178  13.013  0.00  0.00    -0.126 OA
ATOM     19  O   UNL     1       0.721  -0.471  11.273  0.00  0.00    -0.126 OA
ENDBRANCH  16  17
ENDBRANCH   8  11
ENDBRANCH   2   5
BRANCH   1  20
ATOM     20  C   UNL     1       2.387   0.455   3.282  0.00  0.00    +0.139 C 
BRANCH  20  26
ATOM     21  C   UNL     1       2.895  -1.818   2.365  0.00  0.00    -0.059 A 
ATOM     22  C   UNL     1       3.763  -2.732   1.797  0.00  0.00    +0.002 A 
ATOM     23  C   UNL     1       5.073  -2.373   1.540  0.00  0.00    +0.000 A 
ATOM     24  C   UNL     1       5.515  -1.100   1.850  0.00  0.00    +0.000 A 
ATOM     25  C   UNL     1       4.647  -0.186   2.416  0.00  0.00    +0.005 A 
ATOM     26  C   UNL     1       3.335  -0.543   2.670  0.00  0.00    -0.029 A 
BRANCH  21  27
ATOM     27  C   UNL     1       1.467  -2.209   2.645  0.00  0.00    -0.043 C 
BRANCH  27  33
ATOM     28  C   UNL     1       1.101  -4.678  -1.566  0.00  0.00    +0.005 C 
ATOM     29  C   UNL     1       1.044  -4.795  -0.042  0.00  0.00    -0.031 C 
ATOM     30  C   UNL     1      -0.323  -5.342   0.379  0.00  0.00    +0.003 C 
ATOM     31  C   UNL     1      -0.398  -5.381   1.908  0.00  0.00    -0.031 C 
ATOM     32  C   UNL     1      -0.140  -3.978   2.462  0.00  0.00    -0.075 C 
ATOM     33  N   UNL     1       1.192  -3.522   2.047  0.00  0.00    +0.383 N 
ATOM     34  C   UNL     1       1.250  -3.414   0.585  0.00  0.00    -0.075 C 
ATOM     35  C   UNL     1      -1.788  -5.853   2.339  0.00  0.00    +0.005 C 
ATOM     36  H   UNL     1       1.886  -4.184   2.361  0.00  0.00    -0.081 HD
ENDBRANCH  27  33
ENDBRANCH  21  27
ENDBRANCH  20  26
ENDBRANCH   1  20
TORSDOF 7
