REMARK  Name = ZINC20706089
REMARK  7 active torsions:
REMARK  status: ('A' for Active; 'I' for Inactive)
REMARK    1  A    between atoms: C_1  and  C_2
REMARK    2  A    between atoms: C_2  and  O_3
REMARK    3  A    between atoms: O_3  and  C_4
REMARK    4  A    between atoms: C_7  and  N_10
REMARK    5  A    between atoms: C_11  and  C_13
REMARK    6  A    between atoms: C_20  and  C_29
REMARK    7  A    between atoms: C_31  and  N_36
REMARK                            x       y       z     vdW  Elec       q    Type
REMARK                         _______ _______ _______ _____ _____    ______ ____
ROOT
ATOM      1  C   UNL     1      -4.836   0.940   0.092  0.00  0.00    +0.058 A 
ATOM      2  C   UNL     1      -4.810  -0.455   0.072  0.00  0.00    +0.015 A 
ATOM      3  C   UNL     1      -5.980  -1.160   0.250  0.00  0.00    +0.001 A 
ATOM      4  C   UNL     1      -7.176  -0.490   0.435  0.00  0.00    +0.006 A 
ATOM      5  C   UNL     1      -7.224   0.896   0.450  0.00  0.00    -0.019 A 
ATOM      6  C   UNL     1      -6.055   1.619   0.280  0.00  0.00    +0.044 A 
ATOM      7  N   UNL     1      -6.033   3.005   0.290  0.00  0.00    -0.336 N 
ATOM      8  C   UNL     1      -7.316   3.583  -0.113  0.00  0.00    +0.106 C 
ATOM      9  C   UNL     1      -8.417   3.080   0.824  0.00  0.00    +0.029 C 
ATOM     10  C   UNL     1      -8.558   1.552   0.651  0.00  0.00    +0.049 C 
ATOM     11  C   UNL     1      -9.417   1.399  -0.584  0.00  0.00    -0.023 C 
ATOM     12  C   UNL     1     -10.091   2.499  -0.813  0.00  0.00    -0.030 C 
ATOM     13  C   UNL     1      -9.783   3.541   0.244  0.00  0.00    +0.033 C 
ATOM     14  H   UNL     1      -5.193   3.663   0.555  0.00  0.00    +0.147 HD
ENDROOT
BRANCH   8  15
ATOM     15  C   UNL     1      -7.237   5.086  -0.034  0.00  0.00    -0.007 A 
ATOM     16  C   UNL     1      -7.827   5.755   1.023  0.00  0.00    +0.039 A 
ATOM     17  C   UNL     1      -7.750   7.133   1.099  0.00  0.00    +0.127 A 
ATOM     18  C   UNL     1      -7.093   7.844   0.112  0.00  0.00    +0.034 A 
ATOM     19  C   UNL     1      -6.508   7.177  -0.948  0.00  0.00    +0.022 A 
ATOM     20  C   UNL     1      -6.580   5.797  -1.021  0.00  0.00    +0.046 A 
ATOM     21 CL   UNL     1      -5.846   4.959  -2.352  0.00  0.00    -0.083 Cl
BRANCH  17  22
ATOM     22  N   UNL     1      -8.377   7.847   2.233  0.00  0.00    +0.056 N 
ATOM     23  O   UNL     1      -8.313   9.062   2.297  0.00  0.00    -0.126 OA
ATOM     24  O   UNL     1      -8.955   7.221   3.103  0.00  0.00    -0.126 OA
ENDBRANCH  17  22
ENDBRANCH   8  15
BRANCH   1  26
ATOM     25  N   UNL     1      -2.421   1.053  -0.270  0.00  0.00    -0.281 N 
ATOM     26  C   UNL     1      -3.588   1.703  -0.090  0.00  0.00    +0.250 C 
ATOM     27  O   UNL     1      -3.611   2.919  -0.078  0.00  0.00    -0.270 OA
ATOM     28  H   UNL     1      -2.411  -0.043  -0.366  0.00  0.00    +0.155 HD
BRANCH  25  32
ATOM     29  C   UNL     1       1.153   3.191  -0.460  0.00  0.00    +0.121 A 
ATOM     30  C   UNL     1       0.123   3.633   0.358  0.00  0.00    +0.047 A 
ATOM     31  C   UNL     1      -1.062   2.928   0.418  0.00  0.00    +0.027 A 
ATOM     32  C   UNL     1      -1.221   1.772  -0.336  0.00  0.00    +0.034 A 
ATOM     33  C   UNL     1      -0.192   1.334  -1.158  0.00  0.00    +0.027 A 
ATOM     34  C   UNL     1       0.993   2.040  -1.217  0.00  0.00    +0.047 A 
BRANCH  29  35
ATOM     35  O   UNL     1       2.320   3.887  -0.518  0.00  0.00    -0.492 OA
BRANCH  35  37
ATOM     36  C   UNL     1       4.567   4.283  -1.315  0.00  0.00    +0.048 C 
ATOM     37  C   UNL     1       3.338   3.374  -1.381  0.00  0.00    +0.225 C 
ENDBRANCH  35  37
ENDBRANCH  29  35
ENDBRANCH  25  32
ENDBRANCH   1  26
TORSDOF 6
