REMARK  Name = ZINC04101105
REMARK  7 active torsions:
REMARK  status: ('A' for Active; 'I' for Inactive)
REMARK    1  A    between atoms: C_1  and  C_2
REMARK    2  A    between atoms: C_5  and  N_8
REMARK    3  A    between atoms: N_8  and  C_20
REMARK    4  A    between atoms: C_9  and  C_11
REMARK    5  A    between atoms: C_11  and  C_12
REMARK    6  A    between atoms: C_20  and  C_26
REMARK    7  A    between atoms: N_28  and  C_29
REMARK                            x       y       z     vdW  Elec       q    Type
REMARK                         _______ _______ _______ _____ _____    ______ ____
ROOT
ATOM      1  N   UNL     1      -0.024  -4.033   0.004  0.00  0.00    -0.257 N 
ATOM      2  C   UNL     1       0.853  -4.136  -1.014  0.00  0.00    +0.223 C 
ATOM      3  O   UNL     1       1.754  -4.945  -0.959  0.00  0.00    -0.275 OA
ENDROOT
BRANCH   1   8
ATOM      4  C   UNL     1      -4.484  -0.554  -0.431  0.00  0.00    +0.044 C 
ATOM      5  C   UNL     1      -3.300  -1.479  -0.315  0.00  0.00    -0.050 A 
ATOM      6  C   UNL     1      -3.143  -2.515  -1.217  0.00  0.00    +0.005 A 
ATOM      7  C   UNL     1      -2.058  -3.364  -1.114  0.00  0.00    +0.024 A 
ATOM      8  C   UNL     1      -1.124  -3.175  -0.103  0.00  0.00    +0.037 A 
ATOM      9  C   UNL     1      -1.284  -2.133   0.800  0.00  0.00    +0.024 A 
ATOM     10  C   UNL     1      -2.369  -1.285   0.689  0.00  0.00    +0.005 A 
ENDBRANCH   1   8
BRANCH   1  11
ATOM     11  C   UNL     1       0.174  -4.821   1.224  0.00  0.00    +0.118 C 
ATOM     12  C   UNL     1      -1.035  -4.647   2.145  0.00  0.00    +0.036 C 
ATOM     13  C   UNL     1      -2.297  -5.129   1.427  0.00  0.00    +0.003 C 
ATOM     14  C   UNL     1      -2.143  -6.606   1.061  0.00  0.00    +0.000 C 
ATOM     15  C   UNL     1      -0.934  -6.780   0.139  0.00  0.00    +0.003 C 
ATOM     16  C   UNL     1       0.328  -6.298   0.858  0.00  0.00    +0.036 C 
BRANCH  11  17
ATOM     17  C   UNL     1       1.417  -4.346   1.931  0.00  0.00    +0.237 C 
ATOM     18  O   UNL     1       2.107  -5.136   2.540  0.00  0.00    -0.273 OA
ATOM     19  N   UNL     1       1.762  -3.044   1.887  0.00  0.00    -0.311 N 
ATOM     20  H   UNL     1       1.173  -2.400   1.464  0.00  0.00    +0.149 HD
BRANCH  19  21
ATOM     21  C   UNL     1       3.027  -2.601   2.479  0.00  0.00    +0.073 C 
ATOM     22  C   UNL     1       2.825  -2.272   3.973  0.00  0.00    +0.022 C 
ATOM     23  C   UNL     1       3.733  -1.042   4.217  0.00  0.00    +0.002 C 
ATOM     24  C   UNL     1       3.567  -0.229   2.910  0.00  0.00    +0.002 C 
ATOM     25  C   UNL     1       3.498  -1.301   1.803  0.00  0.00    +0.022 C 
ENDBRANCH  19  21
ENDBRANCH  11  17
ENDBRANCH   1  11
BRANCH   2  26
ATOM     26  C   UNL     1       0.713  -3.245  -2.222  0.00  0.00    +0.128 C 
BRANCH  26  27
ATOM     27  C   UNL     1       1.901  -3.468  -3.160  0.00  0.00    +0.169 C 
ATOM     28  C   UNL     1       1.804  -2.557  -4.368  0.00  0.00    +0.241 C 
ATOM     29  O   UNL     1       1.803  -1.345  -4.372  0.00  0.00    -0.273 OA
ATOM     30  N   UNL     1       1.720  -3.375  -5.435  0.00  0.00    -0.239 N 
ATOM     31  C   UNL     1       1.750  -4.663  -5.073  0.00  0.00    +0.307 C 
ATOM     32  O   UNL     1       1.688  -5.587  -5.860  0.00  0.00    -0.252 OA
ATOM     33  N   UNL     1       1.858  -4.822  -3.739  0.00  0.00    -0.287 N 
ATOM     34  H   UNL     1       1.647  -3.068  -6.353  0.00  0.00    +0.159 HD
ATOM     35  H   UNL     1       1.899  -5.661  -3.254  0.00  0.00    +0.151 HD
ENDBRANCH  26  27
ENDBRANCH   2  26
TORSDOF 6
