REMARK  Name = ZINC20214700
REMARK  14 active torsions:
REMARK  status: ('A' for Active; 'I' for Inactive)
REMARK    1  A    between atoms: C_1  and  C_2
REMARK    2  A    between atoms: C_2  and  O_3
REMARK    3  A    between atoms: O_3  and  C_4
REMARK    4  A    between atoms: C_4  and  C_6
REMARK    5  A    between atoms: C_7  and  C_24
REMARK    6  A    between atoms: C_12  and  C_14
REMARK    7  A    between atoms: C_17  and  O_20
REMARK    8  A    between atoms: O_20  and  C_21
REMARK    9  A    between atoms: C_21  and  C_22
REMARK   10  A    between atoms: C_21  and  C_23
REMARK   11  A    between atoms: C_24  and  N_25
REMARK   12  A    between atoms: N_25  and  C_26
REMARK   13  A    between atoms: N_25  and  C_32
REMARK   14  A    between atoms: C_26  and  C_27
REMARK                            x       y       z     vdW  Elec       q    Type
REMARK                         _______ _______ _______ _____ _____    ______ ____
ROOT
ATOM      1  C   UNL     1      -2.817  -2.530   5.335  0.00  0.00    +0.076 C 
ATOM      2  C   UNL     1      -3.437  -3.699   5.060  0.00  0.00    +0.008 C 
ATOM      3  N   UNL     1      -4.619  -3.725   4.377  0.00  0.00    -0.274 N 
ATOM      4  C   UNL     1      -5.246  -2.628   3.935  0.00  0.00    +0.304 C 
ATOM      5  O   UNL     1      -6.296  -2.753   3.336  0.00  0.00    -0.252 OA
ATOM      6  N   UNL     1      -4.751  -1.391   4.133  0.00  0.00    -0.288 N 
ATOM      7  C   UNL     1      -3.478  -1.252   4.860  0.00  0.00    +0.143 C 
ATOM      8  H   UNL     1      -5.108  -4.687   4.163  0.00  0.00    +0.156 HD
ATOM      9  H   UNL     1      -5.275  -0.496   3.765  0.00  0.00    +0.151 HD
ENDROOT
BRANCH   7  10
ATOM     10  C   UNL     1      -2.506  -0.532   3.962  0.00  0.00    -0.022 A 
ATOM     11  C   UNL     1      -1.708   0.474   4.475  0.00  0.00    +0.009 A 
ATOM     12  C   UNL     1      -0.816   1.136   3.654  0.00  0.00    +0.046 A 
ATOM     13  C   UNL     1      -0.721   0.791   2.313  0.00  0.00    +0.121 A 
ATOM     14  C   UNL     1      -1.527  -0.215   1.800  0.00  0.00    +0.046 A 
ATOM     15  C   UNL     1      -2.414  -0.878   2.626  0.00  0.00    +0.009 A 
BRANCH  13  16
ATOM     16  O   UNL     1       0.155   1.441   1.503  0.00  0.00    -0.489 OA
BRANCH  16  17
ATOM     17  C   UNL     1       0.996   2.423   2.113  0.00  0.00    +0.167 C 
ATOM     18  C   UNL     1       1.473   3.415   1.051  0.00  0.00    +0.051 C 
ATOM     19  C   UNL     1       2.206   1.735   2.748  0.00  0.00    +0.051 C 
ENDBRANCH  16  17
ENDBRANCH  13  16
ENDBRANCH   7  10
BRANCH   1  20
ATOM     20  C   UNL     1      -1.592  -2.501   6.041  0.00  0.00    +0.339 C 
ATOM     21  O   UNL     1      -1.041  -3.542   6.347  0.00  0.00    -0.245 OA
BRANCH  20  22
ATOM     22  O   UNL     1      -1.034  -1.319   6.376  0.00  0.00    -0.462 OA
BRANCH  22  24
ATOM     23  C   UNL     1       0.677   0.062   7.378  0.00  0.00    +0.048 C 
ATOM     24  C   UNL     1       0.203  -1.364   7.089  0.00  0.00    +0.229 C 
ENDBRANCH  22  24
ENDBRANCH  20  22
ENDBRANCH   1  20
BRANCH   2  25
ATOM     25  C   UNL     1      -2.813  -4.993   5.514  0.00  0.00    -0.025 C 
BRANCH  25  26
ATOM     26  N   UNL     1      -1.758  -5.386   4.570  0.00  0.00    +0.390 N 
ATOM     27  H   UNL     1      -1.167  -4.490   4.332  0.00  0.00    -0.080 HD
BRANCH  26  28
ATOM     28  C   UNL     1      -2.334  -5.893   3.317  0.00  0.00    -0.067 C 
ATOM     29  C   UNL     1      -1.228  -6.513   2.440  0.00  0.00    -0.015 C 
ATOM     30  C   UNL     1      -1.627  -6.124   0.994  0.00  0.00    -0.002 C 
ATOM     31  C   UNL     1      -2.178  -4.687   1.167  0.00  0.00    -0.002 C 
ATOM     32  C   UNL     1      -2.938  -4.732   2.508  0.00  0.00    -0.015 C 
ENDBRANCH  26  28
BRANCH  26  33
ATOM     33  C   UNL     1      -0.855  -6.376   5.173  0.00  0.00    -0.002 C 
BRANCH  33  34
ATOM     34  C   UNL     1       0.533  -6.194   4.617  0.00  0.00    +0.089 A 
ATOM     35  C   UNL     1       1.428  -5.275   5.023  0.00  0.00    +0.042 A 
ATOM     36  C   UNL     1       2.589  -5.459   4.237  0.00  0.00    +0.041 A 
ATOM     37  C   UNL     1       2.334  -6.479   3.398  0.00  0.00    +0.195 A 
ATOM     38  O   UNL     1       1.090  -6.924   3.637  0.00  0.00    -0.470 OA
ENDBRANCH  33  34
ENDBRANCH  26  33
ENDBRANCH  25  26
ENDBRANCH   2  25
TORSDOF 11
