REMARK  Name = ZINC02742778
REMARK  12 active torsions:
REMARK  status: ('A' for Active; 'I' for Inactive)
REMARK    1  A    between atoms: C_1  and  C_2
REMARK    2  A    between atoms: C_2  and  C_3
REMARK    3  A    between atoms: C_3  and  N_4
REMARK    4  A    between atoms: N_4  and  C_5
REMARK    5  A    between atoms: N_4  and  C_8
REMARK    6  A    between atoms: C_5  and  C_6
REMARK    7  A    between atoms: C_6  and  C_7
REMARK    8  A    between atoms: C_11  and  C_14
REMARK    9  A    between atoms: C_14  and  C_16
REMARK   10  A    between atoms: C_14  and  N_27
REMARK   11  A    between atoms: C_25  and  O_26
REMARK   12  A    between atoms: N_27  and  C_28
REMARK                            x       y       z     vdW  Elec       q    Type
REMARK                         _______ _______ _______ _____ _____    ______ ____
ROOT
ATOM      1  C   UNL     1       4.748  -0.031   0.045  0.00  0.00    +0.136 C 
ENDROOT
BRANCH   1   2
ATOM      2  C   UNL     1       4.515   0.690   1.348  0.00  0.00    +0.021 A 
ATOM      3  C   UNL     1       3.248   0.667   1.926  0.00  0.00    +0.010 A 
ATOM      4  C   UNL     1       3.005   1.308   3.103  0.00  0.00    +0.010 A 
ATOM      5  C   UNL     1       4.043   2.002   3.746  0.00  0.00    +0.004 A 
ATOM      6  C   UNL     1       3.829   2.676   4.964  0.00  0.00    +0.011 A 
ATOM      7  C   UNL     1       4.885   3.329   5.532  0.00  0.00    +0.020 A 
ATOM      8  C   UNL     1       6.130   3.316   4.906  0.00  0.00    +0.111 A 
ATOM      9  N   UNL     1       6.324   2.687   3.772  0.00  0.00    -0.251 NA
ATOM     10  C   UNL     1       5.333   2.029   3.164  0.00  0.00    +0.113 A 
ATOM     11  C   UNL     1       5.550   1.349   1.947  0.00  0.00    +0.148 A 
BRANCH  11  12
ATOM     12  O   UNL     1       6.780   1.355   1.371  0.00  0.00    -0.504 OA
ATOM     13  H   UNL     1       6.925   2.091   0.760  0.00  0.00    +0.292 HD
ENDBRANCH  11  12
ENDBRANCH   1   2
BRANCH   1  17
ATOM     14  C   UNL     1       4.295   2.712  -3.201  0.00  0.00    +0.030 A 
ATOM     15  C   UNL     1       5.560   2.271  -2.834  0.00  0.00    +0.023 A 
ATOM     16  C   UNL     1       5.703   1.384  -1.784  0.00  0.00    +0.007 A 
ATOM     17  C   UNL     1       4.588   0.936  -1.099  0.00  0.00    -0.023 A 
ATOM     18  C   UNL     1       3.327   1.369  -1.466  0.00  0.00    +0.007 A 
ATOM     19  C   UNL     1       3.178   2.260  -2.510  0.00  0.00    +0.023 A 
BRANCH  14  20
ATOM     20  N   UNL     1       4.146   3.608  -4.262  0.00  0.00    -0.330 N 
BRANCH  20  21
ATOM     21  C   UNL     1       2.812   4.072  -4.648  0.00  0.00    +0.105 C 
BRANCH  21  23
ATOM     22  C   UNL     1       1.072   5.825  -4.267  0.00  0.00    +0.005 C 
ATOM     23  C   UNL     1       2.467   5.340  -3.864  0.00  0.00    +0.015 C 
ENDBRANCH  21  23
ENDBRANCH  20  21
BRANCH  20  24
ATOM     24  C   UNL     1       5.326   4.083  -4.989  0.00  0.00    +0.105 C 
BRANCH  24  25
ATOM     25  C   UNL     1       5.617   3.143  -6.160  0.00  0.00    +0.015 C 
ATOM     26  C   UNL     1       6.848   3.639  -6.920  0.00  0.00    +0.005 C 
ENDBRANCH  24  25
ENDBRANCH  20  24
ENDBRANCH  14  20
ENDBRANCH   1  17
BRANCH   1  27
ATOM     27  N   UNL     1       3.775  -1.117  -0.093  0.00  0.00    -0.320 N 
ATOM     28  H   UNL     1       2.968  -0.982  -0.615  0.00  0.00    +0.148 HD
BRANCH  27  29
ATOM     29  C   UNL     1       4.008  -2.341   0.522  0.00  0.00    +0.097 A 
ATOM     30  C   UNL     1       5.211  -2.563   1.185  0.00  0.00    +0.041 A 
ATOM     31  C   UNL     1       5.429  -3.785   1.793  0.00  0.00    +0.005 A 
ATOM     32  C   UNL     1       4.432  -4.750   1.718  0.00  0.00    +0.018 A 
ATOM     33  C   UNL     1       3.262  -4.463   1.045  0.00  0.00    +0.084 A 
ATOM     34  N   UNL     1       3.014  -3.272   0.435  0.00  0.00    -0.350 N 
ATOM     35  H   UNL     1       2.134  -3.086  -0.059  0.00  0.00    +0.166 HD
ENDBRANCH  27  29
ENDBRANCH   1  27
TORSDOF 10
