REMARK  Name = ZINC08991116
REMARK  9 active torsions:
REMARK  status: ('A' for Active; 'I' for Inactive)
REMARK    1  A    between atoms: C_1  and  C_2
REMARK    2  A    between atoms: C_2  and  C_3
REMARK    3  A    between atoms: C_3  and  C_5
REMARK    4  A    between atoms: C_3  and  N_29
REMARK    5  A    between atoms: N_7  and  N_8
REMARK    6  A    between atoms: C_11  and  C_28
REMARK    7  A    between atoms: C_30  and  O_32
REMARK    8  A    between atoms: O_32  and  C_33
REMARK    9  A    between atoms: C_33  and  C_34
REMARK                            x       y       z     vdW  Elec       q    Type
REMARK                         _______ _______ _______ _____ _____    ______ ____
ROOT
ATOM      1  N   UNL     1      -0.017   1.397   0.010  0.00  0.00    -0.142 NA
ATOM      2  C   UNL     1       1.107   2.066   0.003  0.00  0.00    +0.236 A 
ATOM      3  C   UNL     1       2.402   1.370  -0.007  0.00  0.00    +0.073 A 
ATOM      4  C   UNL     1       3.459   2.023  -0.562  0.00  0.00    -0.035 A 
ATOM      5  C   UNL     1       3.226   3.374  -1.097  0.00  0.00    +0.021 A 
ATOM      6  C   UNL     1       4.173   3.998  -1.908  0.00  0.00    +0.019 A 
ATOM      7  C   UNL     1       3.933   5.263  -2.408  0.00  0.00    -0.005 A 
ATOM      8  C   UNL     1       2.747   5.918  -2.104  0.00  0.00    +0.128 A 
ATOM      9  C   UNL     1       1.798   5.304  -1.291  0.00  0.00    +0.092 A 
ATOM     10  C   UNL     1       2.028   4.039  -0.785  0.00  0.00    +0.141 A 
ATOM     11  O   UNL     1       1.111   3.429   0.010  0.00  0.00    -0.436 OA
ATOM     12  O   UNL     1       2.478   7.152  -2.586  0.00  0.00    -0.485 OA
ATOM     13  C   UNL     1       3.507   7.945  -3.155  0.00  0.00    +0.111 C 
ATOM     14  C   UNL     1       2.876   9.048  -4.017  0.00  0.00    +0.048 C 
ATOM     15  C   UNL     1       1.945   9.898  -3.151  0.00  0.00    +0.004 C 
ATOM     16  C   UNL     1       2.748  10.545  -2.021  0.00  0.00    +0.000 C 
ATOM     17  C   UNL     1       3.391   9.453  -1.164  0.00  0.00    +0.004 C 
ATOM     18  C   UNL     1       4.319   8.603  -2.032  0.00  0.00    +0.048 C 
ATOM     19  C   UNL     1       4.438   7.108  -4.021  0.00  0.00    +0.053 C 
ATOM     20  C   UNL     1       4.980   5.904  -3.275  0.00  0.00    +0.043 C 
ATOM     21  C   UNL     1       4.824   1.387  -0.620  0.00  0.00    +0.044 C 
ENDROOT
BRANCH   1  24
ATOM     22  C   UNL     1      -1.156  -0.694   0.009  0.00  0.00    +0.253 C 
ATOM     23  O   UNL     1      -2.215  -0.101   0.023  0.00  0.00    -0.272 OA
ATOM     24  N   UNL     1       0.002  -0.004   0.002  0.00  0.00    -0.202 N 
ATOM     25  H   UNL     1       0.849  -0.478  -0.009  0.00  0.00    +0.177 HD
BRANCH  22  26
ATOM     26  C   UNL     1      -1.135  -2.201   0.001  0.00  0.00    +0.163 C 
BRANCH  26  27
ATOM     27  N   UNL     1      -2.510  -2.708   0.011  0.00  0.00    -0.270 N 
ATOM     28  C   UNL     1      -2.771  -3.936   0.501  0.00  0.00    +0.401 C 
ATOM     29  O   UNL     1      -1.867  -4.623   0.933  0.00  0.00    -0.226 OA
ATOM     30  H   UNL     1      -3.232  -2.159  -0.334  0.00  0.00    +0.153 HD
BRANCH  28  31
ATOM     31  O   UNL     1      -4.034  -4.402   0.510  0.00  0.00    -0.446 OA
BRANCH  31  32
ATOM     32  C   UNL     1      -4.242  -5.733   1.052  0.00  0.00    +0.269 C 
BRANCH  32  33
ATOM     33  C   UNL     1      -5.706  -6.082   0.981  0.00  0.00    -0.010 A 
ATOM     34  C   UNL     1      -6.541  -5.778   2.039  0.00  0.00    +0.007 A 
ATOM     35  C   UNL     1      -7.886  -6.093   1.972  0.00  0.00    +0.000 A 
ATOM     36  C   UNL     1      -8.393  -6.722   0.850  0.00  0.00    +0.000 A 
ATOM     37  C   UNL     1      -7.556  -7.031  -0.207  0.00  0.00    +0.000 A 
ATOM     38  C   UNL     1      -6.213  -6.711  -0.141  0.00  0.00    +0.007 A 
ENDBRANCH  32  33
ENDBRANCH  31  32
ENDBRANCH  28  31
ENDBRANCH  26  27
BRANCH  26  40
ATOM     39  C   UNL     1      -0.288  -4.218  -1.206  0.00  0.00    +0.006 C 
ATOM     40  C   UNL     1      -0.419  -2.694  -1.258  0.00  0.00    +0.028 C 
ENDBRANCH  26  40
ENDBRANCH  22  26
ENDBRANCH   1  24
TORSDOF 7
