REMARK  Name = ZINC09419910
REMARK  8 active torsions:
REMARK  status: ('A' for Active; 'I' for Inactive)
REMARK    1  A    between atoms: C_1  and  C_2
REMARK    2  A    between atoms: C_4  and  C_32
REMARK    3  A    between atoms: C_6  and  N_8
REMARK    4  A    between atoms: C_9  and  C_11
REMARK    5  A    between atoms: C_12  and  N_31
REMARK    6  A    between atoms: C_15  and  C_24
REMARK    7  A    between atoms: C_16  and  C_20
REMARK    8  A    between atoms: C_24  and  C_26
REMARK                            x       y       z     vdW  Elec       q    Type
REMARK                         _______ _______ _______ _____ _____    ______ ____
ROOT
ATOM      1  C   UNL     1       1.143   1.380   0.969  0.00  0.00    +0.097 A 
ATOM      2  C   UNL     1       0.986   0.102   0.481  0.00  0.00    +0.053 A 
ATOM      3  C   UNL     1       2.170  -0.731   0.331  0.00  0.00    +0.030 A 
ATOM      4  C   UNL     1       2.257  -2.059  -0.143  0.00  0.00    +0.026 A 
ATOM      5  C   UNL     1       3.505  -2.671  -0.204  0.00  0.00    +0.053 A 
ATOM      6  C   UNL     1       4.649  -1.971   0.201  0.00  0.00    +0.156 A 
ATOM      7  N   UNL     1       4.550  -0.735   0.641  0.00  0.00    -0.235 NA
ATOM      8  C   UNL     1       3.387  -0.119   0.714  0.00  0.00    +0.111 A 
ATOM      9  S   UNL     1       2.899   1.505   1.244  0.00  0.00    -0.062 S 
ENDROOT
BRANCH   1  11
ATOM     10  N   UNL     1       0.492   3.572   1.680  0.00  0.00    -0.281 N 
ATOM     11  C   UNL     1       0.148   2.364   1.192  0.00  0.00    +0.257 C 
ATOM     12  O   UNL     1      -1.018   2.117   0.944  0.00  0.00    -0.269 OA
ATOM     13  H   UNL     1       1.408   3.744   1.949  0.00  0.00    +0.155 HD
BRANCH  10  19
ATOM     14  C   UNL     1      -1.256   7.497   4.068  0.00  0.00    +0.044 C 
ATOM     15  C   UNL     1      -1.344   6.494   2.947  0.00  0.00    -0.048 A 
ATOM     16  C   UNL     1      -2.380   6.569   2.034  0.00  0.00    +0.006 A 
ATOM     17  C   UNL     1      -2.464   5.651   1.003  0.00  0.00    -0.048 A 
ATOM     18  C   UNL     1      -1.513   4.656   0.883  0.00  0.00    +0.026 A 
ATOM     19  C   UNL     1      -0.472   4.578   1.799  0.00  0.00    +0.034 A 
ATOM     20  C   UNL     1      -0.393   5.499   2.836  0.00  0.00    +0.026 A 
ATOM     21  C   UNL     1      -3.594   5.736   0.010  0.00  0.00    +0.044 C 
ENDBRANCH  10  19
ENDBRANCH   1  11
BRANCH   6  22
ATOM     22  C   UNL     1       6.000  -2.637   0.133  0.00  0.00    +0.435 C 
ATOM     23  F   UNL     1       6.354  -2.839  -1.205  0.00  0.00    -0.164 F 
ATOM     24  F   UNL     1       6.954  -1.821   0.750  0.00  0.00    -0.164 F 
ATOM     25  F   UNL     1       5.945  -3.870   0.792  0.00  0.00    -0.164 F 
ENDBRANCH   6  22
BRANCH   2  26
ATOM     26  N   UNL     1      -0.270  -0.379   0.141  0.00  0.00    -0.356 N 
ATOM     27  H   UNL     1      -1.051   0.186   0.245  0.00  0.00    +0.142 HD
ATOM     28  H   UNL     1      -0.367  -1.282  -0.202  0.00  0.00    +0.142 HD
ENDBRANCH   2  26
BRANCH   5  29
ATOM     29  C   UNL     1       3.623  -4.058  -0.696  0.00  0.00    +0.202 C 
ATOM     30  O   UNL     1       3.302  -4.988   0.021  0.00  0.00    -0.286 OA
BRANCH  29  31
ATOM     31  C   UNL     1       4.128  -4.315  -2.047  0.00  0.00    +0.059 A 
ATOM     32  C   UNL     1       4.419  -5.528  -2.656  0.00  0.00    +0.019 A 
ATOM     33  C   UNL     1       4.881  -5.483  -3.947  0.00  0.00    +0.008 A 
ATOM     34  C   UNL     1       5.040  -4.277  -4.554  0.00  0.00    +0.046 A 
ATOM     35  S   UNL     1       4.537  -3.151  -3.335  0.00  0.00    -0.093 S 
ENDBRANCH  29  31
ENDBRANCH   5  29
TORSDOF 6
