REMARK  Name = ZINC39674461
REMARK  10 active torsions:
REMARK  status: ('A' for Active; 'I' for Inactive)
REMARK    1  A    between atoms: C_1  and  C_2
REMARK    2  A    between atoms: C_4  and  C_7
REMARK    3  A    between atoms: C_9  and  C_14
REMARK    4  A    between atoms: C_10  and  C_13
REMARK    5  A    between atoms: C_18  and  C_27
REMARK    6  A    between atoms: N_29  and  C_30
REMARK    7  A    between atoms: C_30  and  C_32
REMARK    8  A    between atoms: C_30  and  C_33
REMARK    9  A    between atoms: C_34  and  C_40
REMARK   10  A    between atoms: C_37  and  C_39
REMARK                            x       y       z     vdW  Elec       q    Type
REMARK                         _______ _______ _______ _____ _____    ______ ____
ROOT
ATOM      1  C   UNL     1      -0.059  -4.455  -3.138  0.00  0.00    +0.247 C 
ATOM      2  O   UNL     1       0.240  -4.849  -2.026  0.00  0.00    -0.270 OA
ATOM      3  N   UNL     1      -0.788  -3.330  -3.281  0.00  0.00    -0.296 N 
ATOM      4  C   UNL     1      -1.398  -2.502  -2.214  0.00  0.00    +0.121 C 
ATOM      5  C   UNL     1      -1.191  -1.045  -2.686  0.00  0.00    +0.100 C 
ATOM      6  C   UNL     1      -1.038  -1.144  -4.213  0.00  0.00    -0.004 C 
ATOM      7  C   UNL     1      -1.157  -2.640  -4.540  0.00  0.00    +0.115 C 
ATOM      8  C   UNL     1       0.329  -0.623  -4.643  0.00  0.00    -0.010 C 
ATOM      9  C   UNL     1       0.435  -0.679  -6.170  0.00  0.00    -0.082 C 
ATOM     10  N   UNL     1      -0.631   0.135  -6.766  0.00  0.00    +0.379 N 
ATOM     11  C   UNL     1      -1.942  -0.428  -6.423  0.00  0.00    -0.082 C 
ATOM     12  C   UNL     1      -2.149  -0.361  -4.907  0.00  0.00    -0.010 C 
ATOM     13  H   UNL     1      -0.569   1.078  -6.413  0.00  0.00    -0.086 HD
ATOM     14  H   UNL     1      -0.523   0.146  -7.769  0.00  0.00    -0.086 HD
ENDROOT
BRANCH   1  16
ATOM     15  C   UNL     1      -0.053  -4.912  -5.711  0.00  0.00    +0.237 C 
ATOM     16  C   UNL     1       0.358  -5.177  -4.281  0.00  0.00    +0.072 C 
ATOM     17  C   UNL     1       1.198  -6.230  -4.299  0.00  0.00    +0.047 C 
ATOM     18  N   UNL     1       1.383  -6.683  -5.568  0.00  0.00    -0.269 N 
ATOM     19  O   UNL     1       0.634  -5.905  -6.487  0.00  0.00    -0.260 OA
ATOM     20  C   UNL     1       1.846  -6.827  -3.076  0.00  0.00    +0.066 C 
ATOM     21  H   UNL     1       1.948  -7.433  -5.811  0.00  0.00    +0.194 HD
BRANCH  15  25
ATOM     22  C   UNL     1      -4.892  -4.026  -7.036  0.00  0.00    +0.089 C 
ATOM     23  C   UNL     1      -3.656  -4.662  -6.454  0.00  0.00    +0.135 A 
ATOM     24  C   UNL     1      -2.403  -4.177  -6.536  0.00  0.00    +0.073 A 
ATOM     25  C   UNL     1      -1.545  -5.066  -5.865  0.00  0.00    +0.120 A 
ATOM     26  N   UNL     1      -2.264  -6.048  -5.399  0.00  0.00    -0.080 NA
ATOM     27  O   UNL     1      -3.613  -5.809  -5.758  0.00  0.00    -0.360 OA
ENDBRANCH  15  25
ENDBRANCH   1  16
BRANCH   5  28
ATOM     28  C   UNL     1       0.056  -0.466  -2.069  0.00  0.00    +0.219 C 
ATOM     29  O   UNL     1       0.979  -1.194  -1.770  0.00  0.00    -0.275 OA
ATOM     30  N   UNL     1       0.146   0.861  -1.849  0.00  0.00    -0.309 N 
ATOM     31  H   UNL     1      -0.619   1.433  -2.019  0.00  0.00    +0.149 HD
BRANCH  30  32
ATOM     32  C   UNL     1       1.397   1.439  -1.353  0.00  0.00    +0.100 C 
ATOM     33  C   UNL     1       1.508   2.892  -1.819  0.00  0.00    +0.033 C 
BRANCH  32  34
ATOM     34  C   UNL     1       1.411   1.391   0.153  0.00  0.00    -0.001 C 
ATOM     35  C   UNL     1       2.330   0.843   0.951  0.00  0.00    +0.063 C 
ATOM     36  N   UNL     1       1.994   1.002   2.250  0.00  0.00    -0.159 NA
ATOM     37  N   UNL     1       0.934   1.605   2.435  0.00  0.00    -0.180 NA
ATOM     38  C   UNL     1       0.385   1.962   1.116  0.00  0.00    +0.154 C 
ATOM     39  C   UNL     1      -0.980   1.304   0.905  0.00  0.00    +0.039 C 
ATOM     40  C   UNL     1       3.574   0.143   0.468  0.00  0.00    +0.067 C 
ENDBRANCH  32  34
ENDBRANCH  30  32
ENDBRANCH   5  28
TORSDOF 5
