REMARK  Name = ZINC39688772
REMARK  6 active torsions:
REMARK  status: ('A' for Active; 'I' for Inactive)
REMARK    1  A    between atoms: C_1  and  C_2
REMARK    2  A    between atoms: C_2  and  C_4
REMARK    3  A    between atoms: C_2  and  N_12
REMARK    4  A    between atoms: C_4  and  C_5
REMARK    5  A    between atoms: C_13  and  C_15
REMARK    6  A    between atoms: C_26  and  C_28
REMARK                            x       y       z     vdW  Elec       q    Type
REMARK                         _______ _______ _______ _____ _____    ______ ____
ROOT
ATOM      1  C   UNL     1       2.726  -1.069  -2.451  0.00  0.00    +0.100 C 
ATOM      2  C   UNL     1       2.405  -0.161  -3.660  0.00  0.00    +0.121 C 
ATOM      3  N   UNL     1       3.518   0.816  -3.700  0.00  0.00    -0.295 N 
ATOM      4  C   UNL     1       4.721   0.018  -3.363  0.00  0.00    +0.115 C 
ATOM      5  C   UNL     1       4.247  -0.951  -2.262  0.00  0.00    -0.004 C 
ATOM      6  C   UNL     1       4.909  -2.314  -2.438  0.00  0.00    -0.010 C 
ATOM      7  C   UNL     1       6.414  -2.183  -2.188  0.00  0.00    -0.082 C 
ATOM      8  N   UNL     1       6.643  -1.677  -0.829  0.00  0.00    +0.379 N 
ATOM      9  C   UNL     1       6.085  -0.326  -0.696  0.00  0.00    -0.082 C 
ATOM     10  C   UNL     1       4.566  -0.379  -0.883  0.00  0.00    -0.010 C 
ATOM     11  C   UNL     1       3.451   2.133  -3.980  0.00  0.00    +0.265 C 
ATOM     12  O   UNL     1       2.371   2.666  -4.141  0.00  0.00    -0.268 OA
ATOM     13  H   UNL     1       6.198  -2.291  -0.163  0.00  0.00    -0.086 HD
ATOM     14  H   UNL     1       7.635  -1.649  -0.645  0.00  0.00    -0.086 HD
ENDROOT
BRANCH  11  15
ATOM     15  C   UNL     1       4.696   2.931  -4.092  0.00  0.00    +0.126 A 
ATOM     16  C   UNL     1       4.606   4.320  -4.268  0.00  0.00    +0.033 A 
ATOM     17  C   UNL     1       5.745   5.066  -4.372  0.00  0.00    +0.012 A 
ATOM     18  C   UNL     1       6.984   4.403  -4.298  0.00  0.00    +0.000 A 
ATOM     19  C   UNL     1       8.195   5.108  -4.397  0.00  0.00    +0.010 A 
ATOM     20  C   UNL     1       9.375   4.434  -4.321  0.00  0.00    +0.001 A 
ATOM     21  C   UNL     1       9.400   3.050  -4.146  0.00  0.00    +0.002 A 
ATOM     22  C   UNL     1       8.248   2.335  -4.046  0.00  0.00    +0.028 A 
ATOM     23  C   UNL     1       7.006   2.995  -4.120  0.00  0.00    +0.072 A 
ATOM     24  N   UNL     1       5.862   2.319  -4.020  0.00  0.00    -0.242 NA
ENDBRANCH  11  15
BRANCH   1  26
ATOM     25  N   UNL     1       1.620  -1.456  -0.273  0.00  0.00    -0.312 N 
ATOM     26  C   UNL     1       2.005  -0.580  -1.221  0.00  0.00    +0.218 C 
ATOM     27  O   UNL     1       1.771   0.603  -1.086  0.00  0.00    -0.275 OA
ATOM     28  H   UNL     1       1.807  -2.401  -0.381  0.00  0.00    +0.149 HD
BRANCH  25  30
ATOM     29  C   UNL     1      -0.578  -0.869   0.626  0.00  0.00    +0.028 C 
ATOM     30  C   UNL     1       0.919  -0.981   0.923  0.00  0.00    +0.074 C 
BRANCH  30  31
ATOM     31  C   UNL     1       1.139  -1.968   2.070  0.00  0.00    +0.057 C 
BRANCH  31  32
ATOM     32  C   UNL     1       2.599  -1.986   2.445  0.00  0.00    -0.045 A 
ATOM     33  C   UNL     1       3.462  -2.867   1.820  0.00  0.00    +0.006 A 
ATOM     34  C   UNL     1       4.800  -2.884   2.162  0.00  0.00    +0.038 A 
ATOM     35  C   UNL     1       5.278  -2.018   3.131  0.00  0.00    +0.123 A 
ATOM     36  C   UNL     1       4.413  -1.135   3.756  0.00  0.00    +0.038 A 
ATOM     37  C   UNL     1       3.075  -1.117   3.408  0.00  0.00    +0.006 A 
ATOM     38  F   UNL     1       6.586  -2.033   3.466  0.00  0.00    -0.205 F 
ENDBRANCH  31  32
ENDBRANCH  30  31
ENDBRANCH  25  30
ENDBRANCH   1  26
TORSDOF 5
