REMARK  Name = ZINC38685240
REMARK  17 active torsions:
REMARK  status: ('A' for Active; 'I' for Inactive)
REMARK    1  A    between atoms: C_1  and  C_2
REMARK    2  A    between atoms: C_2  and  C_3
REMARK    3  A    between atoms: C_3  and  C_4
REMARK    4  A    between atoms: C_4  and  O_5
REMARK    5  A    between atoms: O_5  and  C_6
REMARK    6  A    between atoms: C_10  and  C_12
REMARK    7  A    between atoms: C_17  and  O_26
REMARK    8  A    between atoms: C_21  and  N_25
REMARK    9  A    between atoms: C_22  and  C_23
REMARK   10  A    between atoms: O_26  and  C_27
REMARK   11  A    between atoms: C_27  and  C_29
REMARK   12  A    between atoms: C_29  and  C_31
REMARK   13  A    between atoms: C_29  and  O_32
REMARK   14  A    between atoms: O_32  and  C_33
REMARK   15  A    between atoms: C_36  and  C_39
REMARK   16  A    between atoms: C_39  and  C_40
REMARK   17  A    between atoms: C_39  and  C_41
REMARK                            x       y       z     vdW  Elec       q    Type
REMARK                         _______ _______ _______ _____ _____    ______ ____
ROOT
ATOM      1  C   UNL     1       3.119  -6.255   5.118  0.00  0.00    +0.098 C 
ATOM      2  C   UNL     1       2.151  -7.133   5.865  0.00  0.00    +0.008 A 
ATOM      3  C   UNL     1       1.174  -6.552   6.654  0.00  0.00    +0.012 A 
ATOM      4  C   UNL     1       0.277  -7.342   7.346  0.00  0.00    +0.047 A 
ATOM      5  C   UNL     1       0.354  -8.725   7.252  0.00  0.00    +0.135 A 
ATOM      6  C   UNL     1       1.330  -9.309   6.462  0.00  0.00    +0.093 A 
ATOM      7  C   UNL     1       2.231  -8.514   5.766  0.00  0.00    +0.138 A 
ATOM      8  O   UNL     1       3.182  -9.102   4.999  0.00  0.00    -0.441 OA
ATOM      9  C   UNL     1       4.275  -8.409   4.638  0.00  0.00    +0.199 C 
ATOM     10  C   UNL     1       4.308  -7.059   4.672  0.00  0.00    +0.098 C 
ENDROOT
BRANCH   1  15
ATOM     11  C   UNL     1       1.683  -3.757   2.674  0.00  0.00    +0.121 A 
ATOM     12  C   UNL     1       1.170  -4.595   1.694  0.00  0.00    +0.045 A 
ATOM     13  C   UNL     1       1.289  -5.965   1.827  0.00  0.00    +0.004 A 
ATOM     14  C   UNL     1       1.920  -6.501   2.935  0.00  0.00    +0.005 A 
ATOM     15  C   UNL     1       2.433  -5.668   3.912  0.00  0.00    -0.031 A 
ATOM     16  C   UNL     1       2.321  -4.297   3.781  0.00  0.00    +0.050 A 
BRANCH  11  17
ATOM     17  O   UNL     1       1.567  -2.409   2.545  0.00  0.00    -0.492 OA
BRANCH  17  18
ATOM     18  C   UNL     1       0.899  -1.924   1.378  0.00  0.00    +0.229 C 
BRANCH  18  19
ATOM     19  C   UNL     1       0.866  -0.395   1.409  0.00  0.00    +0.041 C 
BRANCH  19  21
ATOM     20  C   UNL     1       0.118   1.654   0.190  0.00  0.00    +0.004 C 
ATOM     21  C   UNL     1       0.151   0.125   0.160  0.00  0.00    -0.000 C 
ENDBRANCH  19  21
ENDBRANCH  18  19
ENDBRANCH  17  18
ENDBRANCH  11  17
ENDBRANCH   1  15
BRANCH   9  22
ATOM     22  N   UNL     1       5.390  -9.094   4.224  0.00  0.00    -0.328 N 
ATOM     23  H   UNL     1       5.381 -10.063   4.194  0.00  0.00    +0.145 HD
ATOM     24  H   UNL     1       6.187  -8.608   3.961  0.00  0.00    +0.145 HD
ENDBRANCH   9  22
BRANCH  10  25
ATOM     25  C   UNL     1       5.504  -6.381   4.273  0.00  0.00    +0.101 C 
ATOM     26  N   UNL     1       6.453  -5.843   3.957  0.00  0.00    -0.191 NA
ENDBRANCH  10  25
BRANCH   5  27
ATOM     27  O   UNL     1      -0.528  -9.503   7.933  0.00  0.00    -0.423 OA
BRANCH  27  28
ATOM     28  C   UNL     1      -0.051 -10.282   8.917  0.00  0.00    +0.353 C 
ATOM     29  O   UNL     1       1.112 -10.209   9.236  0.00  0.00    -0.246 OA
BRANCH  28  30
ATOM     30  C   UNL     1      -0.967 -11.249   9.623  0.00  0.00    +0.279 C 
ATOM     31  C   UNL     1      -2.040 -10.470  10.387  0.00  0.00    +0.064 C 
BRANCH  30  32
ATOM     32  O   UNL     1      -0.208 -12.039  10.541  0.00  0.00    -0.478 OA
BRANCH  32  33
ATOM     33  C   UNL     1      -0.611 -13.324  10.727  0.00  0.00    +0.122 A 
ATOM     34  C   UNL     1      -1.782 -13.778  10.138  0.00  0.00    +0.046 A 
ATOM     35  C   UNL     1      -2.189 -15.084  10.328  0.00  0.00    +0.007 A 
ATOM     36  C   UNL     1      -1.429 -15.939  11.105  0.00  0.00    -0.045 A 
ATOM     37  C   UNL     1      -0.262 -15.490  11.694  0.00  0.00    +0.007 A 
ATOM     38  C   UNL     1       0.152 -14.186  11.501  0.00  0.00    +0.046 A 
BRANCH  36  39
ATOM     39  C   UNL     1      -1.875 -17.364  11.312  0.00  0.00    +0.013 C 
ATOM     40  C   UNL     1      -0.802 -18.317  10.780  0.00  0.00    +0.012 C 
ATOM     41  C   UNL     1      -2.090 -17.620  12.805  0.00  0.00    +0.012 C 
ENDBRANCH  36  39
ENDBRANCH  32  33
ENDBRANCH  30  32
ENDBRANCH  28  30
ENDBRANCH  27  28
ENDBRANCH   5  27
TORSDOF 13
