REMARK  Name = ZINC05222439
REMARK  8 active torsions:
REMARK  status: ('A' for Active; 'I' for Inactive)
REMARK    1  A    between atoms: C_1  and  C_2
REMARK    2  A    between atoms: C_2  and  N_3
REMARK    3  A    between atoms: N_3  and  N_4
REMARK    4  A    between atoms: C_5  and  C_7
REMARK    5  A    between atoms: C_10  and  N_13
REMARK    6  A    between atoms: C_14  and  C_16
REMARK    7  A    between atoms: C_17  and  C_18
REMARK    8  A    between atoms: N_20  and  C_21
REMARK                            x       y       z     vdW  Elec       q    Type
REMARK                         _______ _______ _______ _____ _____    ______ ____
ROOT
ATOM      1  N   UNL     1       0.853   2.469  -2.727  0.00  0.00    -0.268 N 
ATOM      2  H   UNL     1       1.793   2.353  -2.938  0.00  0.00    +0.170 HD
ENDROOT
BRANCH   1   3
ATOM      3  N   UNL     1      -0.106   2.399  -3.746  0.00  0.00    -0.233 N 
ATOM      4  C   UNL     1       0.277   2.171  -5.018  0.00  0.00    +0.260 C 
ATOM      5  O   UNL     1       1.455   2.027  -5.281  0.00  0.00    -0.269 OA
ATOM      6  H   UNL     1      -1.046   2.515  -3.536  0.00  0.00    +0.173 HD
BRANCH   4   7
ATOM      7  C   UNL     1      -0.734   2.098  -6.091  0.00  0.00    +0.038 A 
ATOM      8  C   UNL     1      -2.088   2.270  -5.791  0.00  0.00    +0.015 A 
ATOM      9  C   UNL     1      -3.028   2.201  -6.794  0.00  0.00    +0.024 A 
ATOM     10  C   UNL     1      -2.631   1.960  -8.106  0.00  0.00    +0.033 A 
ATOM     11  C   UNL     1      -1.284   1.788  -8.408  0.00  0.00    +0.024 A 
ATOM     12  C   UNL     1      -0.338   1.862  -7.410  0.00  0.00    +0.015 A 
BRANCH  10  13
ATOM     13  N   UNL     1      -3.586   1.891  -9.120  0.00  0.00    -0.286 N 
ATOM     14  C   UNL     1      -4.768   1.284  -8.892  0.00  0.00    +0.214 C 
ATOM     15  O   UNL     1      -4.957   0.697  -7.847  0.00  0.00    -0.276 OA
ATOM     16  C   UNL     1      -5.854   1.333  -9.936  0.00  0.00    +0.109 C 
ATOM     17  H   UNL     1      -3.400   2.280  -9.989  0.00  0.00    +0.155 HD
ENDBRANCH  10  13
ENDBRANCH   4   7
ENDBRANCH   1   3
BRANCH   1  19
ATOM     18  C   UNL     1       1.497   2.775  -0.342  0.00  0.00    +0.062 C 
ATOM     19  C   UNL     1       0.465   2.700  -1.437  0.00  0.00    +0.024 C 
ATOM     20  C   UNL     1      -0.842   2.861  -1.145  0.00  0.00    +0.087 C 
BRANCH  20  21
ATOM     21  C   UNL     1      -1.261   2.936   0.204  0.00  0.00    +0.243 C 
ATOM     22  O   UNL     1      -0.449   2.806   1.102  0.00  0.00    -0.270 OA
ATOM     23  N   UNL     1      -2.559   3.152   0.495  0.00  0.00    -0.282 N 
ATOM     24  H   UNL     1      -3.219   3.170  -0.215  0.00  0.00    +0.155 HD
BRANCH  23  25
ATOM     25  C   UNL     1      -2.954   3.352   1.822  0.00  0.00    +0.034 A 
ATOM     26  C   UNL     1      -2.094   3.972   2.718  0.00  0.00    +0.025 A 
ATOM     27  C   UNL     1      -2.487   4.168   4.028  0.00  0.00    +0.022 A 
ATOM     28  C   UNL     1      -3.736   3.747   4.447  0.00  0.00    +0.041 A 
ATOM     29  C   UNL     1      -4.596   3.128   3.556  0.00  0.00    +0.022 A 
ATOM     30  C   UNL     1      -4.210   2.935   2.244  0.00  0.00    +0.025 A 
ATOM     31 CL   UNL     1      -4.227   3.995   6.094  0.00  0.00    -0.084 Cl
ENDBRANCH  23  25
ENDBRANCH  20  21
ENDBRANCH   1  19
TORSDOF 6
