REMARK  Name = ZINC02686954
REMARK  9 active torsions:
REMARK  status: ('A' for Active; 'I' for Inactive)
REMARK    1  A    between atoms: C_1  and  C_2
REMARK    2  A    between atoms: C_5  and  N_8
REMARK    3  A    between atoms: C_9  and  C_11
REMARK    4  A    between atoms: C_11  and  C_12
REMARK    5  A    between atoms: N_16  and  C_24
REMARK    6  A    between atoms: C_24  and  C_25
REMARK    7  A    between atoms: N_27  and  C_28
REMARK    8  A    between atoms: C_29  and  C_35
REMARK    9  A    between atoms: C_33  and  C_34
REMARK                            x       y       z     vdW  Elec       q    Type
REMARK                         _______ _______ _______ _____ _____    ______ ____
ROOT
ATOM      1  C   UNL     1       0.482  -2.233   7.703  0.00  0.00    +0.166 C 
ATOM      2  C   UNL     1       0.774  -1.241   6.606  0.00  0.00    +0.241 C 
ATOM      3  O   UNL     1       1.924  -0.988   6.315  0.00  0.00    -0.273 OA
ATOM      4  N   UNL     1      -0.229  -0.634   5.945  0.00  0.00    -0.259 N 
ATOM      5  C   UNL     1      -1.558  -0.792   6.354  0.00  0.00    +0.058 A 
ATOM      6  C   UNL     1      -2.599  -0.346   5.555  0.00  0.00    +0.025 A 
ATOM      7  C   UNL     1      -3.907  -0.522   5.967  0.00  0.00    +0.002 A 
ATOM      8  C   UNL     1      -4.184  -1.147   7.169  0.00  0.00    +0.002 A 
ATOM      9  C   UNL     1      -3.151  -1.596   7.973  0.00  0.00    +0.025 A 
ATOM     10  C   UNL     1      -1.839  -1.419   7.568  0.00  0.00    +0.049 A 
ATOM     11  N   UNL     1      -0.774  -1.857   8.368  0.00  0.00    -0.331 N 
ATOM     12  H   UNL     1      -0.863  -1.910   9.332  0.00  0.00    +0.147 HD
ENDROOT
BRANCH   1  13
ATOM     13  C   UNL     1       0.347  -3.634   7.104  0.00  0.00    +0.127 C 
BRANCH  13  15
ATOM     14  N   UNL     1       0.039  -5.949   7.920  0.00  0.00    -0.285 N 
ATOM     15  C   UNL     1       0.178  -4.641   8.213  0.00  0.00    +0.219 C 
ATOM     16  O   UNL     1       0.167  -4.273   9.369  0.00  0.00    -0.275 OA
ATOM     17  H   UNL     1       0.115  -6.251   7.002  0.00  0.00    +0.155 HD
BRANCH  14  22
ATOM     18  C   UNL     1      -0.991  -9.688  12.061  0.00  0.00    +0.044 C 
ATOM     19  C   UNL     1      -0.718  -8.694  10.961  0.00  0.00    -0.050 A 
ATOM     20  C   UNL     1      -1.286  -8.873   9.713  0.00  0.00    +0.005 A 
ATOM     21  C   UNL     1      -1.037  -7.965   8.703  0.00  0.00    +0.023 A 
ATOM     22  C   UNL     1      -0.215  -6.871   8.942  0.00  0.00    +0.033 A 
ATOM     23  C   UNL     1       0.359  -6.698  10.194  0.00  0.00    +0.023 A 
ATOM     24  C   UNL     1       0.101  -7.606  11.202  0.00  0.00    +0.005 A 
ENDBRANCH  14  22
ENDBRANCH  13  15
ENDBRANCH   1  13
BRANCH   4  25
ATOM     25  C   UNL     1       0.076   0.209   4.786  0.00  0.00    +0.209 C 
BRANCH  25  26
ATOM     26  C   UNL     1       0.058  -0.632   3.535  0.00  0.00    +0.235 C 
ATOM     27  O   UNL     1      -0.185  -1.818   3.605  0.00  0.00    -0.274 OA
ATOM     28  N   UNL     1       0.312  -0.066   2.339  0.00  0.00    -0.284 N 
ATOM     29  H   UNL     1       0.585   0.864   2.290  0.00  0.00    +0.155 HD
BRANCH  28  30
ATOM     30  C   UNL     1       0.181  -0.818   1.167  0.00  0.00    +0.039 A 
ATOM     31  C   UNL     1       0.900  -1.996   1.012  0.00  0.00    -0.029 A 
ATOM     32  C   UNL     1       0.769  -2.737  -0.146  0.00  0.00    +0.005 A 
ATOM     33  C   UNL     1      -0.078  -2.307  -1.151  0.00  0.00    +0.001 A 
ATOM     34  C   UNL     1      -0.799  -1.138  -0.998  0.00  0.00    +0.005 A 
ATOM     35  C   UNL     1      -0.668  -0.389   0.155  0.00  0.00    -0.029 A 
ATOM     36  C   UNL     1      -1.450   0.889   0.318  0.00  0.00    +0.045 C 
ATOM     37  C   UNL     1       1.823  -2.466   2.108  0.00  0.00    +0.045 C 
ENDBRANCH  28  30
ENDBRANCH  25  26
ENDBRANCH   4  25
TORSDOF 6
