REMARK  Name = ZINC22015371
REMARK  7 active torsions:
REMARK  status: ('A' for Active; 'I' for Inactive)
REMARK    1  A    between atoms: C_1  and  C_2
REMARK    2  A    between atoms: C_2  and  O_3
REMARK    3  A    between atoms: O_3  and  C_4
REMARK    4  A    between atoms: C_4  and  C_6
REMARK    5  A    between atoms: C_7  and  C_19
REMARK    6  A    between atoms: C_12  and  C_14
REMARK    7  A    between atoms: C_19  and  N_20
REMARK                            x       y       z     vdW  Elec       q    Type
REMARK                         _______ _______ _______ _____ _____    ______ ____
ROOT
ATOM      1  C   UNL     1       2.348   1.529  -0.103  0.00  0.00    +0.083 C 
ATOM      2  C   UNL     1       1.127   2.106  -0.092  0.00  0.00    +0.042 C 
ATOM      3  N   UNL     1      -0.008   1.353   0.007  0.00  0.00    -0.271 N 
ATOM      4  C   UNL     1      -0.007   0.017   0.099  0.00  0.00    +0.304 C 
ATOM      5  O   UNL     1      -1.069  -0.568   0.184  0.00  0.00    -0.252 OA
ATOM      6  N   UNL     1       1.134  -0.701   0.101  0.00  0.00    -0.285 N 
ATOM      7  C   UNL     1       2.415   0.019  -0.002  0.00  0.00    +0.179 C 
ATOM      8  H   UNL     1      -0.994   1.841   0.014  0.00  0.00    +0.156 HD
ATOM      9  H   UNL     1       1.124  -1.798   0.176  0.00  0.00    +0.151 HD
ENDROOT
BRANCH   7  10
ATOM     10  C   UNL     1       3.140  -0.496  -1.219  0.00  0.00    +0.130 A 
ATOM     11  C   UNL     1       4.461  -0.736  -1.304  0.00  0.00    +0.047 A 
ATOM     12  C   UNL     1       4.709  -1.206  -2.614  0.00  0.00    +0.041 A 
ATOM     13  C   UNL     1       3.524  -1.225  -3.252  0.00  0.00    +0.195 A 
ATOM     14  O   UNL     1       2.577  -0.800  -2.400  0.00  0.00    -0.466 OA
ENDBRANCH   7  10
BRANCH   1  15
ATOM     15  C   UNL     1       3.524   2.308  -0.207  0.00  0.00    +0.339 C 
ATOM     16  O   UNL     1       4.090   2.416  -1.278  0.00  0.00    -0.245 OA
BRANCH  15  17
ATOM     17  O   UNL     1       4.018   2.932   0.883  0.00  0.00    -0.462 OA
BRANCH  17  19
ATOM     18  C   UNL     1       5.613   4.329   2.042  0.00  0.00    +0.048 C 
ATOM     19  C   UNL     1       5.208   3.702   0.706  0.00  0.00    +0.229 C 
ENDBRANCH  17  19
ENDBRANCH  15  17
ENDBRANCH   1  15
BRANCH   2  20
ATOM     20  C   UNL     1       1.014   3.605  -0.192  0.00  0.00    +0.167 C 
BRANCH  20  21
ATOM     21  N   UNL     1       0.334   3.963  -1.439  0.00  0.00    -0.236 N 
ATOM     22  C   UNL     1      -0.996   4.101  -1.526  0.00  0.00    +0.223 C 
ATOM     23  O   UNL     1      -1.779   3.952  -0.612  0.00  0.00    -0.275 OA
ATOM     24  C   UNL     1      -1.366   4.472  -2.946  0.00  0.00    +0.112 C 
ATOM     25  C   UNL     1      -0.008   4.524  -3.666  0.00  0.00    +0.056 C 
ATOM     26  C   UNL     1       0.990   4.184  -2.587  0.00  0.00    +0.229 C 
ATOM     27  O   UNL     1       2.191   4.119  -2.734  0.00  0.00    -0.275 OA
ATOM     28  C   UNL     1       0.249   5.925  -4.208  0.00  0.00    +0.016 C 
ATOM     29  C   UNL     1       1.613   5.965  -4.902  0.00  0.00    +0.001 C 
ATOM     30  C   UNL     1       1.632   4.946  -6.044  0.00  0.00    +0.000 C 
ATOM     31  C   UNL     1       1.399   3.543  -5.480  0.00  0.00    +0.001 C 
ATOM     32  C   UNL     1       0.034   3.493  -4.788  0.00  0.00    +0.016 C 
ENDBRANCH  20  21
ENDBRANCH   2  20
TORSDOF 6
