REMARK  Name = ZINC10325912
REMARK  5 active torsions:
REMARK  status: ('A' for Active; 'I' for Inactive)
REMARK    1  A    between atoms: C_1  and  C_2
REMARK    2  A    between atoms: C_5  and  C_8
REMARK    3  A    between atoms: C_13  and  C_29
REMARK    4  A    between atoms: N_19  and  C_22
REMARK    5  A    between atoms: C_33  and  N_35
REMARK                            x       y       z     vdW  Elec       q    Type
REMARK                         _______ _______ _______ _____ _____    ______ ____
ROOT
ATOM      1  C   UNL     1       0.059  -4.275  -0.021  0.00  0.00    +0.032 C 
ATOM      2  C   UNL     1      -1.170  -4.811   0.715  0.00  0.00    +0.059 C 
ATOM      3  C   UNL     1      -1.132  -6.322   0.734  0.00  0.00    +0.017 C 
ATOM      4  C   UNL     1       0.044  -6.981   0.770  0.00  0.00    +0.024 C 
ATOM      5  C   UNL     1       0.124  -8.492   0.807  0.00  0.00    +0.092 C 
ATOM      6  C   UNL     1      -1.216  -9.074   0.449  0.00  0.00    +0.070 A 
ATOM      7  C   UNL     1      -2.361  -8.319   0.419  0.00  0.00    +0.125 A 
ATOM      8  N   UNL     1      -3.395  -9.130   0.068  0.00  0.00    -0.277 N 
ATOM      9  H   UNL     1      -4.323  -8.863  -0.030  0.00  0.00    +0.189 HD
ATOM     10  N   UNL     1      -2.882 -10.422  -0.128  0.00  0.00    -0.218 N 
ATOM     11  C   UNL     1      -1.551 -10.384   0.105  0.00  0.00    +0.278 A 
ATOM     12  O   UNL     1      -0.781 -11.326   0.029  0.00  0.00    -0.265 OA
ATOM     13  N   UNL     1      -2.342  -6.976   0.709  0.00  0.00    -0.303 N 
ATOM     14  C   UNL     1       1.266  -6.281   0.768  0.00  0.00    +0.162 C 
ATOM     15  O   UNL     1       2.307  -6.904   0.821  0.00  0.00    -0.292 OA
ATOM     16  C   UNL     1       1.312  -4.780   0.703  0.00  0.00    +0.088 C 
ATOM     17  H   UNL     1      -3.166  -6.498   0.893  0.00  0.00    +0.153 HD
ENDROOT
BRANCH   1  22
ATOM     18  C   UNL     1      -0.018   1.503   0.010  0.00  0.00    +0.044 C 
ATOM     19  C   UNL     1       0.002  -0.004   0.002  0.00  0.00    -0.050 A 
ATOM     20  C   UNL     1       0.006  -0.689  -1.199  0.00  0.00    +0.003 A 
ATOM     21  C   UNL     1       0.025  -2.071  -1.206  0.00  0.00    +0.004 A 
ATOM     22  C   UNL     1       0.040  -2.768  -0.013  0.00  0.00    -0.043 A 
ATOM     23  C   UNL     1       0.037  -2.084   1.188  0.00  0.00    +0.004 A 
ATOM     24  C   UNL     1       0.023  -0.702   1.195  0.00  0.00    +0.003 A 
ENDBRANCH   1  22
BRANCH  10  25
ATOM     25  C   UNL     1      -3.618 -11.552  -0.500  0.00  0.00    +0.067 A 
ATOM     26  C   UNL     1      -2.983 -12.777  -0.655  0.00  0.00    +0.028 A 
ATOM     27  C   UNL     1      -3.713 -13.890  -1.022  0.00  0.00    +0.002 A 
ATOM     28  C   UNL     1      -5.075 -13.786  -1.237  0.00  0.00    +0.000 A 
ATOM     29  C   UNL     1      -5.710 -12.567  -1.084  0.00  0.00    +0.002 A 
ATOM     30  C   UNL     1      -4.987 -11.451  -0.711  0.00  0.00    +0.028 A 
ENDBRANCH  10  25
BRANCH   5  31
ATOM     31  C   UNL     1       0.513  -8.941   2.192  0.00  0.00    -0.033 A 
ATOM     32  C   UNL     1      -0.291  -8.627   3.271  0.00  0.00    +0.005 A 
ATOM     33  C   UNL     1       0.065  -9.039   4.542  0.00  0.00    +0.003 A 
ATOM     34  C   UNL     1       1.226  -9.765   4.732  0.00  0.00    +0.033 A 
ATOM     35  C   UNL     1       2.030 -10.079   3.653  0.00  0.00    +0.126 A 
ATOM     36  C   UNL     1       1.671  -9.671   2.382  0.00  0.00    +0.037 A 
BRANCH  35  37
ATOM     37  N   UNL     1       3.273 -10.856   3.857  0.00  0.00    +0.056 N 
ATOM     38  O   UNL     1       3.586 -11.216   4.968  0.00  0.00    -0.126 OA
ATOM     39  O   UNL     1       3.976 -11.132   2.913  0.00  0.00    -0.126 OA
ENDBRANCH  35  37
ENDBRANCH   5  31
TORSDOF 4
