REMARK  Name = ZINC09129899
REMARK  6 active torsions:
REMARK  status: ('A' for Active; 'I' for Inactive)
REMARK    1  A    between atoms: C_1  and  O_2
REMARK    2  A    between atoms: O_2  and  C_3
REMARK    3  A    between atoms: C_3  and  C_4
REMARK    4  A    between atoms: C_4  and  C_5
REMARK    5  A    between atoms: C_5  and  N_6
REMARK    6  A    between atoms: C_12  and  C_22
REMARK                            x       y       z     vdW  Elec       q    Type
REMARK                         _______ _______ _______ _____ _____    ______ ____
ROOT
ATOM      1  N   UNL     1      -1.285   2.909   0.312  0.00  0.00    -0.221 N 
ATOM      2  C   UNL     1      -0.199   3.710   0.325  0.00  0.00    +0.261 C 
ATOM      3  O   UNL     1      -0.299   4.894   0.590  0.00  0.00    -0.269 OA
ATOM      4  C   UNL     1       1.110   3.114   0.008  0.00  0.00    +0.116 C 
ATOM      5  C   UNL     1       2.267   3.873   0.001  0.00  0.00    +0.027 C 
ATOM      6  C   UNL     1       3.533   3.099   0.109  0.00  0.00    +0.071 C 
ATOM      7  C   UNL     1       4.558   3.790   0.957  0.00  0.00    +0.087 C 
ATOM      8  S   UNL     1       5.296   5.221   0.184  0.00  0.00    -0.115 S 
ATOM      9  C   UNL     1       4.120   6.514   0.184  0.00  0.00    +0.030 A 
ATOM     10  C   UNL     1       4.623   7.815   0.326  0.00  0.00    +0.016 A 
ATOM     11  C   UNL     1       3.796   8.912   0.336  0.00  0.00    +0.001 A 
ATOM     12  C   UNL     1       2.430   8.733   0.205  0.00  0.00    +0.002 A 
ATOM     13  C   UNL     1       1.921   7.465   0.068  0.00  0.00    +0.024 A 
ATOM     14  C   UNL     1       2.752   6.331   0.054  0.00  0.00    +0.045 A 
ATOM     15  N   UNL     1       2.089   5.144  -0.092  0.00  0.00    -0.316 N 
ATOM     16  C   UNL     1       1.134   1.673  -0.301  0.00  0.00    +0.258 C 
ATOM     17  O   UNL     1       2.178   1.109  -0.572  0.00  0.00    -0.270 OA
ATOM     18  N   UNL     1      -0.033   0.996  -0.276  0.00  0.00    -0.235 N 
ATOM     19  C   UNL     1      -1.190   1.606   0.017  0.00  0.00    +0.315 C 
ATOM     20  O   UNL     1      -2.207   0.940   0.018  0.00  0.00    -0.252 OA
ATOM     21  H   UNL     1       1.105   5.541  -0.383  0.00  0.00    +0.152 HD
ATOM     22  H   UNL     1      -0.048  -0.081  -0.497  0.00  0.00    +0.159 HD
ENDROOT
BRANCH   7  23
ATOM     23  C   UNL     1       5.650   2.804   1.284  0.00  0.00    -0.034 A 
ATOM     24  C   UNL     1       6.435   2.281   0.274  0.00  0.00    +0.006 A 
ATOM     25  C   UNL     1       7.440   1.381   0.575  0.00  0.00    +0.020 A 
ATOM     26  C   UNL     1       7.654   0.996   1.886  0.00  0.00    +0.041 A 
ATOM     27  C   UNL     1       6.864   1.515   2.896  0.00  0.00    +0.020 A 
ATOM     28  C   UNL     1       5.863   2.419   2.595  0.00  0.00    +0.006 A 
ATOM     29 CL   UNL     1       8.911  -0.140   2.264  0.00  0.00    -0.084 Cl
ENDBRANCH   7  23
BRANCH   1  30
ATOM     30  C   UNL     1      -2.598   3.479   0.624  0.00  0.00    +0.120 C 
BRANCH  30  31
ATOM     31  C   UNL     1      -3.258   3.974  -0.665  0.00  0.00    +0.047 C 
BRANCH  31  32
ATOM     32  C   UNL     1      -4.630   4.569  -0.339  0.00  0.00    +0.161 C 
BRANCH  32  34
ATOM     33  C   UNL     1      -6.539   5.608  -1.349  0.00  0.00    +0.193 C 
ATOM     34  O   UNL     1      -5.246   5.031  -1.543  0.00  0.00    -0.383 OA
ENDBRANCH  32  34
ENDBRANCH  31  32
ENDBRANCH  30  31
ENDBRANCH   1  30
TORSDOF 5
