REMARK  Name = ZINC08789034
REMARK  7 active torsions:
REMARK  status: ('A' for Active; 'I' for Inactive)
REMARK    1  A    between atoms: C_1  and  C_2
REMARK    2  A    between atoms: C_2  and  C_3
REMARK    3  A    between atoms: C_2  and  C_4
REMARK    4  A    between atoms: N_12  and  C_15
REMARK    5  A    between atoms: C_15  and  C_16
REMARK    6  A    between atoms: C_19  and  O_22
REMARK    7  A    between atoms: O_22  and  C_23
REMARK                            x       y       z     vdW  Elec       q    Type
REMARK                         _______ _______ _______ _____ _____    ______ ____
ROOT
ATOM      1  C   UNL     1      -7.499   2.952  -1.315  0.00  0.00    -0.055 C 
ATOM      2  C   UNL     1      -7.956   2.046  -0.152  0.00  0.00    +0.073 C 
ATOM      3  C   UNL     1      -7.966   2.972   1.096  0.00  0.00    +0.088 C 
ATOM      4  C   UNL     1      -6.891   2.378   1.977  0.00  0.00    +0.225 C 
ATOM      5  O   UNL     1      -6.573   2.794   3.071  0.00  0.00    -0.275 OA
ATOM      6  N   UNL     1      -6.343   1.324   1.362  0.00  0.00    -0.237 N 
ATOM      7  C   UNL     1      -6.865   1.047   0.162  0.00  0.00    +0.224 C 
ATOM      8  O   UNL     1      -6.518   0.138  -0.561  0.00  0.00    -0.275 OA
ATOM      9  C   UNL     1      -7.509   4.337   0.566  0.00  0.00    +0.050 C 
ATOM     10  C   UNL     1      -8.677   5.242   0.295  0.00  0.00    -0.026 A 
ATOM     11  C   UNL     1      -9.780   5.147  -0.524  0.00  0.00    +0.004 A 
ATOM     12  C   UNL     1     -10.707   6.174  -0.558  0.00  0.00    +0.002 A 
ATOM     13  C   UNL     1     -10.524   7.293   0.232  0.00  0.00    +0.022 A 
ATOM     14  C   UNL     1      -9.421   7.392   1.056  0.00  0.00    +0.062 A 
ATOM     15  C   UNL     1      -8.482   6.363   1.096  0.00  0.00    +0.054 A 
ATOM     16  N   UNL     1      -7.303   6.231   1.833  0.00  0.00    -0.285 N 
ATOM     17  C   UNL     1      -6.672   5.068   1.579  0.00  0.00    +0.211 C 
ATOM     18  O   UNL     1      -5.632   4.685   2.072  0.00  0.00    -0.277 OA
ATOM     19 CL   UNL     1      -9.202   8.803   2.044  0.00  0.00    -0.082 Cl
ATOM     20  H   UNL     1      -6.976   6.899   2.456  0.00  0.00    +0.155 HD
ATOM     21  N   UNL     1      -6.777   4.040  -0.653  0.00  0.00    +0.394 N 
ATOM     22  H   UNL     1      -6.748   4.868  -1.260  0.00  0.00    -0.083 HD
ATOM     23  H   UNL     1      -5.819   3.746  -0.429  0.00  0.00    -0.083 HD
ENDROOT
BRANCH   1  25
ATOM     24  C   UNL     1      -7.391   1.068  -2.953  0.00  0.00    +0.005 C 
ATOM     25  C   UNL     1      -6.588   2.176  -2.268  0.00  0.00    -0.031 C 
ATOM     26  C   UNL     1      -6.027   3.128  -3.327  0.00  0.00    +0.005 C 
ENDBRANCH   1  25
BRANCH   6  27
ATOM     27  C   UNL     1      -5.263   0.532   1.957  0.00  0.00    +0.151 C 
BRANCH  27  28
ATOM     28  C   UNL     1      -3.933   1.111   1.548  0.00  0.00    -0.029 A 
ATOM     29  C   UNL     1      -3.335   2.085   2.326  0.00  0.00    +0.009 A 
ATOM     30  C   UNL     1      -2.116   2.616   1.954  0.00  0.00    +0.046 A 
ATOM     31  C   UNL     1      -1.491   2.172   0.798  0.00  0.00    +0.120 A 
ATOM     32  C   UNL     1      -2.095   1.198   0.016  0.00  0.00    +0.046 A 
ATOM     33  C   UNL     1      -3.312   0.666   0.396  0.00  0.00    +0.009 A 
BRANCH  31  34
ATOM     34  O   UNL     1      -0.291   2.693   0.429  0.00  0.00    -0.495 OA
ATOM     35  C   UNL     1       0.294   2.188  -0.772  0.00  0.00    +0.277 C 
ENDBRANCH  31  34
ENDBRANCH  27  28
ENDBRANCH   6  27
TORSDOF 4
