REMARK  Name = ZINC21474333
REMARK  5 active torsions:
REMARK  status: ('A' for Active; 'I' for Inactive)
REMARK    1  A    between atoms: C_1  and  C_2
REMARK    2  A    between atoms: C_11  and  C_21
REMARK    3  A    between atoms: C_15  and  C_20
REMARK    4  A    between atoms: C_24  and  O_27
REMARK    5  A    between atoms: O_27  and  C_28
REMARK                            x       y       z     vdW  Elec       q    Type
REMARK                         _______ _______ _______ _____ _____    ______ ____
ROOT
ATOM      1  C   UNL     1      -1.889   5.078   0.166  0.00  0.00    +0.008 C 
ATOM      2  C   UNL     1      -0.775   4.089  -0.185  0.00  0.00    -0.009 C 
ATOM      3  C   UNL     1       0.486   4.431   0.614  0.00  0.00    +0.008 C 
ATOM      4  C   UNL     1       1.668   3.612   0.093  0.00  0.00    +0.037 C 
ATOM      5  C   UNL     1       1.277   2.137   0.080  0.00  0.00    -0.027 A 
ATOM      6  C   UNL     1      -0.019   1.767   0.120  0.00  0.00    -0.004 A 
ATOM      7  S   UNL     1       0.004  -0.005   0.087  0.00  0.00    -0.075 S 
ATOM      8  C   UNL     1       1.762  -0.248   0.017  0.00  0.00    +0.086 A 
ATOM      9  C   UNL     1       2.273   1.065   0.023  0.00  0.00    +0.017 A 
ATOM     10  C   UNL     1       3.691   1.181  -0.025  0.00  0.00    -0.003 A 
ATOM     11  C   UNL     1       4.469   0.023  -0.075  0.00  0.00    -0.020 A 
ATOM     12  C   UNL     1       3.861  -1.214  -0.082  0.00  0.00    +0.023 A 
ATOM     13  N   UNL     1       2.537  -1.305  -0.033  0.00  0.00    -0.352 N 
ATOM     14  C   UNL     1       4.642  -2.500  -0.153  0.00  0.00    +0.033 C 
ATOM     15  C   UNL     1       6.101  -2.265   0.231  0.00  0.00    +0.010 C 
ATOM     16  C   UNL     1       6.638  -1.092  -0.599  0.00  0.00    +0.005 C 
ATOM     17  C   UNL     1       5.966   0.190  -0.111  0.00  0.00    +0.037 C 
ATOM     18  C   UNL     1       4.026  -3.519   0.807  0.00  0.00    +0.014 C 
ATOM     19  C   UNL     1      -1.218   2.665   0.176  0.00  0.00    +0.046 C 
ATOM     20  H   UNL     1       2.095  -2.312  -0.036  0.00  0.00    +0.166 HD
ENDROOT
BRANCH  10  21
ATOM     21  C   UNL     1       4.333   2.515  -0.024  0.00  0.00    -0.017 A 
ATOM     22  C   UNL     1       4.260   3.328  -1.155  0.00  0.00    +0.012 A 
ATOM     23  C   UNL     1       4.855   4.572  -1.149  0.00  0.00    +0.046 A 
ATOM     24  C   UNL     1       5.536   5.011  -0.021  0.00  0.00    +0.120 A 
ATOM     25  C   UNL     1       5.616   4.202   1.105  0.00  0.00    +0.046 A 
ATOM     26  C   UNL     1       5.019   2.960   1.107  0.00  0.00    +0.012 A 
BRANCH  24  27
ATOM     27  O   UNL     1       6.126   6.235  -0.020  0.00  0.00    -0.495 OA
ATOM     28  C   UNL     1       6.005   7.015  -1.211  0.00  0.00    +0.277 C 
ENDBRANCH  24  27
ENDBRANCH  10  21
TORSDOF 2
