REMARK  Name = ZINC33635492
REMARK  8 active torsions:
REMARK  status: ('A' for Active; 'I' for Inactive)
REMARK    1  A    between atoms: C_3  and  O_27
REMARK    2  A    between atoms: C_6  and  C_7
REMARK    3  A    between atoms: C_7  and  C_8
REMARK    4  A    between atoms: C_8  and  C_10
REMARK    5  A    between atoms: C_8  and  N_26
REMARK    6  A    between atoms: C_12  and  C_15
REMARK    7  A    between atoms: N_17  and  C_18
REMARK    8  A    between atoms: C_18  and  C_19
REMARK                            x       y       z     vdW  Elec       q    Type
REMARK                         _______ _______ _______ _____ _____    ______ ____
ROOT
ATOM      1  C   UNL     1       1.167   5.897   5.199  0.00  0.00    +0.182 A 
ATOM      2  N   UNL     1       1.168   5.112   4.163  0.00  0.00    -0.210 NA
ATOM      3  C   UNL     1       1.147   5.881   3.040  0.00  0.00    +0.163 A 
ATOM      4  C   UNL     1       1.138   7.180   3.445  0.00  0.00    +0.230 A 
ATOM      5  O   UNL     1       1.145   7.172   4.787  0.00  0.00    -0.449 OA
ENDROOT
BRANCH   3   6
ATOM      6  C   UNL     1       1.140   5.397   1.648  0.00  0.00    +0.266 C 
ATOM      7  O   UNL     1       1.120   6.192   0.728  0.00  0.00    -0.268 OA
ATOM      8  N   UNL     1       1.156   4.073   1.394  0.00  0.00    -0.306 N 
ATOM      9  H   UNL     1       1.174   3.354   2.226  0.00  0.00    +0.149 HD
BRANCH   8  10
ATOM     10  C   UNL     1       1.150   3.592   0.010  0.00  0.00    +0.140 C 
BRANCH  10  11
ATOM     11  C   UNL     1       1.171   2.086   0.002  0.00  0.00    -0.030 A 
ATOM     12  C   UNL     1      -0.017   1.378   0.010  0.00  0.00    +0.006 A 
ATOM     13  C   UNL     1       0.002  -0.004   0.002  0.00  0.00    +0.015 A 
ATOM     14  C   UNL     1       1.209  -0.679  -0.013  0.00  0.00    +0.018 A 
ATOM     15  C   UNL     1       2.397   0.029  -0.021  0.00  0.00    +0.015 A 
ATOM     16  C   UNL     1       2.378   1.411  -0.013  0.00  0.00    +0.006 A 
ATOM     17 BR   UNL     1       1.236  -2.570  -0.023  0.00  0.00    -0.050 Br
ENDBRANCH  10  11
ENDBRANCH   8  10
ENDBRANCH   3   6
BRANCH   1  18
ATOM     18  C   UNL     1       1.186   5.444   6.636  0.00  0.00    +0.017 C 
BRANCH  18  19
ATOM     19  N   UNL     1       2.162   6.244   7.389  0.00  0.00    +0.386 N 
ATOM     20  H   UNL     1       3.161   6.112   6.949  0.00  0.00    -0.089 HD
ATOM     21  H   UNL     1       2.175   5.914   8.438  0.00  0.00    -0.089 HD
ATOM     22  H   UNL     1       1.878   7.306   7.342  0.00  0.00    -0.089 HD
ENDBRANCH  18  19
BRANCH  18  23
ATOM     23  C   UNL     1      -0.204   5.628   7.247  0.00  0.00    +0.028 C 
BRANCH  23  29
ATOM     24  C   UNL     1      -0.562   3.739   8.850  0.00  0.00    +0.007 A 
ATOM     25  C   UNL     1      -0.569   3.217  10.129  0.00  0.00    +0.045 A 
ATOM     26  C   UNL     1      -0.242   4.025  11.208  0.00  0.00    +0.117 A 
ATOM     27  C   UNL     1       0.097   5.354  11.000  0.00  0.00    +0.045 A 
ATOM     28  C   UNL     1       0.108   5.870   9.719  0.00  0.00    +0.007 A 
ATOM     29  C   UNL     1      -0.218   5.063   8.644  0.00  0.00    -0.048 A 
BRANCH  26  30
ATOM     30  O   UNL     1      -0.255   3.515  12.468  0.00  0.00    -0.507 OA
ATOM     31  H   UNL     1       0.005   4.156  13.323  0.00  0.00    +0.292 HD
ENDBRANCH  26  30
ENDBRANCH  23  29
ENDBRANCH  18  23
ENDBRANCH   1  18
TORSDOF 8
