REMARK  Name = ZINC38573760
REMARK  8 active torsions:
REMARK  status: ('A' for Active; 'I' for Inactive)
REMARK    1  A    between atoms: C_1  and  C_2
REMARK    2  A    between atoms: C_2  and  C_4
REMARK    3  A    between atoms: C_2  and  N_21
REMARK    4  A    between atoms: C_22  and  C_24
REMARK    5  A    between atoms: C_24  and  C_25
REMARK    6  A    between atoms: C_25  and  C_26
REMARK    7  A    between atoms: C_29  and  O_32
REMARK    8  A    between atoms: O_32  and  C_33
REMARK                            x       y       z     vdW  Elec       q    Type
REMARK                         _______ _______ _______ _____ _____    ______ ____
ROOT
ATOM      1  C   UNL     1       0.609  -0.451  -1.303  0.00  0.00    +0.236 C 
ATOM      2  O   UNL     1       1.568  -1.194  -1.302  0.00  0.00    -0.274 OA
ATOM      3  N   UNL     1       0.088  -0.024  -2.470  0.00  0.00    -0.300 N 
ATOM      4  C   UNL     1      -0.997   0.967  -2.487  0.00  0.00    +0.106 C 
ATOM      5  C   UNL     1      -2.160   0.409  -3.314  0.00  0.00    +0.009 C 
ATOM      6  C   UNL     1      -1.650   0.007  -4.699  0.00  0.00    -0.037 C 
ATOM      7  C   UNL     1      -0.585  -1.081  -4.564  0.00  0.00    +0.009 C 
ATOM      8  C   UNL     1       0.598  -0.535  -3.749  0.00  0.00    +0.106 C 
ATOM      9  C   UNL     1      -2.814  -0.512  -5.544  0.00  0.00    +0.140 C 
ATOM     10  C   UNL     1      -3.750   0.679  -5.732  0.00  0.00    +0.042 C 
ATOM     11  N   UNL     1      -4.890   0.304  -5.300  0.00  0.00    -0.243 NA
ATOM     12  C   UNL     1      -4.838  -0.938  -4.760  0.00  0.00    +0.216 C 
ATOM     13  N   UNL     1      -3.644  -1.488  -4.838  0.00  0.00    -0.264 NA
ATOM     14  C   UNL     1      -3.240   2.010  -6.221  0.00  0.00    +0.034 C 
ATOM     15  C   UNL     1      -1.993   2.323  -5.373  0.00  0.00    -0.076 C 
ATOM     16  N   UNL     1      -1.075   1.181  -5.372  0.00  0.00    +0.385 N 
ATOM     17  H   UNL     1      -0.224   1.445  -4.900  0.00  0.00    -0.085 HD
ATOM     18  H   UNL     1      -0.856   0.937  -6.326  0.00  0.00    -0.085 HD
ENDROOT
BRANCH   1  20
ATOM     19  C   UNL     1       0.555   1.370   0.380  0.00  0.00    +0.038 C 
ATOM     20  C   UNL     1       0.001  -0.005   0.002  0.00  0.00    +0.156 C 
BRANCH  20  21
ATOM     21  N   UNL     1       0.335  -0.971   1.052  0.00  0.00    -0.304 N 
ATOM     22  C   UNL     1      -0.459  -1.092   2.134  0.00  0.00    +0.214 C 
ATOM     23  O   UNL     1      -1.450  -0.401   2.239  0.00  0.00    -0.276 OA
ATOM     24  H   UNL     1       1.128  -1.524   0.968  0.00  0.00    +0.149 HD
BRANCH  22  25
ATOM     25  C   UNL     1      -0.115  -2.085   3.214  0.00  0.00    +0.100 C 
BRANCH  25  26
ATOM     26  C   UNL     1      -1.170  -2.022   4.320  0.00  0.00    +0.044 C 
BRANCH  26  27
ATOM     27  C   UNL     1      -0.826  -3.015   5.400  0.00  0.00    -0.047 A 
ATOM     28  C   UNL     1      -1.308  -4.309   5.326  0.00  0.00    +0.007 A 
ATOM     29  C   UNL     1      -0.995  -5.221   6.314  0.00  0.00    +0.046 A 
ATOM     30  C   UNL     1      -0.196  -4.839   7.382  0.00  0.00    +0.120 A 
ATOM     31  C   UNL     1       0.287  -3.540   7.454  0.00  0.00    +0.046 A 
ATOM     32  C   UNL     1      -0.025  -2.633   6.460  0.00  0.00    +0.007 A 
BRANCH  30  33
ATOM     33  O   UNL     1       0.113  -5.734   8.356  0.00  0.00    -0.495 OA
ATOM     34  C   UNL     1       0.941  -5.271   9.425  0.00  0.00    +0.277 C 
ENDBRANCH  30  33
ENDBRANCH  26  27
ENDBRANCH  25  26
ENDBRANCH  22  25
ENDBRANCH  20  21
ENDBRANCH   1  20
TORSDOF 6
