REMARK  Name = ZINC39675502
REMARK  11 active torsions:
REMARK  status: ('A' for Active; 'I' for Inactive)
REMARK    1  A    between atoms: C_1  and  C_2
REMARK    2  A    between atoms: C_6  and  C_8
REMARK    3  A    between atoms: C_8  and  C_9
REMARK    4  A    between atoms: C_13  and  C_22
REMARK    5  A    between atoms: N_24  and  C_25
REMARK    6  A    between atoms: C_25  and  C_27
REMARK    7  A    between atoms: C_25  and  C_28
REMARK    8  A    between atoms: C_28  and  C_29
REMARK    9  A    between atoms: C_29  and  C_30
REMARK   10  A    between atoms: C_33  and  O_36
REMARK   11  A    between atoms: O_36  and  C_37
REMARK                            x       y       z     vdW  Elec       q    Type
REMARK                         _______ _______ _______ _____ _____    ______ ____
ROOT
ATOM      1  C   UNL     1       1.614  -3.060   2.943  0.00  0.00    +0.220 C 
ATOM      2  O   UNL     1       2.544  -2.700   2.252  0.00  0.00    -0.275 OA
ATOM      3  N   UNL     1       1.845  -3.754   4.075  0.00  0.00    -0.300 N 
ATOM      4  C   UNL     1       0.848  -4.280   5.037  0.00  0.00    +0.121 C 
ATOM      5  C   UNL     1       1.397  -5.665   5.449  0.00  0.00    +0.100 C 
ATOM      6  C   UNL     1       2.910  -5.581   5.188  0.00  0.00    -0.004 C 
ATOM      7  C   UNL     1       3.153  -4.168   4.636  0.00  0.00    +0.115 C 
ATOM      8  C   UNL     1       3.683  -5.782   6.488  0.00  0.00    -0.010 C 
ATOM      9  C   UNL     1       5.185  -5.752   6.193  0.00  0.00    -0.082 C 
ATOM     10  N   UNL     1       5.519  -6.811   5.234  0.00  0.00    +0.379 N 
ATOM     11  C   UNL     1       4.843  -6.560   3.955  0.00  0.00    -0.082 C 
ATOM     12  C   UNL     1       3.327  -6.624   4.155  0.00  0.00    -0.010 C 
ATOM     13  H   UNL     1       6.517  -6.829   5.088  0.00  0.00    -0.086 HD
ATOM     14  H   UNL     1       5.219  -7.702   5.601  0.00  0.00    -0.086 HD
ENDROOT
BRANCH   5  15
ATOM     15  C   UNL     1       1.128  -5.922   6.909  0.00  0.00    +0.218 C 
ATOM     16  O   UNL     1       1.099  -4.997   7.693  0.00  0.00    -0.275 OA
ATOM     17  N   UNL     1       0.919  -7.181   7.345  0.00  0.00    -0.312 N 
ATOM     18  H   UNL     1       0.942  -7.921   6.718  0.00  0.00    +0.149 HD
BRANCH  17  19
ATOM     19  C   UNL     1       0.657  -7.431   8.764  0.00  0.00    +0.070 C 
ATOM     20  C   UNL     1      -0.834  -7.242   9.049  0.00  0.00    +0.028 C 
BRANCH  19  21
ATOM     21  C   UNL     1       1.065  -8.864   9.113  0.00  0.00    +0.026 C 
BRANCH  21  22
ATOM     22  C   UNL     1       2.579  -9.018   8.947  0.00  0.00    +0.037 C 
BRANCH  22  23
ATOM     23  C   UNL     1       2.980 -10.429   9.291  0.00  0.00    -0.047 A 
ATOM     24  C   UNL     1       3.317 -10.753  10.592  0.00  0.00    +0.007 A 
ATOM     25  C   UNL     1       3.686 -12.046  10.910  0.00  0.00    +0.046 A 
ATOM     26  C   UNL     1       3.719 -13.019   9.922  0.00  0.00    +0.120 A 
ATOM     27  C   UNL     1       3.380 -12.692   8.617  0.00  0.00    +0.046 A 
ATOM     28  C   UNL     1       3.006 -11.399   8.306  0.00  0.00    +0.007 A 
BRANCH  26  29
ATOM     29  O   UNL     1       4.082 -14.292  10.232  0.00  0.00    -0.495 OA
ATOM     30  C   UNL     1       4.093 -15.242   9.164  0.00  0.00    +0.277 C 
ENDBRANCH  26  29
ENDBRANCH  22  23
ENDBRANCH  21  22
ENDBRANCH  19  21
ENDBRANCH  17  19
ENDBRANCH   5  15
BRANCH   1  31
ATOM     31  C   UNL     1       0.201  -2.732   2.535  0.00  0.00    +0.131 C 
BRANCH  31  37
ATOM     32  C   UNL     1       0.374   1.641   0.107  0.00  0.00    +0.044 C 
ATOM     33  C   UNL     1       0.300   0.136   0.082  0.00  0.00    -0.050 A 
ATOM     34  C   UNL     1       0.248  -0.533  -1.127  0.00  0.00    +0.003 A 
ATOM     35  C   UNL     1       0.181  -1.914  -1.150  0.00  0.00    +0.001 A 
ATOM     36  C   UNL     1       0.165  -2.625   0.035  0.00  0.00    +0.004 A 
ATOM     37  C   UNL     1       0.218  -1.956   1.243  0.00  0.00    -0.038 A 
ATOM     38  C   UNL     1       0.290  -0.576   1.267  0.00  0.00    +0.007 A 
ENDBRANCH  31  37
ENDBRANCH   1  31
TORSDOF 8
