REMARK  Name = ZINC12454206
REMARK  13 active torsions:
REMARK  status: ('A' for Active; 'I' for Inactive)
REMARK    1  A    between atoms: C_1  and  C_2
REMARK    2  A    between atoms: C_3  and  C_36
REMARK    3  A    between atoms: C_11  and  C_12
REMARK    4  A    between atoms: N_14  and  C_15
REMARK    5  A    between atoms: C_18  and  C_32
REMARK    6  A    between atoms: C_21  and  C_22
REMARK    7  A    between atoms: C_21  and  N_73
REMARK    8  A    between atoms: C_22  and  C_23
REMARK    9  A    between atoms: C_24  and  C_31
REMARK   10  A    between atoms: C_28  and  C_29
REMARK   11  A    between atoms: C_28  and  C_30
REMARK   12  A    between atoms: C_32  and  O_34
REMARK   13  A    between atoms: O_34  and  C_35
REMARK                            x       y       z     vdW  Elec       q    Type
REMARK                         _______ _______ _______ _____ _____    ______ ____
ROOT
ATOM      1  C   UNL     1       2.969   2.946  -1.438  0.00  0.00    +0.056 C 
ATOM      2  C   UNL     1       1.438   2.765  -1.323  0.00  0.00    +0.016 C 
ATOM      3  C   UNL     1       1.280   1.975   0.000  0.00  0.00    +0.044 C 
ATOM      4  C   UNL     1       3.572   1.830  -0.564  0.00  0.00    -0.055 C 
ATOM      5  N   UNL     1       2.435   1.070  -0.034  0.00  0.00    +0.390 N 
ATOM      6  H   UNL     1       2.232   0.274  -0.650  0.00  0.00    -0.081 HD
ENDROOT
BRANCH   1   9
ATOM      7  C   UNL     1       4.531   4.812  -1.322  0.00  0.00    +0.246 C 
ATOM      8  O   UNL     1       5.253   4.218  -2.099  0.00  0.00    -0.270 OA
ATOM      9  N   UNL     1       3.365   4.261  -0.929  0.00  0.00    -0.310 N 
ATOM     10  H   UNL     1       2.789   4.735  -0.309  0.00  0.00    +0.149 HD
BRANCH   7  21
ATOM     11  C   UNL     1       8.611   9.549  -1.100  0.00  0.00    +0.046 C 
ATOM     12  C   UNL     1       7.801   8.298  -1.321  0.00  0.00    -0.022 A 
ATOM     13  C   UNL     1       8.128   7.262  -2.109  0.00  0.00    +0.017 A 
ATOM     14  N   UNL     1       7.147   6.309  -2.057  0.00  0.00    -0.357 N 
ATOM     15  H   UNL     1       7.160   5.469  -2.542  0.00  0.00    +0.166 HD
ATOM     16  C   UNL     1       6.146   6.713  -1.211  0.00  0.00    +0.059 A 
ATOM     17  C   UNL     1       6.505   7.979  -0.715  0.00  0.00    +0.004 A 
ATOM     18  C   UNL     1       5.662   8.645   0.175  0.00  0.00    +0.010 A 
ATOM     19  C   UNL     1       4.473   8.064   0.565  0.00  0.00    +0.001 A 
ATOM     20  C   UNL     1       4.105   6.822   0.081  0.00  0.00    +0.015 A 
ATOM     21  C   UNL     1       4.930   6.137  -0.809  0.00  0.00    +0.061 A 
ATOM     22  C   UNL     1       9.388   7.164  -2.930  0.00  0.00    +0.063 C 
ENDBRANCH   7  21
ENDBRANCH   1   9
BRANCH   3  23
ATOM     23  C   UNL     1      -0.014   1.204   0.009  0.00  0.00    +0.293 C 
ATOM     24  O   UNL     1       0.002  -0.004   0.002  0.00  0.00    -0.253 OA
BRANCH  23  25
ATOM     25  O   UNL     1      -1.186   1.859   0.018  0.00  0.00    -0.469 OA
ATOM     26  C   UNL     1      -2.393   1.052   0.019  0.00  0.00    +0.280 C 
ENDBRANCH  23  25
ENDBRANCH   3  23
BRANCH   5  27
ATOM     27  C   UNL     1       2.745   0.562   1.337  0.00  0.00    -0.073 C 
BRANCH  27  28
ATOM     28  C   UNL     1       3.773  -0.568   1.252  0.00  0.00    +0.013 C 
BRANCH  28  29
ATOM     29  C   UNL     1       4.084  -1.068   2.640  0.00  0.00    -0.067 C 
ATOM     30  C   UNL     1       3.430  -2.097   3.075  0.00  0.00    -0.073 C 
ATOM     31  C   UNL     1       3.622  -2.702   4.435  0.00  0.00    +0.030 C 
ATOM     32  C   UNL     1       4.945  -2.228   5.040  0.00  0.00    +0.005 C 
ATOM     33  C   UNL     1       5.017  -0.701   4.913  0.00  0.00    +0.011 C 
ATOM     34  C   UNL     1       5.138  -0.347   3.428  0.00  0.00    -0.014 C 
ATOM     35  C   UNL     1       6.521  -0.753   2.916  0.00  0.00    +0.015 C 
ATOM     36  C   UNL     1       4.958   1.162   3.252  0.00  0.00    +0.015 C 
ATOM     37  C   UNL     1       2.411  -2.725   2.160  0.00  0.00    +0.039 C 
ENDBRANCH  28  29
ENDBRANCH  27  28
ENDBRANCH   5  27
TORSDOF 7
