REMARK  Name = ZINC39659593
REMARK  10 active torsions:
REMARK  status: ('A' for Active; 'I' for Inactive)
REMARK    1  A    between atoms: C_1  and  C_2
REMARK    2  A    between atoms: C_2  and  C_35
REMARK    3  A    between atoms: C_5  and  C_8
REMARK    4  A    between atoms: C_8  and  N_9
REMARK    5  A    between atoms: C_10  and  C_12
REMARK    6  A    between atoms: C_23  and  C_25
REMARK    7  A    between atoms: C_27  and  O_33
REMARK    8  A    between atoms: C_30  and  O_31
REMARK    9  A    between atoms: O_31  and  C_32
REMARK   10  A    between atoms: O_33  and  C_34
REMARK                            x       y       z     vdW  Elec       q    Type
REMARK                         _______ _______ _______ _____ _____    ______ ____
ROOT
ATOM      1  C   UNL     1       3.743  -1.474   5.255  0.00  0.00    +0.100 C 
ATOM      2  C   UNL     1       4.787  -0.335   5.244  0.00  0.00    +0.121 C 
ATOM      3  N   UNL     1       5.551  -0.515   6.500  0.00  0.00    -0.296 N 
ATOM      4  C   UNL     1       5.702  -1.984   6.633  0.00  0.00    +0.115 C 
ATOM      5  C   UNL     1       4.347  -2.555   6.168  0.00  0.00    -0.004 C 
ATOM      6  C   UNL     1       4.561  -3.848   5.386  0.00  0.00    -0.010 C 
ATOM      7  C   UNL     1       5.108  -4.924   6.328  0.00  0.00    -0.082 C 
ATOM      8  N   UNL     1       4.159  -5.144   7.426  0.00  0.00    +0.379 N 
ATOM      9  C   UNL     1       4.030  -3.921   8.229  0.00  0.00    -0.082 C 
ATOM     10  C   UNL     1       3.438  -2.803   7.367  0.00  0.00    -0.010 C 
ATOM     11  C   UNL     1       6.006   0.441   7.335  0.00  0.00    +0.250 C 
ATOM     12  O   UNL     1       5.717   1.605   7.140  0.00  0.00    -0.270 OA
ATOM     13  H   UNL     1       3.258  -5.391   7.045  0.00  0.00    -0.086 HD
ATOM     14  H   UNL     1       4.492  -5.895   8.011  0.00  0.00    -0.086 HD
ENDROOT
BRANCH  11  15
ATOM     15  C   UNL     1       6.855   0.073   8.484  0.00  0.00    +0.082 A 
ATOM     16  C   UNL     1       7.767  -0.979   8.375  0.00  0.00    +0.062 A 
ATOM     17  C   UNL     1       8.560  -1.317   9.456  0.00  0.00    +0.121 A 
ATOM     18  C   UNL     1       8.451  -0.614  10.650  0.00  0.00    +0.049 A 
ATOM     19  C   UNL     1       7.553   0.427  10.766  0.00  0.00    +0.050 A 
ATOM     20  C   UNL     1       6.755   0.782   9.688  0.00  0.00    +0.132 A 
BRANCH  20  21
ATOM     21  O   UNL     1       5.875   1.810   9.802  0.00  0.00    -0.494 OA
ATOM     22  C   UNL     1       5.828   2.487  11.059  0.00  0.00    +0.277 C 
ENDBRANCH  20  21
BRANCH  17  23
ATOM     23  O   UNL     1       9.448  -2.342   9.352  0.00  0.00    -0.495 OA
ATOM     24  C   UNL     1      10.236  -2.638  10.507  0.00  0.00    +0.277 C 
ENDBRANCH  17  23
ENDBRANCH  11  15
BRANCH   1  26
ATOM     25  N   UNL     1       2.419  -2.697   3.561  0.00  0.00    -0.312 N 
ATOM     26  C   UNL     1       3.542  -2.015   3.863  0.00  0.00    +0.218 C 
ATOM     27  O   UNL     1       4.390  -1.838   3.015  0.00  0.00    -0.275 OA
ATOM     28  H   UNL     1       1.740  -2.839   4.239  0.00  0.00    +0.149 HD
BRANCH  25  29
ATOM     29  C   UNL     1       2.223  -3.223   2.208  0.00  0.00    +0.138 C 
BRANCH  29  34
ATOM     30  C   UNL     1      -1.425  -5.859   3.062  0.00  0.00    +0.074 C 
ATOM     31  C   UNL     1      -0.089  -6.011   2.331  0.00  0.00    +0.165 C 
ATOM     32  O   UNL     1      -0.248  -5.634   0.956  0.00  0.00    -0.347 OA
ATOM     33  C   UNL     1       0.635  -4.520   0.713  0.00  0.00    +0.196 C 
ATOM     34  C   UNL     1       0.878  -3.949   2.132  0.00  0.00    +0.164 C 
ATOM     35  O   UNL     1       0.893  -5.153   2.936  0.00  0.00    -0.342 OA
ATOM     36  C   UNL     1       0.378  -7.465   2.411  0.00  0.00    +0.074 C 
ENDBRANCH  29  34
ENDBRANCH  25  29
ENDBRANCH   1  26
TORSDOF 6
