REMARK  Name = ZINC05226647
REMARK  16 active torsions:
REMARK  status: ('A' for Active; 'I' for Inactive)
REMARK    1  A    between atoms: C_1  and  O_2
REMARK    2  A    between atoms: O_2  and  C_3
REMARK    3  A    between atoms: C_24  and  O_36
REMARK    4  A    between atoms: C_26  and  O_34
REMARK    5  A    between atoms: C_28  and  C_30
REMARK    6  A    between atoms: C_30  and  O_32
REMARK    7  A    between atoms: O_32  and  C_33
REMARK    8  A    between atoms: O_34  and  C_35
REMARK    9  A    between atoms: O_36  and  C_37
REMARK   10  A    between atoms: C_37  and  C_39
REMARK   11  A    between atoms: C_41  and  O_49
REMARK   12  A    between atoms: C_42  and  O_47
REMARK   13  A    between atoms: C_43  and  O_45
REMARK   14  A    between atoms: O_45  and  C_46
REMARK   15  A    between atoms: O_47  and  C_48
REMARK   16  A    between atoms: O_49  and  C_50
REMARK                            x       y       z     vdW  Elec       q    Type
REMARK                         _______ _______ _______ _____ _____    ______ ____
ROOT
ATOM      1  C   UNL     1       1.142   3.199   0.008  0.00  0.00    +0.122 A 
ATOM      2  C   UNL     1       1.147   1.809   0.001  0.00  0.00    +0.046 A 
ATOM      3  C   UNL     1      -0.013   1.076   0.008  0.00  0.00    +0.014 A 
ATOM      4  C   UNL     1      -1.215   1.790   0.017  0.00  0.00    +0.003 A 
ATOM      5  C   UNL     1      -1.229   3.210   0.031  0.00  0.00    +0.050 A 
ATOM      6  C   UNL     1      -0.038   3.932   0.023  0.00  0.00    +0.071 A 
ATOM      7  N   UNL     1      -2.537   3.604   0.046  0.00  0.00    -0.359 N 
ATOM      8  H   UNL     1      -2.841   4.525   0.053  0.00  0.00    +0.166 HD
ATOM      9  C   UNL     1      -3.352   2.504   0.051  0.00  0.00    +0.007 A 
ATOM     10  C   UNL     1      -2.602   1.379   0.036  0.00  0.00    -0.022 A 
ATOM     11  C   UNL     1      -3.185  -0.012   0.034  0.00  0.00    +0.019 C 
ATOM     12  C   UNL     1      -4.661   0.086   0.442  0.00  0.00    -0.073 C 
ATOM     13  C   UNL     1      -4.860   2.480   0.072  0.00  0.00    -0.020 C 
ATOM     14  C   UNL     1      -5.413   3.525  -0.901  0.00  0.00    -0.005 C 
ATOM     15  C   UNL     1      -6.942   3.459  -0.876  0.00  0.00    +0.006 C 
ATOM     16  C   UNL     1      -7.393   2.045  -1.250  0.00  0.00    -0.020 C 
ATOM     17  C   UNL     1      -6.778   1.040  -0.275  0.00  0.00    -0.074 C 
ATOM     18  C   UNL     1      -8.919   1.970  -1.187  0.00  0.00    +0.049 C 
ATOM     19  C   UNL     1      -9.516   2.970  -2.180  0.00  0.00    +0.206 C 
ATOM     20  C   UNL     1      -9.055   4.385  -1.826  0.00  0.00    +0.172 C 
ATOM     21  C   UNL     1      -7.526   4.457  -1.877  0.00  0.00    +0.133 C 
ATOM     22  N   UNL     1      -5.306   1.142  -0.375  0.00  0.00    +0.386 N 
ATOM     23  H   UNL     1      -5.032   1.013  -1.356  0.00  0.00    -0.081 HD
ENDROOT
BRANCH   1  25
ATOM     24  C   UNL     1       3.516   3.067  -0.015  0.00  0.00    +0.277 C 
ATOM     25  O   UNL     1       2.328   3.862   0.000  0.00  0.00    -0.495 OA
ENDBRANCH   1  25
BRANCH  21  26
ATOM     26  C   UNL     1      -7.076   5.850  -1.520  0.00  0.00    +0.313 C 
ATOM     27  O   UNL     1      -6.360   6.027  -0.562  0.00  0.00    -0.250 OA
BRANCH  26  28
ATOM     28  O   UNL     1      -7.469   6.894  -2.265  0.00  0.00    -0.468 OA
ATOM     29  C   UNL     1      -6.997   8.207  -1.863  0.00  0.00    +0.280 C 
ENDBRANCH  26  28
ENDBRANCH  21  26
BRANCH  20  30
ATOM     30  O   UNL     1      -9.606   5.313  -2.762  0.00  0.00    -0.375 OA
ATOM     31  C   UNL     1     -10.879   5.837  -2.380  0.00  0.00    +0.194 C 
ENDBRANCH  20  30
BRANCH  19  32
ATOM     32  O   UNL     1     -10.965   2.905  -2.120  0.00  0.00    -0.455 OA
BRANCH  32  33
ATOM     33  C   UNL     1     -11.573   2.030  -2.944  0.00  0.00    +0.340 C 
ATOM     34  O   UNL     1     -10.910   1.339  -3.693  0.00  0.00    -0.245 OA
BRANCH  33  35
ATOM     35  C   UNL     1     -13.043   1.909  -2.938  0.00  0.00    +0.066 A 
ATOM     36  C   UNL     1     -13.806   2.699  -2.073  0.00  0.00    +0.064 A 
ATOM     37  C   UNL     1     -15.184   2.587  -2.073  0.00  0.00    +0.166 A 
ATOM     38  C   UNL     1     -15.810   1.682  -2.925  0.00  0.00    +0.204 A 
ATOM     39  C   UNL     1     -15.052   0.890  -3.784  0.00  0.00    +0.166 A 
ATOM     40  C   UNL     1     -13.674   1.001  -3.792  0.00  0.00    +0.064 A 
BRANCH  39  41
ATOM     41  O   UNL     1     -15.667   0.007  -4.615  0.00  0.00    -0.491 OA
ATOM     42  C   UNL     1     -14.828  -0.772  -5.470  0.00  0.00    +0.277 C 
ENDBRANCH  39  41
BRANCH  38  43
ATOM     43  O   UNL     1     -17.165   1.571  -2.920  0.00  0.00    -0.488 OA
ATOM     44  C   UNL     1     -17.734   0.618  -2.019  0.00  0.00    +0.277 C 
ENDBRANCH  38  43
BRANCH  37  45
ATOM     45  O   UNL     1     -15.927   3.359  -1.236  0.00  0.00    -0.491 OA
ATOM     46  C   UNL     1     -15.219   4.266  -0.389  0.00  0.00    +0.277 C 
ENDBRANCH  37  45
ENDBRANCH  33  35
ENDBRANCH  32  33
ENDBRANCH  19  32
TORSDOF 10
