REMARK  Name = ZINC20759228
REMARK  8 active torsions:
REMARK  status: ('A' for Active; 'I' for Inactive)
REMARK    1  A    between atoms: C_1  and  C_2
REMARK    2  A    between atoms: C_5  and  C_8
REMARK    3  A    between atoms: N_10  and  C_11
REMARK    4  A    between atoms: C_11  and  C_13
REMARK    5  A    between atoms: C_11  and  C_17
REMARK    6  A    between atoms: C_13  and  C_14
REMARK    7  A    between atoms: C_14  and  S_15
REMARK    8  A    between atoms: S_15  and  C_16
REMARK                            x       y       z     vdW  Elec       q    Type
REMARK                         _______ _______ _______ _____ _____    ______ ____
ROOT
ATOM      1  C   UNL     1      -0.485  -6.814   2.463  0.00  0.00    +0.236 C 
ATOM      2  O   UNL     1      -0.945  -5.977   3.211  0.00  0.00    -0.274 OA
ATOM      3  N   UNL     1      -0.489  -8.113   2.821  0.00  0.00    -0.300 N 
ATOM      4  C   UNL     1       0.169  -9.123   1.981  0.00  0.00    +0.110 C 
ATOM      5  C   UNL     1      -0.838 -10.233   1.666  0.00  0.00    +0.047 C 
ATOM      6  C   UNL     1      -1.415 -10.779   2.972  0.00  0.00    +0.064 C 
ATOM      7  C   UNL     1      -2.143  -9.664   3.722  0.00  0.00    +0.047 C 
ATOM      8  C   UNL     1      -1.146  -8.545   4.062  0.00  0.00    +0.110 C 
ATOM      9  C   UNL     1      -2.376 -11.901   2.672  0.00  0.00    +0.057 A 
ATOM     10  C   UNL     1      -2.064 -13.207   2.840  0.00  0.00    +0.039 A 
ATOM     11  N   UNL     1      -3.156 -13.929   2.478  0.00  0.00    -0.349 N 
ATOM     12  H   UNL     1      -3.240 -14.896   2.490  0.00  0.00    +0.166 HD
ATOM     13  C   UNL     1      -4.107 -13.044   2.097  0.00  0.00    +0.171 A 
ATOM     14  N   UNL     1      -3.628 -11.832   2.218  0.00  0.00    -0.348 N 
ATOM     15  C   UNL     1      -0.725 -13.685   3.338  0.00  0.00    +0.070 C 
ATOM     16  C   UNL     1       0.266 -12.518   3.222  0.00  0.00    +0.088 C 
ATOM     17  N   UNL     1      -0.327 -11.307   3.809  0.00  0.00    -0.305 NA
ATOM     18  H   UNL     1       0.378 -10.603   3.974  0.00  0.00    +0.123 HD
ATOM     19  H   UNL     1      -4.106 -11.015   2.010  0.00  0.00    +0.166 HD
ENDROOT
BRANCH   1  20
ATOM     20  C   UNL     1       0.091  -6.400   1.133  0.00  0.00    +0.160 C 
BRANCH  20  23
ATOM     21  C   UNL     1      -0.544  -4.786  -0.578  0.00  0.00    +0.245 C 
ATOM     22  O   UNL     1      -0.112  -5.550  -1.418  0.00  0.00    -0.270 OA
ATOM     23  N   UNL     1      -0.489  -5.118   0.727  0.00  0.00    -0.300 N 
ATOM     24  H   UNL     1      -0.834  -4.508   1.398  0.00  0.00    +0.150 HD
BRANCH  21  29
ATOM     25  C   UNL     1      -2.825   0.251  -2.173  0.00  0.00    +0.044 C 
ATOM     26  C   UNL     1      -2.227  -1.068  -1.755  0.00  0.00    -0.050 A 
ATOM     27  C   UNL     1      -1.736  -1.936  -2.714  0.00  0.00    +0.004 A 
ATOM     28  C   UNL     1      -1.187  -3.145  -2.338  0.00  0.00    +0.013 A 
ATOM     29  C   UNL     1      -1.129  -3.491  -0.988  0.00  0.00    +0.037 A 
ATOM     30  C   UNL     1      -1.627  -2.611  -0.025  0.00  0.00    +0.013 A 
ATOM     31  C   UNL     1      -2.168  -1.403  -0.414  0.00  0.00    +0.004 A 
ENDBRANCH  21  29
ENDBRANCH  20  23
BRANCH  20  32
ATOM     32  C   UNL     1       1.609  -6.256   1.257  0.00  0.00    +0.042 C 
BRANCH  32  33
ATOM     33  C   UNL     1       2.209  -5.976  -0.122  0.00  0.00    +0.071 C 
BRANCH  33  34
ATOM     34  S   UNL     1       4.009  -5.805   0.025  0.00  0.00    -0.164 S 
ATOM     35  C   UNL     1       4.559  -5.480  -1.673  0.00  0.00    +0.084 C 
ENDBRANCH  33  34
ENDBRANCH  32  33
ENDBRANCH  20  32
ENDBRANCH   1  20
TORSDOF 6
