REMARK  Name = ZINC08923101
REMARK  7 active torsions:
REMARK  status: ('A' for Active; 'I' for Inactive)
REMARK    1  A    between atoms: C_1  and  C_2
REMARK    2  A    between atoms: C_5  and  C_9
REMARK    3  A    between atoms: C_12  and  C_14
REMARK    4  A    between atoms: C_25  and  C_26
REMARK    5  A    between atoms: C_25  and  C_27
REMARK    6  A    between atoms: C_25  and  N_54
REMARK    7  A    between atoms: C_28  and  O_30
REMARK                            x       y       z     vdW  Elec       q    Type
REMARK                         _______ _______ _______ _____ _____    ______ ____
ROOT
ATOM      1  C   UNL     1      -4.954   2.295   0.038  0.00  0.00    +0.260 C 
ATOM      2  N   UNL     1      -5.256   1.034  -0.665  0.00  0.00    -0.311 N 
ATOM      3  C   UNL     1      -5.343   1.107  -2.034  0.00  0.00    +0.080 A 
ATOM      4  C   UNL     1      -5.661   2.298  -2.701  0.00  0.00    +0.067 A 
ATOM      5  C   UNL     1      -5.705   2.219  -4.148  0.00  0.00    -0.027 A 
ATOM      6  C   UNL     1      -5.441   1.000  -4.678  0.00  0.00    -0.021 A 
ATOM      7  S   UNL     1      -5.131  -0.045  -3.280  0.00  0.00    -0.080 S 
ATOM      8  C   UNL     1      -5.425   0.646  -6.131  0.00  0.00    -0.035 C 
ATOM      9  C   UNL     1      -5.545   3.041  -6.477  0.00  0.00    -0.073 C 
ATOM     10  C   UNL     1      -6.021   3.395  -5.066  0.00  0.00    +0.018 C 
ATOM     11  C   UNL     1      -5.924   3.497  -1.862  0.00  0.00    +0.220 C 
ATOM     12  N   UNL     1      -5.607   3.433  -0.598  0.00  0.00    -0.220 NA
ATOM     13  H   UNL     1      -5.385   0.200  -0.187  0.00  0.00    +0.149 HD
ATOM     14  N   UNL     1      -6.109   1.734  -6.871  0.00  0.00    +0.384 N 
ATOM     15  H   UNL     1      -7.110   1.718  -6.639  0.00  0.00    -0.081 HD
ENDROOT
BRANCH   1  19
ATOM     16  C   UNL     1      -1.305   2.116   0.020  0.00  0.00    +0.135 A 
ATOM     17  C   UNL     1      -1.460   3.466   0.028  0.00  0.00    +0.050 A 
ATOM     18  C   UNL     1      -2.848   3.715   0.036  0.00  0.00    +0.049 A 
ATOM     19  C   UNL     1      -3.463   2.517   0.032  0.00  0.00    +0.148 A 
ATOM     20  O   UNL     1      -2.529   1.553   0.017  0.00  0.00    -0.456 OA
BRANCH  16  25
ATOM     21  C   UNL     1       3.712  -0.703  -0.037  0.00  0.00    +0.045 C 
ATOM     22  C   UNL     1       2.398   0.035  -0.020  0.00  0.00    -0.032 A 
ATOM     23  C   UNL     1       2.385   1.418  -0.013  0.00  0.00    +0.005 A 
ATOM     24  C   UNL     1       1.186   2.100   0.002  0.00  0.00    +0.012 A 
ATOM     25  C   UNL     1      -0.017   1.391   0.010  0.00  0.00    +0.019 A 
ATOM     26  C   UNL     1       0.002  -0.004   0.002  0.00  0.00    +0.031 A 
ATOM     27  C   UNL     1       1.209  -0.675  -0.013  0.00  0.00    +0.045 A 
ATOM     28 CL   UNL     1       1.236  -2.410  -0.023  0.00  0.00    -0.083 Cl
ENDBRANCH  16  25
ENDBRANCH   1  19
BRANCH  14  29
ATOM     29  C   UNL     1      -5.951   1.532  -8.328  0.00  0.00    -0.074 C 
ATOM     30  C   UNL     1      -6.521   0.164  -8.707  0.00  0.00    -0.014 C 
ATOM     31  C   UNL     1      -6.720   2.628  -9.068  0.00  0.00    -0.014 C 
ENDBRANCH  14  29
BRANCH  11  32
ATOM     32  O   UNL     1      -6.473   4.615  -2.391  0.00  0.00    -0.492 OA
ATOM     33  H   UNL     1      -6.598   5.331  -1.754  0.00  0.00    +0.294 HD
ENDBRANCH  11  32
TORSDOF 4
