REMARK  Name = ZINC08789787
REMARK  7 active torsions:
REMARK  status: ('A' for Active; 'I' for Inactive)
REMARK    1  A    between atoms: C_1  and  C_2
REMARK    2  A    between atoms: C_2  and  C_3
REMARK    3  A    between atoms: C_3  and  C_4
REMARK    4  A    between atoms: C_4  and  C_5
REMARK    5  A    between atoms: C_8  and  N_11
REMARK    6  A    between atoms: C_16  and  C_33
REMARK    7  A    between atoms: C_33  and  C_34
REMARK                            x       y       z     vdW  Elec       q    Type
REMARK                         _______ _______ _______ _____ _____    ______ ____
ROOT
ATOM      1  N   UNL     1       1.903  -0.237  -5.902  0.00  0.00    -0.210 N 
ATOM      2  C   UNL     1       1.678  -1.443  -6.437  0.00  0.00    +0.228 C 
ATOM      3  O   UNL     1       0.902  -2.267  -6.004  0.00  0.00    -0.275 OA
ATOM      4  C   UNL     1       2.539  -1.615  -7.668  0.00  0.00    +0.074 C 
ATOM      5  C   UNL     1       3.618  -2.682  -7.380  0.00  0.00    -0.049 C 
ATOM      6  C   UNL     1       4.785  -0.663  -7.531  0.00  0.00    +0.050 C 
ATOM      7  C   UNL     1       3.319  -0.273  -7.749  0.00  0.00    +0.088 C 
ATOM      8  C   UNL     1       2.810   0.499  -6.554  0.00  0.00    +0.229 C 
ATOM      9  O   UNL     1       3.168   1.613  -6.236  0.00  0.00    -0.275 OA
ATOM     10  C   UNL     1       5.709   0.179  -8.365  0.00  0.00    -0.026 A 
ATOM     11  C   UNL     1       5.830   0.397  -9.719  0.00  0.00    +0.024 A 
ATOM     12  C   UNL     1       6.807   1.253 -10.198  0.00  0.00    +0.041 A 
ATOM     13  C   UNL     1       7.660   1.888  -9.313  0.00  0.00    +0.022 A 
ATOM     14  C   UNL     1       7.543   1.671  -7.956  0.00  0.00    +0.025 A 
ATOM     15  C   UNL     1       6.562   0.812  -7.465  0.00  0.00    +0.036 A 
ATOM     16  N   UNL     1       6.247   0.438  -6.157  0.00  0.00    -0.286 N 
ATOM     17  C   UNL     1       5.214  -0.424  -6.109  0.00  0.00    +0.211 C 
ATOM     18  O   UNL     1       4.724  -0.914  -5.114  0.00  0.00    -0.277 OA
ATOM     19 CL   UNL     1       6.960   1.530 -11.905  0.00  0.00    -0.084 Cl
ATOM     20  H   UNL     1       6.718   0.763  -5.373  0.00  0.00    +0.155 HD
ATOM     21  N   UNL     1       4.856  -2.073  -7.872  0.00  0.00    +0.394 N 
ATOM     22  H   UNL     1       4.928  -2.189  -8.890  0.00  0.00    -0.083 HD
ATOM     23  H   UNL     1       5.669  -2.508  -7.420  0.00  0.00    -0.083 HD
ENDROOT
BRANCH   1  27
ATOM     24  C   UNL     1      -0.049   1.107  -2.472  0.00  0.00    -0.047 A 
ATOM     25  C   UNL     1       0.846   0.055  -2.390  0.00  0.00    +0.005 A 
ATOM     26  C   UNL     1       1.490  -0.396  -3.525  0.00  0.00    +0.024 A 
ATOM     27  C   UNL     1       1.247   0.215  -4.748  0.00  0.00    +0.044 A 
ATOM     28  C   UNL     1       0.353   1.274  -4.827  0.00  0.00    +0.024 A 
ATOM     29  C   UNL     1      -0.293   1.717  -3.689  0.00  0.00    +0.005 A 
BRANCH  24  30
ATOM     30  C   UNL     1      -0.754   1.593  -1.232  0.00  0.00    +0.035 C 
BRANCH  30  31
ATOM     31  C   UNL     1      -2.069   0.830  -1.062  0.00  0.00    +0.004 C 
BRANCH  31  33
ATOM     32  C   UNL     1      -4.101   0.560   0.368  0.00  0.00    +0.004 C 
ATOM     33  C   UNL     1      -2.785   1.323   0.197  0.00  0.00    -0.003 C 
ENDBRANCH  31  33
ENDBRANCH  30  31
ENDBRANCH  24  30
ENDBRANCH   1  27
BRANCH   5  34
ATOM     34  C   UNL     1       3.297  -3.978  -8.126  0.00  0.00    +0.080 C 
BRANCH  34  35
ATOM     35  C   UNL     1       4.291  -5.041  -7.736  0.00  0.00    +0.209 C 
ATOM     36  O   UNL     1       5.170  -4.787  -6.940  0.00  0.00    -0.276 OA
ATOM     37  N   UNL     1       4.204  -6.275  -8.273  0.00  0.00    -0.329 N 
ATOM     38  H   UNL     1       3.502  -6.478  -8.910  0.00  0.00    +0.145 HD
ATOM     39  H   UNL     1       4.844  -6.959  -8.022  0.00  0.00    +0.145 HD
ENDBRANCH  34  35
ENDBRANCH   5  34
TORSDOF 6
