REMARK  Name = ZINC39976471
REMARK  6 active torsions:
REMARK  status: ('A' for Active; 'I' for Inactive)
REMARK    1  A    between atoms: C_1  and  C_2
REMARK    2  A    between atoms: N_4  and  C_5
REMARK    3  A    between atoms: C_8  and  S_11
REMARK    4  A    between atoms: S_11  and  N_14
REMARK    5  A    between atoms: C_16  and  N_26
REMARK    6  A    between atoms: N_26  and  C_27
REMARK                            x       y       z     vdW  Elec       q    Type
REMARK                         _______ _______ _______ _____ _____    ______ ____
ROOT
ATOM      1  N   UNL     1      -1.083  -7.164   1.805  0.00  0.00    -0.110 NA
ATOM      2  C   UNL     1      -0.921  -8.365   2.279  0.00  0.00    +0.192 C 
ATOM      3  C   UNL     1      -0.860  -8.598   3.771  0.00  0.00    +0.237 C 
ATOM      4  N   UNL     1      -0.676  -9.980   4.244  0.00  0.00    -0.359 N 
ATOM      5  C   UNL     1      -0.576 -10.931   3.358  0.00  0.00    +0.063 A 
ATOM      6  C   UNL     1      -0.391 -12.329   3.778  0.00  0.00    +0.027 A 
ATOM      7  C   UNL     1      -0.291 -13.287   2.831  0.00  0.00    +0.002 A 
ATOM      8  C   UNL     1      -0.359 -12.983   1.462  0.00  0.00    +0.002 A 
ATOM      9  C   UNL     1      -0.527 -11.725   1.000  0.00  0.00    +0.030 A 
ATOM     10  C   UNL     1      -0.644 -10.639   1.905  0.00  0.00    +0.089 A 
ATOM     11  N   UNL     1      -0.812  -9.415   1.450  0.00  0.00    -0.226 NA
ATOM     12  H   UNL     1      -0.630 -10.178   5.192  0.00  0.00    +0.162 HD
ENDROOT
BRANCH   1  13
ATOM     13  S   UNL     1      -1.156  -6.923   0.168  0.00  0.00    +0.100 S 
ATOM     14  O   UNL     1      -2.344  -7.558  -0.284  0.00  0.00    -0.146 OA
ATOM     15  O   UNL     1       0.127  -7.251  -0.348  0.00  0.00    -0.146 OA
BRANCH  13  19
ATOM     16  C   UNL     1      -1.725  -2.481  -0.507  0.00  0.00    +0.033 A 
ATOM     17  C   UNL     1      -0.446  -3.016  -0.434  0.00  0.00    +0.025 A 
ATOM     18  C   UNL     1      -0.275  -4.371  -0.228  0.00  0.00    +0.031 A 
ATOM     19  C   UNL     1      -1.377  -5.195  -0.094  0.00  0.00    +0.113 A 
ATOM     20  C   UNL     1      -2.653  -4.666  -0.167  0.00  0.00    +0.031 A 
ATOM     21  C   UNL     1      -2.830  -3.311  -0.366  0.00  0.00    +0.025 A 
BRANCH  16  25
ATOM     22  C   UNL     1      -3.049   1.033  -0.255  0.00  0.00    +0.109 C 
ATOM     23  C   UNL     1      -2.924  -0.463  -0.121  0.00  0.00    +0.214 C 
ATOM     24  O   UNL     1      -3.743  -1.085   0.522  0.00  0.00    -0.276 OA
ATOM     25  N   UNL     1      -1.901  -1.109  -0.715  0.00  0.00    -0.286 N 
ATOM     26  H   UNL     1      -1.288  -0.623  -1.288  0.00  0.00    +0.155 HD
ENDBRANCH  16  25
ENDBRANCH  13  19
ENDBRANCH   1  13
BRANCH   3  27
ATOM     27  N   UNL     1      -2.103  -8.089   4.355  0.00  0.00    -0.318 N 
ATOM     28  H   UNL     1      -2.952  -8.271   3.923  0.00  0.00    +0.148 HD
BRANCH  27  29
ATOM     29  C   UNL     1      -2.066  -7.341   5.534  0.00  0.00    +0.029 A 
ATOM     30  C   UNL     1      -0.855  -7.192   6.222  0.00  0.00    +0.023 A 
ATOM     31  C   UNL     1      -0.790  -6.470   7.371  0.00  0.00    +0.010 A 
ATOM     32  C   UNL     1      -1.948  -5.859   7.883  0.00  0.00    -0.018 A 
ATOM     33  C   UNL     1      -1.910  -5.106   9.068  0.00  0.00    +0.008 A 
ATOM     34  C   UNL     1      -3.049  -4.527   9.537  0.00  0.00    +0.001 A 
ATOM     35  C   UNL     1      -4.258  -4.669   8.857  0.00  0.00    +0.001 A 
ATOM     36  C   UNL     1      -4.334  -5.391   7.707  0.00  0.00    +0.008 A 
ATOM     37  C   UNL     1      -3.178  -6.004   7.192  0.00  0.00    -0.016 A 
ATOM     38  C   UNL     1      -3.218  -6.751   6.004  0.00  0.00    +0.031 A 
ENDBRANCH  27  29
ENDBRANCH   3  27
TORSDOF 5
