REMARK  Name = ZINC14697709
REMARK  15 active torsions:
REMARK  status: ('A' for Active; 'I' for Inactive)
REMARK    1  A    between atoms: C_1  and  C_2
REMARK    2  A    between atoms: C_2  and  C_3
REMARK    3  A    between atoms: C_3  and  C_4
REMARK    4  A    between atoms: C_4  and  C_5
REMARK    5  A    between atoms: C_5  and  N_6
REMARK    6  A    between atoms: N_6  and  C_7
REMARK    7  A    between atoms: C_8  and  N_20
REMARK    8  A    between atoms: N_9  and  C_16
REMARK    9  A    between atoms: C_16  and  C_17
REMARK   10  A    between atoms: C_17  and  C_18
REMARK   11  A    between atoms: C_18  and  C_19
REMARK   12  A    between atoms: C_21  and  C_23
REMARK   13  A    between atoms: C_23  and  C_24
REMARK   14  A    between atoms: C_24  and  N_25
REMARK   15  A    between atoms: C_26  and  C_28
REMARK                            x       y       z     vdW  Elec       q    Type
REMARK                         _______ _______ _______ _____ _____    ______ ____
ROOT
ATOM      1  N   UNL     1      -0.015   1.455   0.001  0.00  0.00    -0.264 N 
ATOM      2  C   UNL     1      -1.254   1.988  -0.008  0.00  0.00    +0.221 C 
ATOM      3  O   UNL     1      -1.398   3.188  -0.105  0.00  0.00    -0.275 OA
ENDROOT
BRANCH   1   4
ATOM      4  C   UNL     1       1.116   2.299   0.004  0.00  0.00    +0.140 A 
ATOM      5  C   UNL     1       1.973   2.328  -1.077  0.00  0.00    +0.127 A 
ATOM      6  N   UNL     1       3.067   3.162  -1.044  0.00  0.00    -0.280 N 
ATOM      7  C   UNL     1       3.298   3.939   0.029  0.00  0.00    +0.331 A 
ATOM      8  O   UNL     1       4.270   4.670   0.039  0.00  0.00    -0.246 OA
ATOM      9  N   UNL     1       2.474   3.924   1.092  0.00  0.00    -0.273 N 
ATOM     10  H   UNL     1       2.671   4.508   1.879  0.00  0.00    +0.173 HD
ATOM     11  C   UNL     1       1.386   3.129   1.108  0.00  0.00    +0.277 A 
ATOM     12  O   UNL     1       0.643   3.126   2.075  0.00  0.00    -0.266 OA
BRANCH   5  13
ATOM     13  N   UNL     1       1.737   1.534  -2.173  0.00  0.00    -0.343 N 
ATOM     14  H   UNL     1       1.006   0.896  -2.162  0.00  0.00    +0.144 HD
ATOM     15  H   UNL     1       2.301   1.611  -2.958  0.00  0.00    +0.144 HD
ENDBRANCH   5  13
BRANCH   6  16
ATOM     16  C   UNL     1       3.985   3.204  -2.185  0.00  0.00    +0.128 C 
BRANCH  16  17
ATOM     17  C   UNL     1       3.519   4.272  -3.176  0.00  0.00    +0.021 C 
BRANCH  17  18
ATOM     18  C   UNL     1       4.478   4.316  -4.367  0.00  0.00    -0.002 C 
ATOM     19  C   UNL     1       4.012   5.384  -5.358  0.00  0.00    +0.004 C 
ENDBRANCH  17  18
ENDBRANCH  16  17
ENDBRANCH   6  16
ENDBRANCH   1   4
BRANCH   1  20
ATOM     20  C   UNL     1       0.157  -0.000   0.001  0.00  0.00    +0.114 C 
BRANCH  20  21
ATOM     21  C   UNL     1       0.331  -0.494   1.438  0.00  0.00    +0.019 C 
BRANCH  21  22
ATOM     22  C   UNL     1       0.510  -2.013   1.438  0.00  0.00    +0.001 C 
BRANCH  22  24
ATOM     23  C   UNL     1       0.863  -4.026   2.875  0.00  0.00    +0.004 C 
ATOM     24  C   UNL     1       0.684  -2.507   2.876  0.00  0.00    -0.003 C 
ENDBRANCH  22  24
ENDBRANCH  21  22
ENDBRANCH  20  21
ENDBRANCH   1  20
BRANCH   2  25
ATOM     25  C   UNL     1      -2.461   1.091   0.104  0.00  0.00    +0.115 C 
BRANCH  25  26
ATOM     26  C   UNL     1      -3.732   1.941   0.069  0.00  0.00    +0.113 C 
BRANCH  26  27
ATOM     27  N   UNL     1      -4.905   1.070   0.177  0.00  0.00    -0.311 N 
ATOM     28  C   UNL     1      -6.143   1.602   0.169  0.00  0.00    +0.244 C 
ATOM     29  O   UNL     1      -6.287   2.805   0.071  0.00  0.00    -0.270 OA
ATOM     30  H   UNL     1      -4.790   0.110   0.255  0.00  0.00    +0.149 HD
BRANCH  28  31
ATOM     31  C   UNL     1      -7.326   0.723   0.278  0.00  0.00    +0.037 A 
ATOM     32  C   UNL     1      -7.164  -0.660   0.384  0.00  0.00    +0.014 A 
ATOM     33  C   UNL     1      -8.272  -1.474   0.492  0.00  0.00    +0.021 A 
ATOM     34  C   UNL     1      -9.543  -0.924   0.482  0.00  0.00    +0.041 A 
ATOM     35  C   UNL     1      -9.710   0.446   0.371  0.00  0.00    +0.021 A 
ATOM     36  C   UNL     1      -8.610   1.271   0.269  0.00  0.00    +0.014 A 
ATOM     37 CL   UNL     1     -10.933  -1.957   0.612  0.00  0.00    -0.084 Cl
ENDBRANCH  28  31
ENDBRANCH  26  27
ENDBRANCH  25  26
ENDBRANCH   2  25
TORSDOF 13
