REMARK  Name = ZINC35966846
REMARK  14 active torsions:
REMARK  status: ('A' for Active; 'I' for Inactive)
REMARK    1  A    between atoms: C_1  and  C_2
REMARK    2  A    between atoms: C_2  and  C_3
REMARK    3  A    between atoms: C_2  and  C_4
REMARK    4  A    between atoms: C_4  and  C_5
REMARK    5  A    between atoms: C_5  and  C_7
REMARK    6  A    between atoms: C_5  and  N_15
REMARK    7  A    between atoms: N_9  and  C_10
REMARK    8  A    between atoms: C_10  and  C_11
REMARK    9  A    between atoms: C_11  and  N_12
REMARK   10  A    between atoms: N_12  and  C_13
REMARK   11  A    between atoms: N_12  and  C_14
REMARK   12  A    between atoms: C_21  and  C_28
REMARK   13  A    between atoms: N_26  and  C_27
REMARK   14  A    between atoms: C_33  and  C_34
REMARK                            x       y       z     vdW  Elec       q    Type
REMARK                         _______ _______ _______ _____ _____    ______ ____
ROOT
ATOM      1  N   UNL     1      -1.693  -1.743  -1.148  0.00  0.00    -0.281 N 
ATOM      2  C   UNL     1      -1.267  -0.654  -2.039  0.00  0.00    +0.160 C 
ATOM      3  C   UNL     1      -0.753  -1.347  -3.281  0.00  0.00    +0.042 C 
ATOM      4  C   UNL     1      -0.894  -2.670  -3.064  0.00  0.00    +0.058 C 
ATOM      5  C   UNL     1      -1.450  -2.901  -1.789  0.00  0.00    +0.247 C 
ATOM      6  O   UNL     1      -1.683  -4.004  -1.330  0.00  0.00    -0.270 OA
ATOM      7  C   UNL     1      -0.452  -3.615  -4.163  0.00  0.00    +0.142 C 
ATOM      8  N   UNL     1       0.100  -3.006  -5.385  0.00  0.00    -0.288 N 
ATOM      9  C   UNL     1       0.178  -1.663  -5.453  0.00  0.00    +0.307 C 
ATOM     10  O   UNL     1       0.632  -1.151  -6.458  0.00  0.00    -0.252 OA
ATOM     11  N   UNL     1      -0.229  -0.873  -4.451  0.00  0.00    -0.260 N 
ATOM     12  C   UNL     1      -0.105   0.577  -4.617  0.00  0.00    +0.139 C 
ATOM     13  H   UNL     1       0.401  -3.559  -6.123  0.00  0.00    +0.151 HD
ENDROOT
BRANCH   7  14
ATOM     14  C   UNL     1      -1.639  -4.456  -4.558  0.00  0.00    -0.011 A 
ATOM     15  C   UNL     1      -2.679  -3.890  -5.272  0.00  0.00    +0.006 A 
ATOM     16  C   UNL     1      -3.768  -4.661  -5.635  0.00  0.00    +0.000 A 
ATOM     17  C   UNL     1      -3.816  -5.998  -5.284  0.00  0.00    +0.001 A 
ATOM     18  C   UNL     1      -2.775  -6.563  -4.572  0.00  0.00    +0.013 A 
ATOM     19  C   UNL     1      -1.684  -5.793  -4.213  0.00  0.00    +0.060 A 
BRANCH  19  20
ATOM     20  C   UNL     1      -0.547  -6.411  -3.440  0.00  0.00    +0.418 C 
ATOM     21  F   UNL     1      -0.851  -7.746  -3.151  0.00  0.00    -0.166 F 
ATOM     22  F   UNL     1       0.622  -6.355  -4.207  0.00  0.00    -0.166 F 
ATOM     23  F   UNL     1      -0.357  -5.707  -2.247  0.00  0.00    -0.166 F 
ENDBRANCH  19  20
ENDBRANCH   7  14
BRANCH   1  24
ATOM     24  C   UNL     1      -2.268  -1.595   0.191  0.00  0.00    +0.163 C 
BRANCH  24  25
ATOM     25  C   UNL     1      -3.641  -2.217   0.219  0.00  0.00    +0.234 C 
ATOM     26  O   UNL     1      -4.094  -2.732  -0.781  0.00  0.00    -0.274 OA
ATOM     27  N   UNL     1      -4.365  -2.200   1.356  0.00  0.00    -0.316 N 
ATOM     28  H   UNL     1      -4.002  -1.787   2.156  0.00  0.00    +0.149 HD
BRANCH  27  29
ATOM     29  C   UNL     1      -5.699  -2.803   1.384  0.00  0.00    +0.085 C 
BRANCH  29  30
ATOM     30  C   UNL     1      -6.300  -2.649   2.782  0.00  0.00    -0.061 C 
BRANCH  30  31
ATOM     31  N   UNL     1      -7.638  -3.255   2.810  0.00  0.00    +0.377 N 
ATOM     32  C   UNL     1      -7.525  -4.703   2.593  0.00  0.00    -0.097 C 
ATOM     33  C   UNL     1      -8.263  -3.002   4.115  0.00  0.00    -0.097 C 
ATOM     34  H   UNL     1      -8.206  -2.849   2.081  0.00  0.00    -0.083 HD
ENDBRANCH  30  31
ENDBRANCH  29  30
ENDBRANCH  27  29
ENDBRANCH  24  25
BRANCH  24  35
ATOM     35  C   UNL     1      -1.370  -2.297   1.212  0.00  0.00    +0.035 C 
BRANCH  35  37
ATOM     36  C   UNL     1      -0.208  -0.167   1.810  0.00  0.00    +0.007 C 
ATOM     37  C   UNL     1      -0.016  -1.587   1.273  0.00  0.00    -0.015 C 
ATOM     38  C   UNL     1       0.924  -2.360   2.199  0.00  0.00    +0.007 C 
ENDBRANCH  35  37
ENDBRANCH  24  35
ENDBRANCH   1  24
TORSDOF 9
