REMARK  Name = ZINC59114431
REMARK  14 active torsions:
REMARK  status: ('A' for Active; 'I' for Inactive)
REMARK    1  A    between atoms: C_1  and  C_2
REMARK    2  A    between atoms: C_5  and  N_8
REMARK    3  A    between atoms: N_8  and  C_9
REMARK    4  A    between atoms: C_9  and  N_11
REMARK    5  A    between atoms: N_11  and  C_12
REMARK    6  A    between atoms: C_12  and  C_13
REMARK    7  A    between atoms: C_13  and  C_33
REMARK    8  A    between atoms: C_15  and  N_22
REMARK    9  A    between atoms: C_18  and  C_20
REMARK   10  A    between atoms: C_18  and  C_21
REMARK   11  A    between atoms: N_22  and  C_23
REMARK   12  A    between atoms: C_23  and  N_25
REMARK   13  A    between atoms: N_25  and  C_26
REMARK   14  A    between atoms: C_29  and  C_32
REMARK                            x       y       z     vdW  Elec       q    Type
REMARK                         _______ _______ _______ _____ _____    ______ ____
ROOT
ATOM      1  C   UNL     1       0.359  -7.990   1.599  0.00  0.00    -0.014 C 
ATOM      2  C   UNL     1      -0.728  -8.056   0.538  0.00  0.00    +0.030 C 
ATOM      3  C   UNL     1      -1.381  -9.423   0.424  0.00  0.00    +0.073 C 
ATOM      4  C   UNL     1      -1.879  -9.926   1.768  0.00  0.00    +0.028 C 
ATOM      5  C   UNL     1      -0.827  -9.888   2.863  0.00  0.00    -0.033 C 
ATOM      6  C   UNL     1      -0.077  -8.572   2.930  0.00  0.00    +0.014 C 
ATOM      7  C   UNL     1      -1.564 -10.069   4.213  0.00  0.00    +0.011 C 
ATOM      8  C   UNL     1       0.140 -11.068   2.730  0.00  0.00    +0.011 C 
ATOM      9  C   UNL     1       1.650  -8.645   1.102  0.00  0.00    +0.013 C 
ENDROOT
BRANCH   3  10
ATOM     10  N   UNL     1      -0.517 -10.393  -0.240  0.00  0.00    -0.323 N 
ATOM     11  H   UNL     1       0.441 -10.248  -0.271  0.00  0.00    +0.148 HD
BRANCH  10  12
ATOM     12  C   UNL     1      -1.051 -11.492  -0.810  0.00  0.00    +0.135 C 
ATOM     13  S   UNL     1      -2.743 -11.748  -0.754  0.00  0.00    -0.019 S 
BRANCH  12  14
ATOM     14  N   UNL     1      -0.253 -12.388  -1.424  0.00  0.00    -0.297 N 
ATOM     15  H   UNL     1       0.710 -12.283  -1.390  0.00  0.00    +0.154 HD
BRANCH  14  16
ATOM     16  C   UNL     1      -0.815 -13.470  -2.110  0.00  0.00    +0.033 A 
ATOM     17  C   UNL     1      -1.922 -13.277  -2.926  0.00  0.00    +0.023 A 
ATOM     18  C   UNL     1      -2.474 -14.348  -3.602  0.00  0.00    +0.005 A 
ATOM     19  C   UNL     1      -1.926 -15.610  -3.467  0.00  0.00    -0.050 A 
ATOM     20  C   UNL     1      -0.824 -15.805  -2.655  0.00  0.00    +0.005 A 
ATOM     21  C   UNL     1      -0.264 -14.738  -1.980  0.00  0.00    +0.023 A 
ATOM     22  C   UNL     1      -2.531 -16.776  -4.205  0.00  0.00    +0.044 C 
ENDBRANCH  14  16
ENDBRANCH  12  14
ENDBRANCH  10  12
ENDBRANCH   3  10
BRANCH   1  23
ATOM     23  C   UNL     1       0.680  -6.493   1.832  0.00  0.00    +0.110 C 
BRANCH  23  24
ATOM     24  N   UNL     1       1.108  -5.883   0.570  0.00  0.00    -0.326 N 
ATOM     25  H   UNL     1       1.151  -6.419  -0.237  0.00  0.00    +0.148 HD
BRANCH  24  26
ATOM     26  C   UNL     1       1.441  -4.577   0.531  0.00  0.00    +0.135 C 
ATOM     27  S   UNL     1       1.363  -3.632   1.956  0.00  0.00    -0.019 S 
BRANCH  26  28
ATOM     28  N   UNL     1       1.834  -4.017  -0.629  0.00  0.00    -0.297 N 
ATOM     29  H   UNL     1       1.789  -4.526  -1.454  0.00  0.00    +0.154 HD
BRANCH  28  34
ATOM     30  C   UNL     1       3.757   1.320  -0.693  0.00  0.00    +0.044 C 
ATOM     31  C   UNL     1       3.246  -0.098  -0.676  0.00  0.00    -0.050 A 
ATOM     32  C   UNL     1       3.546  -0.927   0.389  0.00  0.00    +0.005 A 
ATOM     33  C   UNL     1       3.080  -2.226   0.408  0.00  0.00    +0.023 A 
ATOM     34  C   UNL     1       2.308  -2.700  -0.645  0.00  0.00    +0.033 A 
ATOM     35  C   UNL     1       2.008  -1.865  -1.713  0.00  0.00    +0.023 A 
ATOM     36  C   UNL     1       2.473  -0.565  -1.723  0.00  0.00    +0.005 A 
ENDBRANCH  28  34
ENDBRANCH  26  28
ENDBRANCH  24  26
ENDBRANCH  23  24
ENDBRANCH   1  23
TORSDOF 9
