REMARK  Name = ZINC23583088
REMARK  6 active torsions:
REMARK  status: ('A' for Active; 'I' for Inactive)
REMARK    1  A    between atoms: C_2  and  C_3
REMARK    2  A    between atoms: C_3  and  N_4
REMARK    3  A    between atoms: C_8  and  S_10
REMARK    4  A    between atoms: S_10  and  C_11
REMARK    5  A    between atoms: C_11  and  C_12
REMARK    6  A    between atoms: C_18  and  C_23
REMARK                            x       y       z     vdW  Elec       q    Type
REMARK                         _______ _______ _______ _____ _____    ______ ____
ROOT
ATOM      1  C   UNL     1       8.030  -6.281   2.121  0.00  0.00    +0.121 A 
ATOM      2  N   UNL     1       9.206  -6.397   1.453  0.00  0.00    -0.310 N 
ATOM      3  H   UNL     1       9.366  -5.845   0.672  0.00  0.00    +0.170 HD
ATOM      4  C   UNL     1      10.155  -7.263   1.854  0.00  0.00    +0.260 A 
ATOM      5  O   UNL     1      11.206  -7.356   1.244  0.00  0.00    -0.267 OA
ATOM      6  C   UNL     1       9.911  -8.074   3.009  0.00  0.00    +0.080 A 
ATOM      7  C   UNL     1      10.771  -9.072   3.633  0.00  0.00    +0.004 A 
ATOM      8  C   UNL     1      10.322  -9.722   4.734  0.00  0.00    +0.056 A 
ATOM      9  S   UNL     1       8.703  -9.022   4.995  0.00  0.00    -0.076 S 
ATOM     10  C   UNL     1       8.668  -7.884   3.634  0.00  0.00    +0.116 A 
ATOM     11  N   UNL     1       7.780  -7.003   3.180  0.00  0.00    -0.226 NA
ENDROOT
BRANCH   7  12
ATOM     12  C   UNL     1      12.111  -9.371   3.075  0.00  0.00    -0.017 A 
ATOM     13  C   UNL     1      12.258  -9.636   1.714  0.00  0.00    +0.009 A 
ATOM     14  C   UNL     1      13.508  -9.913   1.199  0.00  0.00    +0.016 A 
ATOM     15  C   UNL     1      14.614  -9.928   2.030  0.00  0.00    +0.018 A 
ATOM     16  C   UNL     1      14.474  -9.665   3.382  0.00  0.00    +0.016 A 
ATOM     17  C   UNL     1      13.230  -9.382   3.907  0.00  0.00    +0.009 A 
ATOM     18 BR   UNL     1      16.324 -10.308   1.317  0.00  0.00    -0.050 Br
ENDBRANCH   7  12
BRANCH   1  19
ATOM     19  C   UNL     1       6.996  -5.298   1.635  0.00  0.00    +0.150 C 
BRANCH  19  20
ATOM     20  S   UNL     1       5.545  -5.359   2.721  0.00  0.00    -0.089 S 
BRANCH  20  25
ATOM     21  N   UNL     1       1.367  -1.676   1.111  0.00  0.00    -0.319 N 
ATOM     22  C   UNL     1       2.491  -2.471   1.305  0.00  0.00    +0.183 A 
ATOM     23  N   UNL     1       3.604  -2.529   0.601  0.00  0.00    -0.125 NA
ATOM     24  N   UNL     1       4.604  -3.399   0.971  0.00  0.00    -0.133 NA
ATOM     25  C   UNL     1       4.444  -4.170   2.030  0.00  0.00    +0.160 A 
ATOM     26  S   UNL     1       2.816  -3.681   2.577  0.00  0.00    -0.025 S 
ATOM     27  H   UNL     1       0.617  -1.740   1.722  0.00  0.00    +0.148 HD
BRANCH  21  28
ATOM     28  C   UNL     1       1.317  -0.740  -0.015  0.00  0.00    +0.130 C 
BRANCH  28  30
ATOM     29  C   UNL     1      -0.016   1.306   0.009  0.00  0.00    +0.005 C 
ATOM     30  C   UNL     1       0.002  -0.004   0.002  0.00  0.00    -0.016 C 
ENDBRANCH  28  30
ENDBRANCH  21  28
ENDBRANCH  20  25
ENDBRANCH  19  20
ENDBRANCH   1  19
TORSDOF 6
