REMARK  Name = ZINC60340236
REMARK  7 active torsions:
REMARK  status: ('A' for Active; 'I' for Inactive)
REMARK    1  A    between atoms: C_3  and  C_7
REMARK    2  A    between atoms: C_10  and  S_20
REMARK    3  A    between atoms: N_11  and  C_12
REMARK    4  A    between atoms: S_20  and  C_21
REMARK    5  A    between atoms: C_21  and  C_22
REMARK    6  A    between atoms: C_22  and  C_23
REMARK    7  A    between atoms: C_23  and  C_24
REMARK                            x       y       z     vdW  Elec       q    Type
REMARK                         _______ _______ _______ _____ _____    ______ ____
ROOT
ATOM      1  C   UNL     1       3.680   2.029  -0.023  0.00  0.00    +0.171 A 
ATOM      2  N   UNL     1       3.891   3.297  -0.286  0.00  0.00    -0.128 NA
ATOM      3  N   UNL     1       5.146   3.561  -0.204  0.00  0.00    -0.122 NA
ATOM      4  C   UNL     1       5.816   2.476   0.117  0.00  0.00    +0.196 A 
ATOM      5  N   UNL     1       4.906   1.463   0.249  0.00  0.00    -0.270 N 
ENDROOT
BRANCH   5   6
ATOM      6  C   UNL     1       5.168   0.128   0.588  0.00  0.00    +0.052 A 
ATOM      7  C   UNL     1       4.675  -0.398   1.774  0.00  0.00    +0.028 A 
ATOM      8  C   UNL     1       4.933  -1.714   2.106  0.00  0.00    +0.023 A 
ATOM      9  C   UNL     1       5.683  -2.509   1.256  0.00  0.00    +0.059 A 
ATOM     10  C   UNL     1       6.176  -1.987   0.072  0.00  0.00    +0.061 A 
ATOM     11  C   UNL     1       5.915  -0.672  -0.266  0.00  0.00    +0.047 A 
ATOM     12 CL   UNL     1       7.116  -2.986  -0.991  0.00  0.00    -0.082 Cl
ATOM     13 CL   UNL     1       6.005  -4.162   1.676  0.00  0.00    -0.082 Cl
ENDBRANCH   5   6
BRANCH   1  16
ATOM     14  C   UNL     1      -0.017   1.379   0.010  0.00  0.00    +0.020 A 
ATOM     15  C   UNL     1       1.181   2.073   0.002  0.00  0.00    +0.014 A 
ATOM     16  C   UNL     1       2.373   1.339  -0.013  0.00  0.00    +0.038 A 
ATOM     17  C   UNL     1       2.306  -0.055  -0.020  0.00  0.00    +0.122 A 
ATOM     18  N   UNL     1       1.141  -0.670  -0.012  0.00  0.00    -0.263 NA
ATOM     19  C   UNL     1       0.002  -0.004   0.002  0.00  0.00    +0.111 A 
ENDBRANCH   1  16
BRANCH   4  20
ATOM     20  S   UNL     1       7.559   2.352   0.342  0.00  0.00    -0.086 S 
BRANCH  20  21
ATOM     21  C   UNL     1       8.162   4.034   0.030  0.00  0.00    +0.078 C 
BRANCH  21  22
ATOM     22  C   UNL     1       9.683   4.069   0.194  0.00  0.00    +0.020 C 
BRANCH  22  23
ATOM     23  C   UNL     1      10.192   5.488  -0.069  0.00  0.00    +0.097 C 
BRANCH  23  24
ATOM     24  C   UNL     1      11.690   5.522   0.093  0.00  0.00    +0.220 C 
ATOM     25  O   UNL     1      12.291   4.512   0.389  0.00  0.00    -0.275 OA
ATOM     26  N   UNL     1      12.362   6.676  -0.092  0.00  0.00    -0.240 N 
ATOM     27  C   UNL     1      13.701   6.707   0.052  0.00  0.00    +0.303 C 
ATOM     28  O   UNL     1      14.304   5.694   0.349  0.00  0.00    -0.253 OA
ATOM     29  N   UNL     1      14.373   7.861  -0.132  0.00  0.00    -0.313 N 
ATOM     30  H   UNL     1      11.881   7.484  -0.329  0.00  0.00    +0.159 HD
ATOM     31  H   UNL     1      13.892   8.669  -0.369  0.00  0.00    +0.146 HD
ATOM     32  H   UNL     1      15.337   7.883  -0.029  0.00  0.00    +0.146 HD
ENDBRANCH  23  24
ENDBRANCH  22  23
ENDBRANCH  21  22
ENDBRANCH  20  21
ENDBRANCH   4  20
TORSDOF 7
