REMARK  Name = ZINC39243198
REMARK  12 active torsions:
REMARK  status: ('A' for Active; 'I' for Inactive)
REMARK    1  A    between atoms: C_1  and  C_2
REMARK    2  A    between atoms: C_2  and  O_3
REMARK    3  A    between atoms: O_3  and  C_4
REMARK    4  A    between atoms: C_4  and  C_6
REMARK    5  A    between atoms: C_9  and  N_12
REMARK    6  A    between atoms: C_13  and  C_15
REMARK    7  A    between atoms: C_15  and  O_16
REMARK    8  A    between atoms: O_16  and  C_17
REMARK    9  A    between atoms: C_22  and  C_23
REMARK   10  A    between atoms: N_24  and  C_25
REMARK   11  A    between atoms: C_26  and  C_32
REMARK   12  A    between atoms: C_29  and  C_31
REMARK                            x       y       z     vdW  Elec       q    Type
REMARK                         _______ _______ _______ _____ _____    ______ ____
ROOT
ATOM      1  O   UNL     1       4.072  -7.286   7.184  0.00  0.00    -0.482 OA
ENDROOT
BRANCH   1   2
ATOM      2  C   UNL     1       4.583  -7.957   8.246  0.00  0.00    +0.130 A 
ATOM      3  C   UNL     1       5.180  -7.263   9.287  0.00  0.00    +0.047 A 
ATOM      4  C   UNL     1       5.701  -7.948  10.368  0.00  0.00    +0.019 A 
ATOM      5  C   UNL     1       5.631  -9.332  10.424  0.00  0.00    +0.019 A 
ATOM      6  C   UNL     1       5.042 -10.040   9.400  0.00  0.00    +0.028 A 
ATOM      7  C   UNL     1       4.505  -9.359   8.299  0.00  0.00    +0.034 A 
ATOM      8 BR   UNL     1       6.350 -10.251  11.912  0.00  0.00    -0.050 Br
BRANCH   7   9
ATOM      9  C   UNL     1       3.871 -10.105   7.208  0.00  0.00    +0.094 C 
ATOM     10  N   UNL     1       3.458  -9.473   6.136  0.00  0.00    -0.361 N 
ATOM     11  H   UNL     1       3.491  -8.504   6.101  0.00  0.00    +0.165 HD
BRANCH  10  12
ATOM     12  C   UNL     1       2.989 -10.168   5.085  0.00  0.00    +0.065 C 
ATOM     13  C   UNL     1       2.526  -9.690   3.897  0.00  0.00    +0.081 C 
ATOM     14  N   UNL     1       2.147 -10.695   3.105  0.00  0.00    -0.157 NA
ATOM     15  N   UNL     1       2.284 -11.820   3.588  0.00  0.00    -0.178 NA
ATOM     16  C   UNL     1       2.854 -11.674   4.938  0.00  0.00    +0.173 C 
ATOM     17  C   UNL     1       1.898 -12.238   5.991  0.00  0.00    +0.041 C 
ATOM     18  C   UNL     1       2.453  -8.230   3.528  0.00  0.00    +0.069 C 
ENDBRANCH  10  12
ENDBRANCH   7   9
ENDBRANCH   1   2
BRANCH   1  19
ATOM     19  C   UNL     1       4.188  -5.861   7.200  0.00  0.00    +0.324 C 
BRANCH  19  21
ATOM     20  N   UNL     1       3.563  -3.960   5.747  0.00  0.00    -0.283 N 
ATOM     21  C   UNL     1       3.569  -5.293   5.950  0.00  0.00    +0.255 C 
ATOM     22  O   UNL     1       3.077  -6.034   5.126  0.00  0.00    -0.272 OA
ATOM     23  H   UNL     1       4.010  -3.372   6.375  0.00  0.00    +0.155 HD
BRANCH  20  27
ATOM     24  C   UNL     1       1.620  -2.370   2.423  0.00  0.00    +0.059 A 
ATOM     25  C   UNL     1       2.277  -3.600   2.329  0.00  0.00    +0.017 A 
ATOM     26  C   UNL     1       2.918  -4.123   3.429  0.00  0.00    +0.024 A 
ATOM     27  C   UNL     1       2.913  -3.428   4.634  0.00  0.00    +0.034 A 
ATOM     28  C   UNL     1       2.260  -2.203   4.732  0.00  0.00    +0.024 A 
ATOM     29  C   UNL     1       1.622  -1.671   3.634  0.00  0.00    +0.017 A 
BRANCH  24  30
ATOM     30  C   UNL     1       0.933  -1.806   1.246  0.00  0.00    +0.339 C 
ATOM     31  O   UNL     1       0.367  -0.734   1.329  0.00  0.00    -0.245 OA
BRANCH  30  32
ATOM     32  O   UNL     1       0.932  -2.481   0.080  0.00  0.00    -0.461 OA
BRANCH  32  34
ATOM     33  C   UNL     1       0.354  -2.781  -2.248  0.00  0.00    +0.048 C 
ATOM     34  C   UNL     1       0.247  -1.876  -1.019  0.00  0.00    +0.229 C 
ENDBRANCH  32  34
ENDBRANCH  30  32
ENDBRANCH  24  30
ENDBRANCH  20  27
ENDBRANCH  19  21
ENDBRANCH   1  19
TORSDOF 9
