REMARK  Name = ZINC37006576
REMARK  13 active torsions:
REMARK  status: ('A' for Active; 'I' for Inactive)
REMARK    1  A    between atoms: C_1  and  C_2
REMARK    2  A    between atoms: C_5  and  C_8
REMARK    3  A    between atoms: C_8  and  N_9
REMARK    4  A    between atoms: C_17  and  O_40
REMARK    5  A    between atoms: C_22  and  C_23
REMARK    6  A    between atoms: C_22  and  C_24
REMARK    7  A    between atoms: N_26  and  C_27
REMARK    8  A    between atoms: C_27  and  C_28
REMARK    9  A    between atoms: C_28  and  C_29
REMARK   10  A    between atoms: C_29  and  N_30
REMARK   11  A    between atoms: C_32  and  C_39
REMARK   12  A    between atoms: C_35  and  C_38
REMARK   13  A    between atoms: O_40  and  C_41
REMARK                            x       y       z     vdW  Elec       q    Type
REMARK                         _______ _______ _______ _____ _____    ______ ____
ROOT
ATOM      1  N   UNL     1       0.957  -4.333   0.208  0.00  0.00    -0.276 N 
ATOM      2  C   UNL     1       1.426  -4.511  -1.049  0.00  0.00    +0.264 C 
ATOM      3  O   UNL     1       0.894  -3.988  -2.010  0.00  0.00    -0.268 OA
ATOM      4  C   UNL     1       2.614  -5.370  -1.194  0.00  0.00    +0.106 A 
ATOM      5  C   UNL     1       3.402  -5.583  -2.269  0.00  0.00    +0.041 A 
ATOM      6  C   UNL     1       4.413  -6.478  -1.878  0.00  0.00    +0.001 A 
ATOM      7  C   UNL     1       5.490  -7.032  -2.587  0.00  0.00    +0.013 A 
ATOM      8  C   UNL     1       6.314  -7.886  -1.902  0.00  0.00    +0.046 A 
ATOM      9  C   UNL     1       6.102  -8.200  -0.563  0.00  0.00    +0.122 A 
ATOM     10  C   UNL     1       5.045  -7.669   0.163  0.00  0.00    +0.072 A 
ATOM     11  C   UNL     1       4.190  -6.797  -0.510  0.00  0.00    +0.053 A 
ATOM     12  N   UNL     1       3.085  -6.121  -0.112  0.00  0.00    -0.334 N 
ATOM     13  C   UNL     1       2.398  -6.106   1.184  0.00  0.00    +0.157 C 
ATOM     14  C   UNL     1       1.720  -4.747   1.379  0.00  0.00    +0.129 C 
ATOM     15  C   UNL     1       0.776  -4.833   2.580  0.00  0.00    +0.043 C 
ENDROOT
BRANCH  14  16
ATOM     16  C   UNL     1       2.774  -3.709   1.666  0.00  0.00    +0.238 C 
ATOM     17  O   UNL     1       3.105  -3.480   2.810  0.00  0.00    -0.273 OA
ATOM     18  N   UNL     1       3.349  -3.034   0.650  0.00  0.00    -0.314 N 
ATOM     19  H   UNL     1       3.036  -3.165  -0.258  0.00  0.00    +0.149 HD
BRANCH  18  20
ATOM     20  C   UNL     1       4.449  -2.104   0.919  0.00  0.00    +0.102 C 
BRANCH  20  21
ATOM     21  C   UNL     1       4.835  -1.384  -0.375  0.00  0.00    +0.000 C 
BRANCH  21  22
ATOM     22  C   UNL     1       6.061  -0.505  -0.123  0.00  0.00    -0.077 C 
BRANCH  22  23
ATOM     23  N   UNL     1       6.355   0.283  -1.327  0.00  0.00    +0.380 N 
ATOM     24  C   UNL     1       6.756  -0.618  -2.414  0.00  0.00    -0.076 C 
ATOM     25  C   UNL     1       6.985   0.190  -3.693  0.00  0.00    -0.031 C 
ATOM     26  C   UNL     1       8.090   1.222  -3.449  0.00  0.00    +0.003 C 
ATOM     27  C   UNL     1       7.694   2.109  -2.265  0.00  0.00    -0.031 C 
ATOM     28  C   UNL     1       7.439   1.230  -1.039  0.00  0.00    -0.076 C 
ATOM     29  C   UNL     1       8.825   3.093  -1.963  0.00  0.00    +0.005 C 
ATOM     30  C   UNL     1       5.691   0.909  -4.082  0.00  0.00    +0.005 C 
ATOM     31  H   UNL     1       5.529   0.793  -1.604  0.00  0.00    -0.082 HD
ENDBRANCH  22  23
ENDBRANCH  21  22
ENDBRANCH  20  21
ENDBRANCH  18  20
ENDBRANCH  14  16
BRANCH   9  32
ATOM     32  O   UNL     1       6.959  -9.055   0.054  0.00  0.00    -0.495 OA
ATOM     33  C   UNL     1       8.032  -9.577  -0.731  0.00  0.00    +0.277 C 
ENDBRANCH   9  32
BRANCH   1  34
ATOM     34  C   UNL     1      -0.351  -3.702   0.397  0.00  0.00    +0.144 C 
BRANCH  34  39
ATOM     35  C   UNL     1       0.246   2.045   0.295  0.00  0.00    +0.044 C 
ATOM     36  C   UNL     1       0.090   0.546   0.322  0.00  0.00    -0.050 A 
ATOM     37  C   UNL     1      -0.253  -0.134  -0.832  0.00  0.00    +0.003 A 
ATOM     38  C   UNL     1      -0.395  -1.509  -0.807  0.00  0.00    +0.005 A 
ATOM     39  C   UNL     1      -0.195  -2.204   0.370  0.00  0.00    -0.030 A 
ATOM     40  C   UNL     1       0.149  -1.524   1.524  0.00  0.00    +0.005 A 
ATOM     41  C   UNL     1       0.296  -0.150   1.499  0.00  0.00    +0.003 A 
ENDBRANCH  34  39
ENDBRANCH   1  34
TORSDOF 8
