REMARK  Name = ZINC01088721
REMARK  9 active torsions:
REMARK  status: ('A' for Active; 'I' for Inactive)
REMARK    1  A    between atoms: C_1  and  O_2
REMARK    2  A    between atoms: O_2  and  C_3
REMARK    3  A    between atoms: C_5  and  C_12
REMARK    4  A    between atoms: C_7  and  O_10
REMARK    5  A    between atoms: C_8  and  O_9
REMARK    6  A    between atoms: O_10  and  C_11
REMARK    7  A    between atoms: C_14  and  C_31
REMARK    8  A    between atoms: C_15  and  N_30
REMARK    9  A    between atoms: C_22  and  C_25
REMARK                            x       y       z     vdW  Elec       q    Type
REMARK                         _______ _______ _______ _____ _____    ______ ____
ROOT
ATOM      1  C   UNL     1       3.791   1.904  -0.637  0.00  0.00    +0.101 C 
ATOM      2  C   UNL     1       3.791   3.373  -0.320  0.00  0.00    +0.098 C 
ATOM      3  C   UNL     1       2.721   3.944   0.286  0.00  0.00    +0.198 C 
ATOM      4  O   UNL     1       1.641   3.221   0.622  0.00  0.00    -0.445 OA
ATOM      5  C   UNL     1       1.397   2.053  -0.000  0.00  0.00    +0.115 C 
ATOM      6  C   UNL     1       2.380   1.368  -0.613  0.00  0.00    +0.046 C 
ATOM      7  C   UNL     1       2.127   0.138  -1.250  0.00  0.00    +0.164 C 
ATOM      8  O   UNL     1       3.036  -0.442  -1.811  0.00  0.00    -0.292 OA
ATOM      9  C   UNL     1       0.752  -0.472  -1.250  0.00  0.00    +0.091 C 
ATOM     10  C   UNL     1       0.002  -0.004   0.002  0.00  0.00    +0.070 C 
ATOM     11  C   UNL     1      -0.019   1.526   0.010  0.00  0.00    +0.086 C 
ENDROOT
BRANCH   1  14
ATOM     12  C   UNL     1       6.501  -0.217   0.925  0.00  0.00    +0.165 A 
ATOM     13  C   UNL     1       5.735   0.457  -0.014  0.00  0.00    +0.054 A 
ATOM     14  C   UNL     1       4.621   1.172   0.386  0.00  0.00    -0.027 A 
ATOM     15  C   UNL     1       4.269   1.221   1.722  0.00  0.00    +0.054 A 
ATOM     16  C   UNL     1       5.027   0.544   2.666  0.00  0.00    +0.165 A 
ATOM     17  C   UNL     1       6.148  -0.175   2.268  0.00  0.00    +0.201 A 
BRANCH  12  19
ATOM     18  C   UNL     1       7.900  -0.920  -0.866  0.00  0.00    +0.277 C 
ATOM     19  O   UNL     1       7.597  -0.920   0.531  0.00  0.00    -0.491 OA
ENDBRANCH  12  19
BRANCH  17  20
ATOM     20  O   UNL     1       6.898  -0.835   3.192  0.00  0.00    -0.501 OA
ATOM     21  H   UNL     1       7.615  -0.306   3.568  0.00  0.00    +0.292 HD
ENDBRANCH  17  20
BRANCH  16  22
ATOM     22  O   UNL     1       4.677   0.589   3.979  0.00  0.00    -0.491 OA
ATOM     23  C   UNL     1       3.513   1.347   4.315  0.00  0.00    +0.277 C 
ENDBRANCH  16  22
ENDBRANCH   1  14
BRANCH  10  24
ATOM     24  C   UNL     1      -1.410  -0.530  -0.027  0.00  0.00    +0.109 A 
ATOM     25  C   UNL     1      -1.972  -1.325   0.901  0.00  0.00    +0.045 A 
ATOM     26  C   UNL     1      -3.300  -1.570   0.480  0.00  0.00    +0.041 A 
ATOM     27  C   UNL     1      -3.466  -0.916  -0.684  0.00  0.00    +0.195 A 
ATOM     28  O   UNL     1      -2.318  -0.288  -0.986  0.00  0.00    -0.468 OA
ENDBRANCH  10  24
BRANCH   3  29
ATOM     29  N   UNL     1       2.743   5.288   0.563  0.00  0.00    -0.328 N 
ATOM     30  H   UNL     1       1.983   5.707   0.997  0.00  0.00    +0.145 HD
ATOM     31  H   UNL     1       3.519   5.819   0.325  0.00  0.00    +0.145 HD
ENDBRANCH   3  29
BRANCH   2  32
ATOM     32  C   UNL     1       4.928   4.175  -0.659  0.00  0.00    +0.101 C 
ATOM     33  N   UNL     1       5.830   4.811  -0.929  0.00  0.00    -0.191 NA
ENDBRANCH   2  32
TORSDOF 7
