REMARK  Name = ZINC27531048
REMARK  7 active torsions:
REMARK  status: ('A' for Active; 'I' for Inactive)
REMARK    1  A    between atoms: C_1  and  C_2
REMARK    2  A    between atoms: C_5  and  C_8
REMARK    3  A    between atoms: C_8  and  C_10
REMARK    4  A    between atoms: C_11  and  N_37
REMARK    5  A    between atoms: N_12  and  C_31
REMARK    6  A    between atoms: C_15  and  C_17
REMARK    7  A    between atoms: C_20  and  N_23
REMARK                            x       y       z     vdW  Elec       q    Type
REMARK                         _______ _______ _______ _____ _____    ______ ____
ROOT
ATOM      1  C   UNL     1       2.903   1.691   0.947  0.00  0.00    +0.048 C 
ATOM      2  C   UNL     1       4.101   2.362   1.010  0.00  0.00    +0.100 C 
ATOM      3  N   UNL     1       4.798   2.627  -0.143  0.00  0.00    -0.261 N 
ATOM      4  C   UNL     1       4.551   1.915  -1.288  0.00  0.00    +0.024 C 
ATOM      5  C   UNL     1       3.397   1.233  -1.442  0.00  0.00    +0.024 C 
ATOM      6  C   UNL     1       2.337   1.247  -0.370  0.00  0.00    +0.091 C 
ATOM      7  C   UNL     1       3.146   0.485  -2.607  0.00  0.00    +0.162 C 
ATOM      8  O   UNL     1       2.092  -0.109  -2.719  0.00  0.00    -0.292 OA
ATOM      9  C   UNL     1       4.159   0.405  -3.716  0.00  0.00    +0.080 C 
ATOM     10  C   UNL     1       5.561   0.581  -3.124  0.00  0.00    +0.014 C 
ATOM     11  C   UNL     1       5.605   1.911  -2.369  0.00  0.00    +0.052 C 
ENDROOT
BRANCH   6  12
ATOM     12  C   UNL     1       1.235   2.192  -0.777  0.00  0.00    -0.035 A 
ATOM     13  C   UNL     1      -0.057   1.723  -0.925  0.00  0.00    +0.007 A 
ATOM     14  C   UNL     1      -1.066   2.588  -1.304  0.00  0.00    +0.033 A 
ATOM     15  C   UNL     1      -0.786   3.924  -1.525  0.00  0.00    +0.126 A 
ATOM     16  C   UNL     1       0.507   4.392  -1.377  0.00  0.00    +0.033 A 
ATOM     17  C   UNL     1       1.517   3.526  -1.003  0.00  0.00    +0.007 A 
BRANCH  15  18
ATOM     18  N   UNL     1      -1.867   4.851  -1.925  0.00  0.00    +0.056 N 
ATOM     19  O   UNL     1      -1.619   6.027  -2.125  0.00  0.00    -0.126 OA
ATOM     20  O   UNL     1      -3.006   4.439  -2.056  0.00  0.00    -0.126 OA
ENDBRANCH  15  18
ENDBRANCH   6  12
BRANCH   3  21
ATOM     21  C   UNL     1       5.770   3.635  -0.150  0.00  0.00    +0.040 A 
ATOM     22  C   UNL     1       5.467   4.891  -0.660  0.00  0.00    +0.024 A 
ATOM     23  C   UNL     1       6.426   5.884  -0.661  0.00  0.00    +0.002 A 
ATOM     24  C   UNL     1       7.691   5.626  -0.164  0.00  0.00    +0.000 A 
ATOM     25  C   UNL     1       7.997   4.375   0.341  0.00  0.00    +0.002 A 
ATOM     26  C   UNL     1       7.041   3.379   0.349  0.00  0.00    +0.024 A 
ENDBRANCH   3  21
BRANCH   2  27
ATOM     27  N   UNL     1       4.599   2.765   2.221  0.00  0.00    -0.346 N 
ATOM     28  H   UNL     1       5.557   3.302   2.270  0.00  0.00    +0.143 HD
ATOM     29  H   UNL     1       4.040   2.552   3.144  0.00  0.00    +0.143 HD
ENDBRANCH   2  27
BRANCH   1  30
ATOM     30  C   UNL     1       2.201   1.417   2.130  0.00  0.00    +0.193 C 
ATOM     31  O   UNL     1       1.790   2.334   2.821  0.00  0.00    -0.287 OA
BRANCH  30  36
ATOM     32  C   UNL     1       1.259  -4.034   3.723  0.00  0.00    +0.044 C 
ATOM     33  C   UNL     1       1.506  -2.607   3.306  0.00  0.00    -0.050 A 
ATOM     34  C   UNL     1       0.948  -1.571   4.033  0.00  0.00    +0.004 A 
ATOM     35  C   UNL     1       1.170  -0.262   3.657  0.00  0.00    +0.012 A 
ATOM     36  C   UNL     1       1.959   0.015   2.539  0.00  0.00    +0.022 A 
ATOM     37  C   UNL     1       2.513  -1.035   1.807  0.00  0.00    +0.012 A 
ATOM     38  C   UNL     1       2.288  -2.339   2.197  0.00  0.00    +0.004 A 
ENDBRANCH  30  36
ENDBRANCH   1  30
TORSDOF 6
