REMARK  Name = ZINC39681290
REMARK  9 active torsions:
REMARK  status: ('A' for Active; 'I' for Inactive)
REMARK    1  A    between atoms: C_1  and  C_2
REMARK    2  A    between atoms: C_2  and  C_4
REMARK    3  A    between atoms: C_2  and  O_30
REMARK    4  A    between atoms: C_8  and  C_17
REMARK    5  A    between atoms: N_19  and  C_20
REMARK    6  A    between atoms: C_20  and  C_21
REMARK    7  A    between atoms: C_21  and  O_22
REMARK    8  A    between atoms: O_22  and  C_23
REMARK    9  A    between atoms: O_30  and  C_31
REMARK                            x       y       z     vdW  Elec       q    Type
REMARK                         _______ _______ _______ _____ _____    ______ ____
ROOT
ATOM      1  C   UNL     1       0.618  -0.369  -1.200  0.00  0.00    +0.256 C 
ATOM      2  O   UNL     1      -0.108  -0.804  -2.069  0.00  0.00    -0.272 OA
ATOM      3  N   UNL     1       1.894  -0.044  -1.488  0.00  0.00    -0.297 N 
ATOM      4  C   UNL     1       2.925   0.491  -0.568  0.00  0.00    +0.121 C 
ATOM      5  C   UNL     1       4.230  -0.222  -0.986  0.00  0.00    +0.100 C 
ATOM      6  C   UNL     1       4.000  -0.634  -2.450  0.00  0.00    -0.004 C 
ATOM      7  C   UNL     1       2.585  -0.148  -2.796  0.00  0.00    +0.115 C 
ATOM      8  C   UNL     1       4.080  -2.151  -2.591  0.00  0.00    -0.010 C 
ATOM      9  C   UNL     1       3.905  -2.531  -4.064  0.00  0.00    -0.082 C 
ATOM     10  N   UNL     1       4.955  -1.889  -4.865  0.00  0.00    +0.379 N 
ATOM     11  C   UNL     1       4.814  -0.430  -4.798  0.00  0.00    -0.082 C 
ATOM     12  C   UNL     1       5.027   0.040  -3.356  0.00  0.00    -0.010 C 
ATOM     13  H   UNL     1       5.860  -2.155  -4.507  0.00  0.00    -0.086 HD
ATOM     14  H   UNL     1       4.875  -2.189  -5.825  0.00  0.00    -0.086 HD
ENDROOT
BRANCH   5  15
ATOM     15  C   UNL     1       5.400   0.721  -0.881  0.00  0.00    +0.218 C 
ATOM     16  O   UNL     1       5.239   1.910  -1.061  0.00  0.00    -0.275 OA
ATOM     17  N   UNL     1       6.626   0.244  -0.588  0.00  0.00    -0.312 N 
ATOM     18  H   UNL     1       6.755  -0.706  -0.444  0.00  0.00    +0.149 HD
BRANCH  17  19
ATOM     19  C   UNL     1       7.764   1.161  -0.485  0.00  0.00    +0.145 C 
BRANCH  19  20
ATOM     20  C   UNL     1       9.028   0.370  -0.145  0.00  0.00    +0.248 C 
BRANCH  20  21
ATOM     21  O   UNL     1       9.346  -0.508  -1.227  0.00  0.00    -0.489 OA
BRANCH  21  22
ATOM     22  C   UNL     1      10.450  -1.289  -1.084  0.00  0.00    +0.139 A 
ATOM     23  C   UNL     1      11.207  -1.216   0.076  0.00  0.00    +0.047 A 
ATOM     24  C   UNL     1      12.328  -2.011   0.219  0.00  0.00    +0.004 A 
ATOM     25  C   UNL     1      12.696  -2.879  -0.792  0.00  0.00    +0.002 A 
ATOM     26  C   UNL     1      11.943  -2.954  -1.950  0.00  0.00    +0.023 A 
ATOM     27  C   UNL     1      10.817  -2.165  -2.096  0.00  0.00    +0.083 A 
ATOM     28 CL   UNL     1       9.868  -2.265  -3.546  0.00  0.00    -0.080 Cl
ENDBRANCH  21  22
ENDBRANCH  20  21
ENDBRANCH  19  20
ENDBRANCH  17  19
ENDBRANCH   5  15
BRANCH   1  30
ATOM     29  C   UNL     1       0.083   1.298   0.557  0.00  0.00    +0.062 C 
ATOM     30  C   UNL     1       0.093  -0.191   0.201  0.00  0.00    +0.256 C 
BRANCH  30  31
ATOM     31  O   UNL     1      -1.237  -0.709   0.281  0.00  0.00    -0.480 OA
BRANCH  31  32
ATOM     32  C   UNL     1      -1.669  -1.113   1.504  0.00  0.00    +0.122 A 
ATOM     33  C   UNL     1      -2.904  -1.730   1.636  0.00  0.00    +0.045 A 
ATOM     34  C   UNL     1      -3.341  -2.141   2.880  0.00  0.00    +0.004 A 
ATOM     35  C   UNL     1      -2.548  -1.937   3.994  0.00  0.00    +0.000 A 
ATOM     36  C   UNL     1      -1.317  -1.322   3.866  0.00  0.00    +0.004 A 
ATOM     37  C   UNL     1      -0.873  -0.915   2.623  0.00  0.00    +0.045 A 
ENDBRANCH  31  32
ENDBRANCH  30  31
ENDBRANCH   1  30
TORSDOF 8
