REMARK  Name = ZINC64993628
REMARK  9 active torsions:
REMARK  status: ('A' for Active; 'I' for Inactive)
REMARK    1  A    between atoms: C_1  and  C_2
REMARK    2  A    between atoms: C_6  and  C_7
REMARK    3  A    between atoms: C_7  and  N_8
REMARK    4  A    between atoms: N_8  and  C_9
REMARK    5  A    between atoms: N_8  and  C_25
REMARK    6  A    between atoms: C_9  and  C_10
REMARK    7  A    between atoms: N_12  and  N_13
REMARK    8  A    between atoms: C_25  and  C_26
REMARK    9  A    between atoms: C_25  and  C_27
REMARK                            x       y       z     vdW  Elec       q    Type
REMARK                         _______ _______ _______ _____ _____    ______ ____
ROOT
ATOM      1  C   UNL     1      -1.675   0.310   5.266  0.00  0.00    +0.213 C 
ATOM      2  O   UNL     1      -2.786  -0.026   4.912  0.00  0.00    -0.276 OA
ATOM      3  N   UNL     1      -1.476   0.766   6.519  0.00  0.00    -0.225 N 
ATOM      4  H   UNL     1      -0.588   1.035   6.802  0.00  0.00    +0.173 HD
ENDROOT
BRANCH   3   5
ATOM      5  N   UNL     1      -2.552   0.852   7.412  0.00  0.00    -0.137 N 
ATOM      6  C   UNL     1      -3.158   2.006   7.760  0.00  0.00    +0.263 C 
ATOM      7  O   UNL     1      -2.886   3.123   7.375  0.00  0.00    -0.271 OA
ATOM      8  C   UNL     1      -4.248   1.613   8.731  0.00  0.00    +0.114 C 
ATOM      9  C   UNL     1      -5.616   1.998   8.180  0.00  0.00    +0.035 C 
ATOM     10  C   UNL     1      -6.706   1.564   9.163  0.00  0.00    +0.003 C 
ATOM     11  C   UNL     1      -6.472   2.244  10.514  0.00  0.00    +0.000 C 
ATOM     12  C   UNL     1      -5.106   1.830  11.065  0.00  0.00    +0.003 C 
ATOM     13  C   UNL     1      -4.010   2.265  10.089  0.00  0.00    +0.035 C 
ATOM     14  N   UNL     1      -4.125   0.153   8.832  0.00  0.00    -0.284 N 
ATOM     15  C   UNL     1      -3.110  -0.201   8.021  0.00  0.00    +0.326 C 
ATOM     16  O   UNL     1      -2.740  -1.348   7.863  0.00  0.00    -0.251 OA
ATOM     17  H   UNL     1      -4.670  -0.439   9.373  0.00  0.00    +0.151 HD
ENDBRANCH   3   5
BRANCH   1  18
ATOM     18  C   UNL     1      -0.518   0.218   4.305  0.00  0.00    +0.021 C 
BRANCH  18  19
ATOM     19  N   UNL     1      -1.022  -0.095   2.961  0.00  0.00    +0.390 N 
ATOM     20  H   UNL     1      -1.796  -0.738   3.033  0.00  0.00    -0.080 HD
BRANCH  19  21
ATOM     21  C   UNL     1      -1.471   1.141   2.307  0.00  0.00    -0.074 C 
ATOM     22  C   UNL     1      -2.693   1.693   3.043  0.00  0.00    -0.013 C 
ATOM     23  C   UNL     1      -0.344   2.175   2.342  0.00  0.00    -0.013 C 
ENDBRANCH  19  21
BRANCH  19  24
ATOM     24  C   UNL     1       0.052  -0.708   2.167  0.00  0.00    -0.034 C 
BRANCH  24  30
ATOM     25  C   UNL     1       0.760   0.468  -0.582  0.00  0.00    +0.044 C 
ATOM     26  C   UNL     1      -0.220  -0.663  -0.404  0.00  0.00    -0.042 A 
ATOM     27  C   UNL     1      -0.846  -1.228  -1.499  0.00  0.00    +0.011 A 
ATOM     28  C   UNL     1      -1.722  -2.244  -1.304  0.00  0.00    +0.045 A 
ATOM     29  S   UNL     1      -1.684  -2.429   0.471  0.00  0.00    -0.103 S 
ATOM     30  C   UNL     1      -0.498  -1.144   0.833  0.00  0.00    -0.024 A 
ENDBRANCH  24  30
ENDBRANCH  19  24
ENDBRANCH  18  19
ENDBRANCH   1  18
TORSDOF 6
