REMARK  Name = ZINC32802955
REMARK  5 active torsions:
REMARK  status: ('A' for Active; 'I' for Inactive)
REMARK    1  A    between atoms: C_1  and  N_2
REMARK    2  A    between atoms: N_2  and  C_3
REMARK    3  A    between atoms: C_3  and  C_4
REMARK    4  A    between atoms: N_17  and  C_18
REMARK    5  A    between atoms: C_18  and  C_19
REMARK                            x       y       z     vdW  Elec       q    Type
REMARK                         _______ _______ _______ _____ _____    ______ ____
ROOT
ATOM      1  C   UNL     1      -0.018   1.461   0.010  0.00  0.00    +0.134 C 
ATOM      2  N   UNL     1       0.002  -0.004   0.002  0.00  0.00    -0.281 N 
ATOM      3  C   UNL     1       0.000  -0.672  -1.169  0.00  0.00    +0.303 C 
ATOM      4  O   UNL     1       0.017  -1.887  -1.175  0.00  0.00    -0.253 OA
ATOM      5  N   UNL     1      -0.020   0.009  -2.332  0.00  0.00    -0.295 N 
ATOM      6  H   UNL     1      -0.033   0.978  -2.327  0.00  0.00    +0.151 HD
ENDROOT
BRANCH   2   7
ATOM      7  C   UNL     1       0.024  -0.743   1.267  0.00  0.00    +0.183 C 
BRANCH   7   8
ATOM      8  C   UNL     1      -1.389  -1.016   1.714  0.00  0.00    +0.128 A 
ATOM      9  N   UNL     1      -1.579  -1.692   2.877  0.00  0.00    -0.309 N 
ATOM     10  H   UNL     1      -0.819  -1.988   3.402  0.00  0.00    +0.170 HD
ATOM     11  C   UNL     1      -2.842  -1.948   3.298  0.00  0.00    +0.266 A 
ATOM     12  O   UNL     1      -3.046  -2.551   4.338  0.00  0.00    -0.267 OA
ATOM     13  C   UNL     1      -3.901  -1.501   2.508  0.00  0.00    +0.102 A 
ATOM     14  C   UNL     1      -3.677  -0.804   1.308  0.00  0.00    +0.085 A 
ATOM     15  N   UNL     1      -2.362  -0.591   0.973  0.00  0.00    -0.232 NA
ATOM     16  C   UNL     1      -4.829  -0.413   0.612  0.00  0.00    +0.036 A 
ATOM     17  C   UNL     1      -6.052  -0.708   1.103  0.00  0.00    +0.048 A 
ATOM     18  S   UNL     1      -5.669  -1.580   2.614  0.00  0.00    -0.090 S 
ENDBRANCH   7   8
ENDBRANCH   2   7
BRANCH   5  19
ATOM     19  C   UNL     1      -0.022  -0.717  -3.605  0.00  0.00    +0.141 C 
BRANCH  19  20
ATOM     20  C   UNL     1      -0.047   0.268  -4.745  0.00  0.00    -0.026 A 
ATOM     21  C   UNL     1      -1.252   0.721  -5.267  0.00  0.00    +0.023 A 
ATOM     22  C   UNL     1      -1.240   1.623  -6.311  0.00  0.00    +0.084 A 
ATOM     23  N   UNL     1      -0.101   2.059  -6.816  0.00  0.00    -0.350 N 
ATOM     24  C   UNL     1       1.068   1.652  -6.346  0.00  0.00    +0.099 A 
ATOM     25  C   UNL     1       1.130   0.747  -5.291  0.00  0.00    +0.047 A 
ATOM     26  N   UNL     1       2.243   2.136  -6.908  0.00  0.00    -0.317 N 
ATOM     27  C   UNL     1       3.606   1.769  -6.495  0.00  0.00    +0.106 C 
ATOM     28  C   UNL     1       4.584   2.571  -7.380  0.00  0.00    +0.020 C 
ATOM     29  C   UNL     1       3.720   3.768  -7.857  0.00  0.00    +0.020 C 
ATOM     30  C   UNL     1       2.330   3.099  -8.021  0.00  0.00    +0.106 C 
ATOM     31  H   UNL     1      -0.121   2.694  -7.549  0.00  0.00    +0.166 HD
ENDBRANCH  19  20
ENDBRANCH   5  19
TORSDOF 4
