REMARK  Name = ZINC03003725
REMARK  8 active torsions:
REMARK  status: ('A' for Active; 'I' for Inactive)
REMARK    1  A    between atoms: C_6  and  N_7
REMARK    2  A    between atoms: C_8  and  C_10
REMARK    3  A    between atoms: C_14  and  N_15
REMARK    4  A    between atoms: C_16  and  C_18
REMARK    5  A    between atoms: C_18  and  N_45
REMARK    6  A    between atoms: C_19  and  C_20
REMARK    7  A    between atoms: C_19  and  N_45
REMARK    8  A    between atoms: C_20  and  O_21
REMARK                            x       y       z     vdW  Elec       q    Type
REMARK                         _______ _______ _______ _____ _____    ______ ____
ROOT
ATOM      1  C   UNL     1      -1.115   2.234   0.018  0.00  0.00    +0.069 A 
ATOM      2  C   UNL     1      -0.868   3.675   0.035  0.00  0.00    -0.023 A 
ATOM      3  C   UNL     1       0.429   4.032   0.025  0.00  0.00    -0.004 A 
ATOM      4  S   UNL     1       1.321   2.497  -0.001  0.00  0.00    -0.077 S 
ATOM      5  C   UNL     1      -0.014   1.395   0.003  0.00  0.00    +0.084 A 
ATOM      6  C   UNL     1       0.603   5.527   0.041  0.00  0.00    +0.043 C 
ATOM      7  C   UNL     1      -0.767   6.073   0.500  0.00  0.00    +0.010 C 
ATOM      8  C   UNL     1      -1.720   4.945   0.056  0.00  0.00    +0.037 C 
ENDROOT
BRANCH   1  10
ATOM      9  N   UNL     1      -3.113   1.462  -1.144  0.00  0.00    -0.281 N 
ATOM     10  C   UNL     1      -2.479   1.697   0.021  0.00  0.00    +0.251 C 
ATOM     11  O   UNL     1      -3.039   1.465   1.077  0.00  0.00    -0.270 OA
ATOM     12  H   UNL     1      -2.694   1.709  -1.983  0.00  0.00    +0.155 HD
BRANCH   9  18
ATOM     13  C   UNL     1      -4.731  -0.013  -2.165  0.00  0.00    +0.024 A 
ATOM     14  C   UNL     1      -5.977  -0.610  -2.159  0.00  0.00    +0.017 A 
ATOM     15  C   UNL     1      -6.875  -0.330  -1.144  0.00  0.00    +0.018 A 
ATOM     16  C   UNL     1      -6.526   0.543  -0.129  0.00  0.00    +0.017 A 
ATOM     17  C   UNL     1      -5.280   1.138  -0.127  0.00  0.00    +0.024 A 
ATOM     18  C   UNL     1      -4.376   0.860  -1.144  0.00  0.00    +0.034 A 
ATOM     19 BR   UNL     1      -8.582  -1.144  -1.144  0.00  0.00    -0.050 Br
ENDBRANCH   9  18
ENDBRANCH   1  10
BRANCH   5  20
ATOM     20  N   UNL     1       0.013   0.009  -0.011  0.00  0.00    -0.281 N 
ATOM     21  C   UNL     1       1.193  -0.642  -0.030  0.00  0.00    +0.201 C 
ATOM     22  O   UNL     1       2.231  -0.016  -0.035  0.00  0.00    -0.278 OA
ATOM     23  H   UNL     1      -0.818  -0.492  -0.006  0.00  0.00    +0.155 HD
BRANCH  21  24
ATOM     24  C   UNL     1       1.222  -2.149  -0.046  0.00  0.00    +0.015 C 
BRANCH  24  25
ATOM     25  N   UNL     1       2.624  -2.605  -0.066  0.00  0.00    +0.386 N 
ATOM     26  H   UNL     1       3.106  -2.256   0.771  0.00  0.00    -0.085 HD
ATOM     27  H   UNL     1       3.088  -2.239  -0.906  0.00  0.00    -0.085 HD
BRANCH  25  28
ATOM     28  C   UNL     1       2.683  -4.079  -0.081  0.00  0.00    -0.054 C 
BRANCH  28  29
ATOM     29  C   UNL     1       4.148  -4.522  -0.102  0.00  0.00    +0.137 C 
BRANCH  29  30
ATOM     30  O   UNL     1       4.782  -4.127   1.116  0.00  0.00    -0.397 OA
ATOM     31  H   UNL     1       5.715  -4.376   1.173  0.00  0.00    +0.209 HD
ENDBRANCH  29  30
ENDBRANCH  28  29
ENDBRANCH  25  28
ENDBRANCH  24  25
ENDBRANCH  21  24
ENDBRANCH   5  20
TORSDOF 8
