REMARK  Name = ZINC40729583
REMARK  9 active torsions:
REMARK  status: ('A' for Active; 'I' for Inactive)
REMARK    1  A    between atoms: C_1  and  C_2
REMARK    2  A    between atoms: C_2  and  C_3
REMARK    3  A    between atoms: C_2  and  O_4
REMARK    4  A    between atoms: O_4  and  C_5
REMARK    5  A    between atoms: C_14  and  C_15
REMARK    6  A    between atoms: C_15  and  N_16
REMARK    7  A    between atoms: N_16  and  C_17
REMARK    8  A    between atoms: C_21  and  C_28
REMARK    9  A    between atoms: C_24  and  C_27
REMARK                            x       y       z     vdW  Elec       q    Type
REMARK                         _______ _______ _______ _____ _____    ______ ____
ROOT
ATOM      1  C   UNL     1      -4.029  -1.260   0.043  0.00  0.00    -0.042 C 
ENDROOT
BRANCH   1  11
ATOM      2  C   UNL     1      -1.965  -0.607  -1.189  0.00  0.00    +0.123 A 
ATOM      3  C   UNL     1      -1.254  -0.344  -2.364  0.00  0.00    +0.046 A 
ATOM      4  C   UNL     1      -1.853  -0.444  -3.581  0.00  0.00    +0.012 A 
ATOM      5  C   UNL     1      -3.206  -0.816  -3.663  0.00  0.00    -0.017 A 
ATOM      6  C   UNL     1      -3.856  -0.929  -4.904  0.00  0.00    +0.008 A 
ATOM      7  C   UNL     1      -5.168  -1.292  -4.947  0.00  0.00    +0.001 A 
ATOM      8  C   UNL     1      -5.878  -1.554  -3.777  0.00  0.00    +0.001 A 
ATOM      9  C   UNL     1      -5.282  -1.455  -2.558  0.00  0.00    +0.009 A 
ATOM     10  C   UNL     1      -3.929  -1.083  -2.473  0.00  0.00    -0.013 A 
ATOM     11  C   UNL     1      -3.279  -0.975  -1.233  0.00  0.00    -0.015 A 
BRANCH   2  12
ATOM     12  O   UNL     1      -1.339  -0.499   0.012  0.00  0.00    -0.489 OA
BRANCH  12  14
ATOM     13  C   UNL     1       0.299   1.272  -0.136  0.00  0.00    +0.051 C 
ATOM     14  C   UNL     1       0.066  -0.235  -0.010  0.00  0.00    +0.167 C 
ATOM     15  C   UNL     1       0.701  -0.742   1.286  0.00  0.00    +0.051 C 
ENDBRANCH  12  14
ENDBRANCH   2  12
ENDBRANCH   1  11
BRANCH   1  16
ATOM     16  N   UNL     1      -4.649  -0.022   0.534  0.00  0.00    +0.386 N 
ATOM     17  H   UNL     1      -3.932   0.665   0.712  0.00  0.00    -0.085 HD
ATOM     18  H   UNL     1      -5.289   0.332  -0.161  0.00  0.00    -0.085 HD
BRANCH  16  19
ATOM     19  C   UNL     1      -5.380  -0.300   1.777  0.00  0.00    -0.067 C 
ATOM     20  C   UNL     1      -4.409  -0.837   2.831  0.00  0.00    -0.009 C 
ATOM     21  C   UNL     1      -5.171  -1.126   4.126  0.00  0.00    -0.011 C 
ATOM     22  C   UNL     1      -5.816   0.163   4.637  0.00  0.00    +0.010 C 
ATOM     23  C   UNL     1      -6.787   0.700   3.583  0.00  0.00    -0.033 C 
ATOM     24  C   UNL     1      -6.025   0.990   2.288  0.00  0.00    -0.006 C 
ATOM     25  C   UNL     1      -7.874  -0.342   3.314  0.00  0.00    +0.013 C 
ATOM     26  C   UNL     1      -7.229  -1.631   2.802  0.00  0.00    -0.033 C 
ATOM     27  C   UNL     1      -6.258  -2.168   3.856  0.00  0.00    +0.010 C 
ATOM     28  C   UNL     1      -6.467  -1.342   1.507  0.00  0.00    -0.006 C 
ATOM     29  C   UNL     1      -8.316  -2.674   2.533  0.00  0.00    +0.011 C 
ATOM     30  C   UNL     1      -7.432   1.990   4.095  0.00  0.00    +0.011 C 
ENDBRANCH  16  19
ENDBRANCH   1  16
TORSDOF 5
