REMARK  Name = ZINC09504152
REMARK  7 active torsions:
REMARK  status: ('A' for Active; 'I' for Inactive)
REMARK    1  A    between atoms: C_1  and  C_2
REMARK    2  A    between atoms: N_11  and  C_15
REMARK    3  A    between atoms: C_15  and  C_16
REMARK    4  A    between atoms: N_18  and  C_19
REMARK    5  A    between atoms: C_19  and  C_20
REMARK    6  A    between atoms: C_25  and  C_26
REMARK    7  A    between atoms: C_26  and  N_63
REMARK                            x       y       z     vdW  Elec       q    Type
REMARK                         _______ _______ _______ _____ _____    ______ ____
ROOT
ATOM      1  C   UNL     1      -0.154   0.256  -0.377  0.00  0.00    +0.231 C 
ATOM      2  O   UNL     1      -0.305  -0.886  -0.756  0.00  0.00    -0.274 OA
ATOM      3  N   UNL     1      -1.227   1.046  -0.174  0.00  0.00    -0.310 N 
ATOM      4  H   UNL     1      -1.107   1.959   0.130  0.00  0.00    +0.149 HD
ENDROOT
BRANCH   1   5
ATOM      5  C   UNL     1       1.233   0.794  -0.139  0.00  0.00    +0.213 C 
BRANCH   5  15
ATOM      6  C   UNL     1       5.476  -0.402   0.340  0.00  0.00    +0.010 C 
ATOM      7  C   UNL     1       5.059  -1.874   0.330  0.00  0.00    +0.018 C 
ATOM      8  C   UNL     1       5.045  -2.410   1.764  0.00  0.00    +0.006 C 
ATOM      9  C   UNL     1       4.608  -3.876   1.755  0.00  0.00    +0.000 C 
ATOM     10  C   UNL     1       3.200  -3.986   1.167  0.00  0.00    +0.003 C 
ATOM     11  C   UNL     1       3.206  -3.456  -0.270  0.00  0.00    +0.035 C 
ATOM     12  C   UNL     1       3.666  -2.002  -0.277  0.00  0.00    +0.115 C 
ATOM     13  C   UNL     1       2.685  -1.131   0.474  0.00  0.00    +0.247 C 
ATOM     14  O   UNL     1       2.380  -1.209   1.644  0.00  0.00    -0.273 OA
ATOM     15  N   UNL     1       2.219  -0.249  -0.435  0.00  0.00    -0.215 N 
ATOM     16  C   UNL     1       2.773  -0.441  -1.638  0.00  0.00    +0.310 C 
ATOM     17  O   UNL     1       2.514   0.232  -2.616  0.00  0.00    -0.252 OA
ATOM     18  N   UNL     1       3.648  -1.464  -1.643  0.00  0.00    -0.285 N 
ATOM     19  H   UNL     1       4.165  -1.783  -2.399  0.00  0.00    +0.151 HD
ENDBRANCH   5  15
ENDBRANCH   1   5
BRANCH   3  20
ATOM     20  C   UNL     1      -2.576   0.525  -0.411  0.00  0.00    +0.139 C 
BRANCH  20  21
ATOM     21  C   UNL     1      -3.589   1.599  -0.112  0.00  0.00    -0.029 A 
ATOM     22  C   UNL     1      -4.245   1.612   1.105  0.00  0.00    +0.005 A 
ATOM     23  C   UNL     1      -5.171   2.600   1.381  0.00  0.00    +0.000 A 
ATOM     24  C   UNL     1      -5.449   3.570   0.436  0.00  0.00    +0.000 A 
ATOM     25  C   UNL     1      -4.798   3.554  -0.783  0.00  0.00    +0.002 A 
ATOM     26  C   UNL     1      -3.867   2.569  -1.057  0.00  0.00    -0.059 A 
BRANCH  26  27
ATOM     27  C   UNL     1      -3.157   2.552  -2.386  0.00  0.00    -0.042 C 
BRANCH  27  33
ATOM     28  C   UNL     1      -1.899   4.585  -2.001  0.00  0.00    -0.050 C 
ATOM     29  C   UNL     1      -0.489   5.143  -1.789  0.00  0.00    +0.141 C 
ATOM     30  O   UNL     1       0.321   4.820  -2.922  0.00  0.00    -0.383 OA
ATOM     31  C   UNL     1       0.422   3.417  -3.177  0.00  0.00    +0.141 C 
ATOM     32  C   UNL     1      -0.979   2.842  -3.404  0.00  0.00    -0.050 C 
ATOM     33  N   UNL     1      -1.805   3.126  -2.212  0.00  0.00    +0.385 N 
ATOM     34  H   UNL     1      -1.364   2.697  -1.389  0.00  0.00    -0.081 HD
ENDBRANCH  27  33
ENDBRANCH  26  27
ENDBRANCH  20  21
ENDBRANCH   3  20
TORSDOF 6
