REMARK  Name = ZINC08789699
REMARK  6 active torsions:
REMARK  status: ('A' for Active; 'I' for Inactive)
REMARK    1  A    between atoms: C_1  and  C_2
REMARK    2  A    between atoms: C_16  and  C_18
REMARK    3  A    between atoms: C_18  and  C_19
REMARK    4  A    between atoms: C_19  and  C_20
REMARK    5  A    between atoms: N_25  and  C_28
REMARK    6  A    between atoms: C_31  and  C_34
REMARK                            x       y       z     vdW  Elec       q    Type
REMARK                         _______ _______ _______ _____ _____    ______ ____
ROOT
ATOM      1  C   UNL     1      -6.303   3.638   3.624  0.00  0.00    +0.047 C 
ATOM      2  C   UNL     1      -4.845   3.714   3.253  0.00  0.00    -0.011 A 
ATOM      3  C   UNL     1      -4.229   4.944   3.129  0.00  0.00    +0.046 A 
ATOM      4  C   UNL     1      -2.890   5.023   2.789  0.00  0.00    +0.020 A 
ATOM      5  C   UNL     1      -2.166   3.865   2.572  0.00  0.00    +0.006 A 
ATOM      6  C   UNL     1      -2.775   2.636   2.694  0.00  0.00    -0.027 A 
ATOM      7  C   UNL     1      -4.122   2.544   3.037  0.00  0.00    +0.040 A 
ATOM      8  N   UNL     1      -4.513   1.205   3.101  0.00  0.00    -0.286 N 
ATOM      9  C   UNL     1      -3.498   0.365   2.817  0.00  0.00    +0.211 C 
ATOM     10  O   UNL     1      -3.545  -0.847   2.797  0.00  0.00    -0.277 OA
ATOM     11  C   UNL     1      -2.295   1.222   2.531  0.00  0.00    +0.050 C 
ATOM     12  C   UNL     1      -1.140   0.903   3.486  0.00  0.00    +0.088 C 
ATOM     13  C   UNL     1       0.141   1.053   2.618  0.00  0.00    +0.073 C 
ATOM     14  C   UNL     1      -0.374   1.475   1.225  0.00  0.00    -0.057 C 
ATOM     15  C   UNL     1       0.859   2.221   3.256  0.00  0.00    +0.228 C 
ATOM     16  O   UNL     1       1.919   2.677   2.887  0.00  0.00    -0.275 OA
ATOM     17  N   UNL     1       0.142   2.672   4.292  0.00  0.00    -0.210 N 
ATOM     18  C   UNL     1      -0.999   2.008   4.509  0.00  0.00    +0.229 C 
ATOM     19  O   UNL     1      -1.796   2.253   5.388  0.00  0.00    -0.275 OA
ATOM     20 CL   UNL     1      -5.140   6.397   3.401  0.00  0.00    -0.083 Cl
ATOM     21  H   UNL     1      -5.410   0.913   3.324  0.00  0.00    +0.155 HD
ATOM     22  N   UNL     1      -1.759   0.999   1.199  0.00  0.00    +0.394 N 
ATOM     23  H   UNL     1      -2.302   1.525   0.504  0.00  0.00    -0.083 HD
ATOM     24  H   UNL     1      -1.786  -0.001   0.968  0.00  0.00    -0.083 HD
ENDROOT
BRANCH  17  25
ATOM     25  C   UNL     1       0.551   3.750   5.082  0.00  0.00    +0.044 A 
ATOM     26  C   UNL     1       0.893   3.543   6.414  0.00  0.00    +0.025 A 
ATOM     27  C   UNL     1       1.301   4.602   7.194  0.00  0.00    +0.015 A 
ATOM     28  C   UNL     1       1.361   5.887   6.649  0.00  0.00    +0.037 A 
ATOM     29  C   UNL     1       1.011   6.092   5.311  0.00  0.00    +0.015 A 
ATOM     30  C   UNL     1       0.609   5.028   4.536  0.00  0.00    +0.025 A 
BRANCH  28  31
ATOM     31  C   UNL     1       1.792   7.026   7.484  0.00  0.00    +0.242 C 
ATOM     32  O   UNL     1       1.843   8.144   7.008  0.00  0.00    -0.270 OA
ATOM     33  N   UNL     1       2.129   6.827   8.773  0.00  0.00    -0.325 N 
ATOM     34  H   UNL     1       2.088   5.935   9.153  0.00  0.00    +0.145 HD
ATOM     35  H   UNL     1       2.412   7.575   9.322  0.00  0.00    +0.145 HD
ENDBRANCH  28  31
ENDBRANCH  17  25
BRANCH  14  36
ATOM     36  C   UNL     1       0.464   0.818   0.127  0.00  0.00    -0.006 C 
BRANCH  36  37
ATOM     37  C   UNL     1      -0.007   1.317  -1.241  0.00  0.00    +0.094 C 
BRANCH  37  38
ATOM     38  C   UNL     1       0.818   0.670  -2.323  0.00  0.00    +0.210 C 
ATOM     39  O   UNL     1       1.697  -0.113  -2.030  0.00  0.00    -0.276 OA
ATOM     40  N   UNL     1       0.580   0.961  -3.618  0.00  0.00    -0.329 N 
ATOM     41  H   UNL     1      -0.122   1.587  -3.852  0.00  0.00    +0.145 HD
ATOM     42  H   UNL     1       1.111   0.544  -4.314  0.00  0.00    +0.145 HD
ENDBRANCH  37  38
ENDBRANCH  36  37
ENDBRANCH  14  36
TORSDOF 5
