REMARK  Name = ZINC27211040
REMARK  10 active torsions:
REMARK  status: ('A' for Active; 'I' for Inactive)
REMARK    1  A    between atoms: C_3  and  C_7
REMARK    2  A    between atoms: C_7  and  C_9
REMARK    3  A    between atoms: C_7  and  O_33
REMARK    4  A    between atoms: C_9  and  N_10
REMARK    5  A    between atoms: N_10  and  C_11
REMARK    6  A    between atoms: C_11  and  C_12
REMARK    7  A    between atoms: C_12  and  C_13
REMARK    8  A    between atoms: C_16  and  N_19
REMARK    9  A    between atoms: N_21  and  C_22
REMARK   10  A    between atoms: N_30  and  C_31
REMARK                            x       y       z     vdW  Elec       q    Type
REMARK                         _______ _______ _______ _____ _____    ______ ____
ROOT
ATOM      1  C   UNL     1       9.895   5.290  -4.220  0.00  0.00    -0.049 A 
ATOM      2  C   UNL     1       9.989   3.961  -4.593  0.00  0.00    +0.005 A 
ATOM      3  C   UNL     1       9.771   3.593  -5.906  0.00  0.00    +0.026 A 
ATOM      4  C   UNL     1       9.458   4.560  -6.853  0.00  0.00    +0.042 A 
ATOM      5  C   UNL     1       9.365   5.893  -6.476  0.00  0.00    +0.026 A 
ATOM      6  C   UNL     1       9.578   6.253  -5.160  0.00  0.00    +0.005 A 
ENDROOT
BRANCH   4   7
ATOM      7  N   UNL     1       9.238   4.191  -8.184  0.00  0.00    -0.325 N 
ATOM      8  C   UNL     1       8.368   4.915  -8.963  0.00  0.00    +0.216 C 
ATOM      9  N   UNL     1       7.836   6.020  -8.497  0.00  0.00    -0.214 NA
ATOM     10  N   UNL     1       8.055   4.481 -10.232  0.00  0.00    -0.263 N 
ATOM     11  H   UNL     1       9.700   3.424  -8.557  0.00  0.00    +0.169 HD
ATOM     12  H   UNL     1       7.521   5.040 -10.818  0.00  0.00    +0.181 HD
BRANCH   9  13
ATOM     13  C   UNL     1       7.118   6.838  -9.329  0.00  0.00    +0.070 A 
ATOM     14  C   UNL     1       7.754   7.501 -10.380  0.00  0.00    +0.048 A 
ATOM     15  C   UNL     1       7.025   8.324 -11.216  0.00  0.00    +0.044 A 
ATOM     16  C   UNL     1       5.665   8.492 -11.013  0.00  0.00    +0.040 A 
ATOM     17  C   UNL     1       5.029   7.836  -9.972  0.00  0.00    +0.044 A 
ATOM     18  C   UNL     1       5.746   7.006  -9.134  0.00  0.00    +0.048 A 
ATOM     19 CL   UNL     1       3.324   8.053  -9.726  0.00  0.00    -0.083 Cl
ATOM     20 CL   UNL     1       7.814   9.150 -12.522  0.00  0.00    -0.083 Cl
ENDBRANCH   9  13
BRANCH  10  21
ATOM     21  C   UNL     1       8.493   3.273 -10.662  0.00  0.00    +0.184 C 
ATOM     22  N   UNL     1       8.860   2.260 -11.022  0.00  0.00    -0.171 NA
ENDBRANCH  10  21
ENDBRANCH   4   7
BRANCH   1  23
ATOM     23  C   UNL     1      10.133   5.687  -2.786  0.00  0.00    +0.016 C 
BRANCH  23  24
ATOM     24  C   UNL     1       8.812   5.637  -2.017  0.00  0.00    -0.078 C 
BRANCH  24  25
ATOM     25  N   UNL     1       9.044   6.025  -0.619  0.00  0.00    +0.381 N 
ATOM     26  H   UNL     1       9.416   6.962  -0.588  0.00  0.00    -0.086 HD
ATOM     27  H   UNL     1       9.703   5.386  -0.198  0.00  0.00    -0.086 HD
BRANCH  25  28
ATOM     28  C   UNL     1       7.775   5.977   0.119  0.00  0.00    -0.046 C 
BRANCH  28  29
ATOM     29  C   UNL     1       8.017   6.380   1.575  0.00  0.00    +0.129 C 
BRANCH  29  32
ATOM     30  C   UNL     1       4.761   7.385   3.196  0.00  0.00    +0.020 A 
ATOM     31  C   UNL     1       5.952   7.477   2.491  0.00  0.00    +0.009 A 
ATOM     32  C   UNL     1       6.715   6.331   2.333  0.00  0.00    -0.003 A 
ATOM     33  C   UNL     1       6.267   5.143   2.879  0.00  0.00    +0.116 A 
ATOM     34  N   UNL     1       5.129   5.092   3.542  0.00  0.00    -0.263 NA
ATOM     35  C   UNL     1       4.377   6.162   3.713  0.00  0.00    +0.111 A 
ENDBRANCH  29  32
BRANCH  29  36
ATOM     36  O   UNL     1       8.950   5.477   2.171  0.00  0.00    -0.389 OA
ATOM     37  H   UNL     1       8.656   4.555   2.176  0.00  0.00    +0.210 HD
ENDBRANCH  29  36
ENDBRANCH  28  29
ENDBRANCH  25  28
ENDBRANCH  24  25
ENDBRANCH  23  24
ENDBRANCH   1  23
TORSDOF 10
