REMARK  Name = ZINC15945220
REMARK  9 active torsions:
REMARK  status: ('A' for Active; 'I' for Inactive)
REMARK    1  A    between atoms: C_1  and  C_2
REMARK    2  A    between atoms: C_2  and  O_3
REMARK    3  A    between atoms: O_3  and  C_4
REMARK    4  A    between atoms: C_6  and  C_12
REMARK    5  A    between atoms: C_9  and  O_10
REMARK    6  A    between atoms: C_21  and  C_25
REMARK    7  A    between atoms: C_25  and  C_26
REMARK    8  A    between atoms: C_25  and  C_27
REMARK    9  A    between atoms: C_25  and  C_28
REMARK                            x       y       z     vdW  Elec       q    Type
REMARK                         _______ _______ _______ _____ _____    ______ ____
ROOT
ATOM      1  C   UNL     1      -0.219  -4.968   0.484  0.00  0.00    +0.190 C 
ATOM      2  N   UNL     1      -0.617  -6.229  -0.168  0.00  0.00    -0.316 N 
ATOM      3  C   UNL     1      -1.842  -6.246  -0.781  0.00  0.00    +0.080 A 
ATOM      4  C   UNL     1      -2.883  -5.374  -0.428  0.00  0.00    +0.068 A 
ATOM      5  C   UNL     1      -4.125  -5.537  -1.167  0.00  0.00    -0.023 A 
ATOM      6  C   UNL     1      -4.119  -6.502  -2.113  0.00  0.00    -0.004 A 
ATOM      7  S   UNL     1      -2.494  -7.208  -2.038  0.00  0.00    -0.078 S 
ATOM      8  C   UNL     1      -5.247  -6.886  -3.021  0.00  0.00    +0.046 C 
ATOM      9  C   UNL     1      -6.304  -5.773  -2.977  0.00  0.00    -0.000 C 
ATOM     10  C   UNL     1      -6.580  -5.414  -1.514  0.00  0.00    +0.009 C 
ATOM     11  C   UNL     1      -5.370  -4.694  -0.918  0.00  0.00    +0.037 C 
ATOM     12  C   UNL     1      -2.621  -4.397   0.654  0.00  0.00    +0.248 C 
ATOM     13  O   UNL     1      -3.507  -3.690   1.098  0.00  0.00    -0.270 OA
ATOM     14  N   UNL     1      -1.359  -4.323   1.127  0.00  0.00    -0.289 N 
ATOM     15  H   UNL     1      -0.040  -7.009  -0.164  0.00  0.00    +0.149 HD
ATOM     16  H   UNL     1      -1.202  -3.813   1.937  0.00  0.00    +0.151 HD
ENDROOT
BRANCH   1  19
ATOM     17  C   UNL     1       0.777  -1.811  -1.336  0.00  0.00    +0.163 A 
ATOM     18  C   UNL     1       0.248  -2.669  -0.385  0.00  0.00    +0.056 A 
ATOM     19  C   UNL     1       0.356  -4.037  -0.552  0.00  0.00    -0.005 A 
ATOM     20  C   UNL     1       0.991  -4.553  -1.667  0.00  0.00    +0.025 A 
ATOM     21  C   UNL     1       1.520  -3.702  -2.620  0.00  0.00    +0.059 A 
ATOM     22  C   UNL     1       1.411  -2.330  -2.461  0.00  0.00    +0.172 A 
ATOM     23  I   UNL     1       2.480  -4.488  -4.308  0.00  0.00    -0.040 I 
BRANCH  22  24
ATOM     24  O   UNL     1       1.926  -1.492  -3.400  0.00  0.00    -0.503 OA
ATOM     25  H   UNL     1       2.846  -1.241  -3.241  0.00  0.00    +0.292 HD
ENDBRANCH  22  24
BRANCH  17  26
ATOM     26  O   UNL     1       0.671  -0.465  -1.174  0.00  0.00    -0.489 OA
BRANCH  26  28
ATOM     27  C   UNL     1      -0.019   1.526   0.010  0.00  0.00    +0.048 C 
ATOM     28  C   UNL     1       0.002  -0.004   0.002  0.00  0.00    +0.226 C 
ENDBRANCH  26  28
ENDBRANCH  17  26
ENDBRANCH   1  19
BRANCH   9  29
ATOM     29  C   UNL     1      -7.594  -6.265  -3.637  0.00  0.00    -0.035 C 
ATOM     30  C   UNL     1      -8.651  -5.161  -3.575  0.00  0.00    +0.011 C 
ATOM     31  C   UNL     1      -7.315  -6.623  -5.098  0.00  0.00    +0.011 C 
ATOM     32  C   UNL     1      -8.105  -7.503  -2.897  0.00  0.00    +0.011 C 
ENDBRANCH   9  29
TORSDOF 5
