REMARK  Name = ZINC12568642
REMARK  8 active torsions:
REMARK  status: ('A' for Active; 'I' for Inactive)
REMARK    1  A    between atoms: C_1  and  C_2
REMARK    2  A    between atoms: C_5  and  C_8
REMARK    3  A    between atoms: C_9  and  C_34
REMARK    4  A    between atoms: C_17  and  C_19
REMARK    5  A    between atoms: C_19  and  S_20
REMARK    6  A    between atoms: S_20  and  C_21
REMARK    7  A    between atoms: N_26  and  C_27
REMARK    8  A    between atoms: C_27  and  C_28
REMARK                            x       y       z     vdW  Elec       q    Type
REMARK                         _______ _______ _______ _____ _____    ______ ____
ROOT
ATOM      1  C   UNL     1      -8.806   6.446  12.776  0.00  0.00    +0.007 A 
ATOM      2  C   UNL     1      -7.855   6.742  13.694  0.00  0.00    -0.003 A 
ATOM      3  S   UNL     1      -6.330   6.481  12.809  0.00  0.00    -0.073 S 
ATOM      4  C   UNL     1      -6.998   5.985  11.242  0.00  0.00    +0.116 A 
ATOM      5  C   UNL     1      -8.387   6.033  11.441  0.00  0.00    +0.080 A 
ATOM      6  C   UNL     1      -9.189   5.672  10.312  0.00  0.00    +0.260 A 
ATOM      7  O   UNL     1     -10.405   5.683  10.387  0.00  0.00    -0.267 OA
ATOM      8  N   UNL     1      -8.579   5.320   9.165  0.00  0.00    -0.310 N 
ATOM      9  H   UNL     1      -9.117   5.074   8.396  0.00  0.00    +0.170 HD
ATOM     10  C   UNL     1      -7.225   5.301   9.063  0.00  0.00    +0.121 A 
ATOM     11  N   UNL     1      -6.467   5.621  10.077  0.00  0.00    -0.226 NA
ATOM     12  C   UNL     1      -8.042   7.186  15.122  0.00  0.00    +0.052 C 
ENDROOT
BRANCH   1  17
ATOM     13  C   UNL     1     -14.394   6.810  14.116  0.00  0.00    +0.044 C 
ATOM     14  C   UNL     1     -12.931   6.714  13.765  0.00  0.00    -0.050 A 
ATOM     15  C   UNL     1     -12.130   5.780  14.398  0.00  0.00    +0.004 A 
ATOM     16  C   UNL     1     -10.791   5.689  14.081  0.00  0.00    +0.009 A 
ATOM     17  C   UNL     1     -10.244   6.539  13.121  0.00  0.00    -0.016 A 
ATOM     18  C   UNL     1     -11.055   7.482  12.490  0.00  0.00    +0.009 A 
ATOM     19  C   UNL     1     -12.395   7.561  12.811  0.00  0.00    +0.004 A 
ENDBRANCH   1  17
BRANCH  10  20
ATOM     20  C   UNL     1      -6.586   4.900   7.758  0.00  0.00    +0.150 C 
BRANCH  20  21
ATOM     21  S   UNL     1      -4.781   4.970   7.923  0.00  0.00    -0.089 S 
BRANCH  21  22
ATOM     22  C   UNL     1      -4.189   4.479   6.337  0.00  0.00    +0.160 A 
ATOM     23  N   UNL     1      -4.870   4.135   5.261  0.00  0.00    -0.133 NA
ATOM     24  N   UNL     1      -4.200   3.787   4.110  0.00  0.00    -0.125 NA
ATOM     25  C   UNL     1      -2.882   3.789   4.091  0.00  0.00    +0.182 A 
ATOM     26  S   UNL     1      -2.508   4.315   5.757  0.00  0.00    -0.025 S 
ATOM     27  N   UNL     1      -2.015   3.472   3.052  0.00  0.00    -0.320 N 
ATOM     28  H   UNL     1      -1.056   3.525   3.188  0.00  0.00    +0.148 HD
BRANCH  27  29
ATOM     29  C   UNL     1      -2.550   3.059   1.752  0.00  0.00    +0.135 C 
BRANCH  29  30
ATOM     30  C   UNL     1      -1.394   2.771   0.793  0.00  0.00    +0.135 C 
ATOM     31  C   UNL     1      -1.928   2.453  -0.626  0.00  0.00    +0.035 C 
ATOM     32  C   UNL     1      -0.778   1.606  -1.224  0.00  0.00    +0.031 C 
ATOM     33  C   UNL     1      -0.013   1.086   0.008  0.00  0.00    +0.160 C 
ATOM     34  O   UNL     1      -0.705   1.559   1.176  0.00  0.00    -0.375 OA
ENDBRANCH  29  30
ENDBRANCH  27  29
ENDBRANCH  21  22
ENDBRANCH  20  21
ENDBRANCH  10  20
TORSDOF 6
