REMARK  Name = ZINC04528489
REMARK  4 active torsions:
REMARK  status: ('A' for Active; 'I' for Inactive)
REMARK    1  A    between atoms: C_4  and  C_7
REMARK    2  A    between atoms: N_11  and  C_12
REMARK    3  A    between atoms: N_19  and  C_20
REMARK    4  A    between atoms: C_20  and  C_21
REMARK                            x       y       z     vdW  Elec       q    Type
REMARK                         _______ _______ _______ _____ _____    ______ ____
ROOT
ATOM      1  C   UNL     1      -3.479   2.291   2.101  0.00  0.00    +0.058 A 
ATOM      2  C   UNL     1      -3.649   2.161   3.433  0.00  0.00    +0.075 A 
ATOM      3  S   UNL     1      -3.457   0.401   3.664  0.00  0.00    -0.059 S 
ATOM      4  C   UNL     1      -3.167  -0.044   1.959  0.00  0.00    +0.152 A 
ATOM      5  N   UNL     1      -2.948  -1.234   1.434  0.00  0.00    -0.336 N 
ATOM      6  N   UNL     1      -3.231   1.181   1.339  0.00  0.00    -0.313 N 
ATOM      7  H   UNL     1      -2.701  -1.327   0.366  0.00  0.00    +0.168 HD
ENDROOT
BRANCH   5   8
ATOM      8  C   UNL     1      -3.027  -2.353   2.217  0.00  0.00    +0.041 A 
ATOM      9  C   UNL     1      -1.873  -2.887   2.796  0.00  0.00    +0.027 A 
ATOM     10  C   UNL     1      -1.960  -4.013   3.589  0.00  0.00    +0.017 A 
ATOM     11  C   UNL     1      -3.187  -4.618   3.803  0.00  0.00    +0.018 A 
ATOM     12  C   UNL     1      -4.334  -4.097   3.228  0.00  0.00    +0.017 A 
ATOM     13  C   UNL     1      -4.261  -2.969   2.438  0.00  0.00    +0.027 A 
ATOM     14 BR   UNL     1      -3.296  -6.165   4.886  0.00  0.00    -0.050 Br
ENDBRANCH   5   8
BRANCH   1  18
ATOM     15  C   UNL     1      -3.715   6.122   0.281  0.00  0.00    +0.000 A 
ATOM     16  C   UNL     1      -4.485   5.080  -0.205  0.00  0.00    +0.001 A 
ATOM     17  C   UNL     1      -4.413   3.833   0.381  0.00  0.00    +0.010 A 
ATOM     18  C   UNL     1      -3.561   3.624   1.467  0.00  0.00    -0.001 A 
ATOM     19  C   UNL     1      -2.792   4.681   1.956  0.00  0.00    +0.010 A 
ATOM     20  C   UNL     1      -2.869   5.922   1.358  0.00  0.00    +0.001 A 
ENDBRANCH   1  18
BRANCH   6  21
ATOM     21  C   UNL     1      -3.044   1.296  -0.110  0.00  0.00    +0.198 C 
BRANCH  21  22
ATOM     22  C   UNL     1      -1.610   1.652  -0.404  0.00  0.00    +0.124 A 
ATOM     23  C   UNL     1      -0.608   0.778  -0.609  0.00  0.00    +0.046 A 
ATOM     24  C   UNL     1       0.557   1.540  -0.854  0.00  0.00    +0.041 A 
ATOM     25  C   UNL     1       0.199   2.835  -0.779  0.00  0.00    +0.195 A 
ATOM     26  O   UNL     1      -1.114   2.896  -0.503  0.00  0.00    -0.466 OA
ENDBRANCH  21  22
ENDBRANCH   6  21
TORSDOF 4
