REMARK  Name = ZINC63281713
REMARK  7 active torsions:
REMARK  status: ('A' for Active; 'I' for Inactive)
REMARK    1  A    between atoms: C_1  and  O_2
REMARK    2  A    between atoms: O_2  and  C_3
REMARK    3  A    between atoms: C_9  and  C_12
REMARK    4  A    between atoms: C_12  and  C_13
REMARK    5  A    between atoms: C_13  and  N_14
REMARK    6  A    between atoms: C_15  and  C_17
REMARK    7  A    between atoms: C_21  and  C_24
REMARK                            x       y       z     vdW  Elec       q    Type
REMARK                         _______ _______ _______ _____ _____    ______ ____
ROOT
ATOM      1  N   UNL     1      -0.941  -6.945   1.436  0.00  0.00    -0.311 N 
ATOM      2  C   UNL     1      -0.588  -7.561   2.582  0.00  0.00    +0.238 C 
ATOM      3  O   UNL     1      -1.185  -7.316   3.614  0.00  0.00    -0.271 OA
ATOM      4  H   UNL     1      -0.465  -7.141   0.614  0.00  0.00    +0.149 HD
ENDROOT
BRANCH   2   5
ATOM      5  C   UNL     1       0.477  -8.492   2.585  0.00  0.00    +0.086 C 
ATOM      6  C   UNL     1       0.908  -9.020   3.749  0.00  0.00    +0.020 C 
ATOM      7  C   UNL     1       1.946 -10.134   3.802  0.00  0.00    +0.121 C 
ATOM      8  S   UNL     1       1.447 -10.949   5.381  0.00  0.00    -0.128 S 
ATOM      9  C   UNL     1       0.549  -9.510   6.100  0.00  0.00    +0.159 C 
ATOM     10  N   UNL     1       0.453  -8.594   4.945  0.00  0.00    -0.331 N 
ATOM     11  H   UNL     1       0.070  -7.708   5.043  0.00  0.00    +0.147 HD
BRANCH   9  12
ATOM     12  C   UNL     1      -0.818  -9.919   6.586  0.00  0.00    -0.017 A 
ATOM     13  C   UNL     1      -1.897  -9.889   5.722  0.00  0.00    +0.006 A 
ATOM     14  C   UNL     1      -3.150 -10.264   6.168  0.00  0.00    +0.000 A 
ATOM     15  C   UNL     1      -3.325 -10.670   7.478  0.00  0.00    +0.000 A 
ATOM     16  C   UNL     1      -2.246 -10.700   8.342  0.00  0.00    +0.000 A 
ATOM     17  C   UNL     1      -0.992 -10.329   7.895  0.00  0.00    +0.006 A 
ENDBRANCH   9  12
ENDBRANCH   2   5
BRANCH   1  18
ATOM     18  C   UNL     1      -2.044  -5.981   1.433  0.00  0.00    +0.109 C 
BRANCH  18  19
ATOM     19  C   UNL     1      -2.238  -5.432   0.018  0.00  0.00    +0.052 C 
BRANCH  19  26
ATOM     20  C   UNL     1      -2.352  -0.856   0.389  0.00  0.00    +0.121 A 
ATOM     21  C   UNL     1      -3.642  -0.299   0.337  0.00  0.00    +0.047 A 
ATOM     22  C   UNL     1      -4.753  -1.051   0.191  0.00  0.00    +0.029 A 
ATOM     23  C   UNL     1      -4.636  -2.509   0.079  0.00  0.00    +0.043 A 
ATOM     24  N   UNL     1      -5.534  -3.451  -0.067  0.00  0.00    -0.380 N 
ATOM     25  C   UNL     1      -4.847  -4.747  -0.122  0.00  0.00    +0.144 C 
ATOM     26  C   UNL     1      -3.372  -4.441   0.015  0.00  0.00    -0.040 C 
ATOM     27  C   UNL     1      -3.278  -3.097   0.133  0.00  0.00    +0.002 A 
ATOM     28  C   UNL     1      -2.136  -2.189   0.289  0.00  0.00    +0.055 A 
ATOM     29  H   UNL     1      -6.492  -3.315  -0.128  0.00  0.00    +0.160 HD
BRANCH  20  31
ATOM     30  C   UNL     1      -1.559   1.371   0.639  0.00  0.00    +0.277 C 
ATOM     31  O   UNL     1      -1.285  -0.027   0.539  0.00  0.00    -0.495 OA
ENDBRANCH  20  31
ENDBRANCH  19  26
ENDBRANCH  18  19
ENDBRANCH   1  18
TORSDOF 6
