REMARK  Name = ZINC02268123
REMARK  9 active torsions:
REMARK  status: ('A' for Active; 'I' for Inactive)
REMARK    1  A    between atoms: C_6  and  N_7
REMARK    2  A    between atoms: C_8  and  C_10
REMARK    3  A    between atoms: C_10  and  S_11
REMARK    4  A    between atoms: S_11  and  C_12
REMARK    5  A    between atoms: C_13  and  C_29
REMARK    6  A    between atoms: C_14  and  S_17
REMARK    7  A    between atoms: S_17  and  C_18
REMARK    8  A    between atoms: C_18  and  C_19
REMARK    9  A    between atoms: N_21  and  C_22
REMARK                            x       y       z     vdW  Elec       q    Type
REMARK                         _______ _______ _______ _____ _____    ______ ____
ROOT
ATOM      1  C   UNL     1       6.353   2.942  -0.730  0.00  0.00    +0.125 A 
ATOM      2  C   UNL     1       5.601   1.723  -0.907  0.00  0.00    +0.106 A 
ATOM      3  C   UNL     1       4.219   1.866  -0.746  0.00  0.00    +0.084 A 
ATOM      4  S   UNL     1       4.055   3.548  -0.375  0.00  0.00    +0.020 S 
ATOM      5  N   UNL     1       5.690   4.031  -0.435  0.00  0.00    -0.202 NA
ENDROOT
BRANCH   2   6
ATOM      6  C   UNL     1       6.219   0.471  -1.223  0.00  0.00    +0.104 C 
ATOM      7  N   UNL     1       6.709  -0.523  -1.475  0.00  0.00    -0.191 NA
ENDBRANCH   2   6
BRANCH   1   8
ATOM      8  S   UNL     1       8.106   2.962  -0.899  0.00  0.00    -0.095 S 
BRANCH   8   9
ATOM      9  C   UNL     1       8.558   4.690  -0.581  0.00  0.00    +0.172 C 
BRANCH   9  11
ATOM     10  N   UNL     1      10.620   6.054  -0.498  0.00  0.00    -0.285 N 
ATOM     11  C   UNL     1      10.053   4.847  -0.696  0.00  0.00    +0.227 C 
ATOM     12  O   UNL     1      10.745   3.888  -0.966  0.00  0.00    -0.275 OA
ATOM     13  H   UNL     1      10.077   6.803  -0.209  0.00  0.00    +0.155 HD
BRANCH  10  19
ATOM     14  C   UNL     1      12.710   7.126   0.065  0.00  0.00    +0.025 A 
ATOM     15  C   UNL     1      14.066   7.288  -0.143  0.00  0.00    +0.022 A 
ATOM     16  C   UNL     1      14.707   6.562  -1.132  0.00  0.00    +0.041 A 
ATOM     17  C   UNL     1      13.994   5.668  -1.910  0.00  0.00    +0.022 A 
ATOM     18  C   UNL     1      12.639   5.497  -1.702  0.00  0.00    +0.025 A 
ATOM     19  C   UNL     1      11.993   6.224  -0.711  0.00  0.00    +0.033 A 
ATOM     20 CL   UNL     1      16.410   6.774  -1.395  0.00  0.00    -0.084 Cl
ENDBRANCH  10  19
ENDBRANCH   9  11
ENDBRANCH   8   9
ENDBRANCH   1   8
BRANCH   3  21
ATOM     21  S   UNL     1       2.961   0.639  -0.879  0.00  0.00    -0.106 S 
BRANCH  21  22
ATOM     22  C   UNL     1       1.501   1.647  -0.523  0.00  0.00    +0.171 C 
BRANCH  22  23
ATOM     23  C   UNL     1       0.268   0.782  -0.582  0.00  0.00    +0.227 C 
ATOM     24  O   UNL     1       0.367  -0.399  -0.840  0.00  0.00    -0.275 OA
ATOM     25  N   UNL     1      -0.946   1.323  -0.354  0.00  0.00    -0.285 N 
ATOM     26  H   UNL     1      -1.020   2.251  -0.083  0.00  0.00    +0.155 HD
BRANCH  25  27
ATOM     27  C   UNL     1      -2.099   0.545  -0.510  0.00  0.00    +0.033 A 
ATOM     28  C   UNL     1      -3.262   1.117  -1.009  0.00  0.00    +0.025 A 
ATOM     29  C   UNL     1      -4.397   0.345  -1.167  0.00  0.00    +0.022 A 
ATOM     30  C   UNL     1      -4.379  -0.993  -0.817  0.00  0.00    +0.041 A 
ATOM     31  C   UNL     1      -3.223  -1.564  -0.314  0.00  0.00    +0.022 A 
ATOM     32  C   UNL     1      -2.084  -0.799  -0.160  0.00  0.00    +0.025 A 
ATOM     33 CL   UNL     1      -5.809  -1.958  -1.009  0.00  0.00    -0.084 Cl
ENDBRANCH  25  27
ENDBRANCH  22  23
ENDBRANCH  21  22
ENDBRANCH   3  21
TORSDOF 9
