REMARK  Name = ZINC67449103
REMARK  9 active torsions:
REMARK  status: ('A' for Active; 'I' for Inactive)
REMARK    1  A    between atoms: C_1  and  O_2
REMARK    2  A    between atoms: O_2  and  C_3
REMARK    3  A    between atoms: C_4  and  C_11
REMARK    4  A    between atoms: C_11  and  N_12
REMARK    5  A    between atoms: N_12  and  C_13
REMARK    6  A    between atoms: C_13  and  C_14
REMARK    7  A    between atoms: C_17  and  C_20
REMARK    8  A    between atoms: N_22  and  C_23
REMARK    9  A    between atoms: C_23  and  C_24
REMARK                            x       y       z     vdW  Elec       q    Type
REMARK                         _______ _______ _______ _____ _____    ______ ____
ROOT
ATOM      1  C   UNL     1      -1.644   2.521   4.441  0.00  0.00    -0.064 A 
ATOM      2  C   UNL     1      -0.755   3.545   4.168  0.00  0.00    +0.002 A 
ATOM      3  C   UNL     1      -1.084   4.849   4.474  0.00  0.00    +0.013 A 
ATOM      4  C   UNL     1      -2.318   5.135   5.061  0.00  0.00    +0.037 A 
ATOM      5  C   UNL     1      -3.211   4.097   5.334  0.00  0.00    +0.013 A 
ATOM      6  C   UNL     1      -2.871   2.798   5.017  0.00  0.00    +0.002 A 
ENDROOT
BRANCH   4   7
ATOM      7  C   UNL     1      -2.678   6.530   5.392  0.00  0.00    +0.244 C 
ATOM      8  O   UNL     1      -1.898   7.431   5.153  0.00  0.00    -0.270 OA
ATOM      9  N   UNL     1      -3.870   6.802   5.959  0.00  0.00    -0.303 N 
ATOM     10  H   UNL     1      -4.492   6.082   6.149  0.00  0.00    +0.150 HD
BRANCH   9  11
ATOM     11  C   UNL     1      -4.226   8.184   6.287  0.00  0.00    +0.200 C 
BRANCH  11  12
ATOM     12  C   UNL     1      -5.600   8.216   6.905  0.00  0.00    +0.228 C 
ATOM     13  O   UNL     1      -6.221   7.185   7.057  0.00  0.00    -0.274 OA
ATOM     14  N   UNL     1      -6.140   9.389   7.290  0.00  0.00    -0.328 N 
ATOM     15  H   UNL     1      -5.644  10.214   7.169  0.00  0.00    +0.145 HD
ATOM     16  H   UNL     1      -7.024   9.410   7.688  0.00  0.00    +0.145 HD
ENDBRANCH  11  12
ENDBRANCH   9  11
ENDBRANCH   4   7
BRANCH   1  17
ATOM     17  C   UNL     1      -1.277   1.099   4.104  0.00  0.00    -0.046 C 
BRANCH  17  18
ATOM     18  N   UNL     1      -1.715   0.792   2.735  0.00  0.00    +0.384 N 
ATOM     19  H   UNL     1      -1.260   1.419   2.088  0.00  0.00    -0.085 HD
ATOM     20  H   UNL     1      -2.715   0.906   2.668  0.00  0.00    -0.085 HD
BRANCH  18  21
ATOM     21  C   UNL     1      -1.357  -0.595   2.406  0.00  0.00    -0.043 C 
BRANCH  21  23
ATOM     22  C   UNL     1      -1.255  -0.494  -0.097  0.00  0.00    +0.140 A 
ATOM     23  C   UNL     1      -1.901  -0.945   1.045  0.00  0.00    -0.020 A 
ATOM     24  C   UNL     1      -3.043  -1.714   0.934  0.00  0.00    +0.025 A 
ATOM     25  C   UNL     1      -3.543  -2.036  -0.315  0.00  0.00    +0.043 A 
ATOM     26  C   UNL     1      -2.901  -1.589  -1.456  0.00  0.00    +0.043 A 
ATOM     27  C   UNL     1      -1.761  -0.814  -1.349  0.00  0.00    +0.084 A 
ATOM     28 CL   UNL     1      -0.960  -0.246  -2.780  0.00  0.00    -0.080 Cl
ATOM     29 CL   UNL     1      -4.978  -3.004  -0.451  0.00  0.00    -0.083 Cl
BRANCH  22  31
ATOM     30  C   UNL     1       1.121  -0.425  -0.027  0.00  0.00    +0.277 C 
ATOM     31  O   UNL     1      -0.131   0.263   0.011  0.00  0.00    -0.493 OA
ENDBRANCH  22  31
ENDBRANCH  21  23
ENDBRANCH  18  21
ENDBRANCH  17  18
ENDBRANCH   1  17
TORSDOF 8
