REMARK  Name = ZINC33326894
REMARK  10 active torsions:
REMARK  status: ('A' for Active; 'I' for Inactive)
REMARK    1  A    between atoms: C_1  and  C_2
REMARK    2  A    between atoms: C_2  and  O_3
REMARK    3  A    between atoms: O_3  and  C_4
REMARK    4  A    between atoms: C_7  and  S_10
REMARK    5  A    between atoms: S_10  and  N_13
REMARK    6  A    between atoms: N_13  and  C_14
REMARK    7  A    between atoms: C_17  and  N_20
REMARK    8  A    between atoms: C_23  and  N_28
REMARK    9  A    between atoms: C_25  and  C_27
REMARK   10  A    between atoms: N_28  and  C_29
REMARK                            x       y       z     vdW  Elec       q    Type
REMARK                         _______ _______ _______ _____ _____    ______ ____
ROOT
ATOM      1  C   UNL     1       3.267   1.683  -0.167  0.00  0.00    +0.048 A 
ATOM      2  C   UNL     1       2.172   1.136  -0.823  0.00  0.00    +0.026 A 
ATOM      3  C   UNL     1       0.935   1.743  -0.726  0.00  0.00    +0.025 A 
ATOM      4  C   UNL     1       0.787   2.900   0.028  0.00  0.00    +0.032 A 
ATOM      5  C   UNL     1       1.883   3.447   0.683  0.00  0.00    +0.025 A 
ATOM      6  C   UNL     1       3.119   2.840   0.586  0.00  0.00    +0.026 A 
ENDROOT
BRANCH   4   7
ATOM      7  N   UNL     1      -0.466   3.519   0.122  0.00  0.00    -0.301 N 
ATOM      8  C   UNL     1      -0.888   4.050   1.331  0.00  0.00    +0.105 A 
ATOM      9  C   UNL     1      -0.150   3.836   2.492  0.00  0.00    +0.085 A 
ATOM     10  C   UNL     1      -0.616   4.391   3.680  0.00  0.00    +0.124 A 
ATOM     11  N   UNL     1      -1.742   5.101   3.664  0.00  0.00    -0.220 NA
ATOM     12  C   UNL     1      -2.412   5.281   2.544  0.00  0.00    +0.107 A 
ATOM     13  N   UNL     1      -2.002   4.777   1.398  0.00  0.00    -0.332 N 
ATOM     14  C   UNL     1      -3.682   6.092   2.574  0.00  0.00    +0.086 C 
ATOM     15  H   UNL     1      -1.115   3.583  -0.764  0.00  0.00    +0.154 HD
ATOM     16  H   UNL     1      -2.593   4.963   0.489  0.00  0.00    +0.168 HD
BRANCH  10  17
ATOM     17  N   UNL     1       0.083   4.207   4.864  0.00  0.00    -0.326 N 
ATOM     18  H   UNL     1      -0.336   4.573   5.812  0.00  0.00    +0.148 HD
BRANCH  17  19
ATOM     19  C   UNL     1       1.379   3.525   4.850  0.00  0.00    +0.072 C 
ATOM     20  C   UNL     1       1.164   2.017   4.987  0.00  0.00    +0.022 C 
ATOM     21  C   UNL     1       2.518   1.305   4.973  0.00  0.00    +0.002 C 
ATOM     22  C   UNL     1       3.370   1.806   6.141  0.00  0.00    +0.000 C 
ATOM     23  C   UNL     1       3.585   3.315   6.004  0.00  0.00    +0.002 C 
ATOM     24  C   UNL     1       2.231   4.027   6.018  0.00  0.00    +0.022 C 
ENDBRANCH  17  19
ENDBRANCH  10  17
ENDBRANCH   4   7
BRANCH   1  25
ATOM     25  N   UNL     1       4.520   1.068  -0.266  0.00  0.00    -0.216 N 
ATOM     26  H   UNL     1       4.929   0.512   0.591  0.00  0.00    +0.174 HD
BRANCH  25  27
ATOM     27  S   UNL     1       5.388   1.177  -1.673  0.00  0.00    +0.072 S 
ATOM     28  O   UNL     1       6.643   0.557  -1.425  0.00  0.00    -0.150 OA
ATOM     29  O   UNL     1       4.522   0.754  -2.717  0.00  0.00    -0.150 OA
BRANCH  27  33
ATOM     30  C   UNL     1       6.231   5.568  -2.387  0.00  0.00    +0.121 A 
ATOM     31  C   UNL     1       7.069   4.824  -1.569  0.00  0.00    +0.047 A 
ATOM     32  C   UNL     1       6.809   3.485  -1.353  0.00  0.00    +0.032 A 
ATOM     33  C   UNL     1       5.716   2.886  -1.951  0.00  0.00    +0.109 A 
ATOM     34  C   UNL     1       4.883   3.624  -2.771  0.00  0.00    +0.032 A 
ATOM     35  C   UNL     1       5.135   4.965  -2.986  0.00  0.00    +0.047 A 
BRANCH  30  36
ATOM     36  O   UNL     1       6.484   6.886  -2.602  0.00  0.00    -0.492 OA
BRANCH  36  38
ATOM     37  C   UNL     1       5.982   9.067  -3.513  0.00  0.00    +0.048 C 
ATOM     38  C   UNL     1       5.517   7.618  -3.358  0.00  0.00    +0.225 C 
ENDBRANCH  36  38
ENDBRANCH  30  36
ENDBRANCH  27  33
ENDBRANCH  25  27
ENDBRANCH   1  25
TORSDOF 8
