REMARK  Name = ZINC43548205
REMARK  11 active torsions:
REMARK  status: ('A' for Active; 'I' for Inactive)
REMARK    1  A    between atoms: C_1  and  C_2
REMARK    2  A    between atoms: N_9  and  C_10
REMARK    3  A    between atoms: C_10  and  C_11
REMARK    4  A    between atoms: C_14  and  C_34
REMARK    5  A    between atoms: C_17  and  O_33
REMARK    6  A    between atoms: C_19  and  C_23
REMARK    7  A    between atoms: C_23  and  C_25
REMARK    8  A    between atoms: C_23  and  C_26
REMARK    9  A    between atoms: N_28  and  C_29
REMARK   10  A    between atoms: N_28  and  C_30
REMARK   11  A    between atoms: C_30  and  C_31
REMARK                            x       y       z     vdW  Elec       q    Type
REMARK                         _______ _______ _______ _____ _____    ______ ____
ROOT
ATOM      1  C   UNL     1      -2.643   0.022  -0.247  0.00  0.00    +0.014 C 
ATOM      2  C   UNL     1      -2.110  -1.406  -0.124  0.00  0.00    +0.039 C 
ATOM      3  C   UNL     1      -3.233  -2.333   0.318  0.00  0.00    +0.031 A 
ATOM      4  C   UNL     1      -3.318  -2.743   1.608  0.00  0.00    +0.013 A 
ATOM      5  S   UNL     1      -4.759  -3.773   1.591  0.00  0.00    -0.059 S 
ATOM      6  C   UNL     1      -5.134  -3.600  -0.043  0.00  0.00    +0.137 A 
ATOM      7  N   UNL     1      -4.187  -2.801  -0.484  0.00  0.00    -0.340 N 
ATOM      8  N   UNL     1      -6.184  -4.164  -0.750  0.00  0.00    -0.321 N 
ATOM      9  C   UNL     1      -2.409  -2.398   2.736  0.00  0.00    +0.051 C 
ATOM     10  C   UNL     1      -1.543  -1.194   2.323  0.00  0.00    -0.022 C 
ATOM     11  C   UNL     1      -0.992  -1.445   0.913  0.00  0.00    +0.033 C 
ATOM     12  C   UNL     1      -0.277  -2.795   0.885  0.00  0.00    +0.123 C 
ATOM     13  C   UNL     1       0.898  -2.760   1.866  0.00  0.00    +0.029 C 
ATOM     14  C   UNL     1       0.386  -2.460   3.276  0.00  0.00    +0.007 C 
ATOM     15  C   UNL     1      -0.352  -1.117   3.291  0.00  0.00    +0.008 C 
ATOM     16  C   UNL     1      -2.360   0.098   2.372  0.00  0.00    +0.012 C 
ATOM     17  H   UNL     1      -6.285  -3.980  -1.698  0.00  0.00    +0.148 HD
ATOM     18  H   UNL     1      -4.184  -2.545  -1.420  0.00  0.00    +0.167 HD
ENDROOT
BRANCH  13  19
ATOM     19  C   UNL     1       1.606  -4.116   1.861  0.00  0.00    +0.078 C 
ATOM     20  C   UNL     1       2.781  -4.082   2.841  0.00  0.00    +0.017 C 
BRANCH  19  21
ATOM     21  C   UNL     1       2.118  -4.410   0.475  0.00  0.00    +0.219 C 
ATOM     22  O   UNL     1       2.073  -3.554  -0.383  0.00  0.00    -0.275 OA
ATOM     23  N   UNL     1       2.626  -5.625   0.188  0.00  0.00    -0.301 N 
ATOM     24  C   UNL     1       2.586  -6.692   1.191  0.00  0.00    +0.132 C 
BRANCH  23  25
ATOM     25  C   UNL     1       3.217  -5.880  -1.129  0.00  0.00    +0.134 C 
BRANCH  25  26
ATOM     26  C   UNL     1       4.687  -5.553  -1.090  0.00  0.00    -0.016 C 
ATOM     27  C   UNL     1       5.568  -6.455  -1.446  0.00  0.00    +0.005 C 
ENDBRANCH  25  26
ENDBRANCH  23  25
ENDBRANCH  19  21
ENDBRANCH  13  19
BRANCH  12  28
ATOM     28  O   UNL     1      -1.189  -3.827   1.266  0.00  0.00    -0.391 OA
ATOM     29  H   UNL     1      -0.802  -4.713   1.270  0.00  0.00    +0.210 HD
ENDBRANCH  12  28
BRANCH   8  30
ATOM     30  C   UNL     1      -7.142  -5.037  -0.068  0.00  0.00    +0.130 C 
BRANCH  30  31
ATOM     31  C   UNL     1      -8.177  -5.515  -1.053  0.00  0.00    -0.016 C 
ATOM     32  C   UNL     1      -8.391  -6.798  -1.208  0.00  0.00    +0.005 C 
ENDBRANCH  30  31
ENDBRANCH   8  30
TORSDOF 7
