REMARK  Name = ZINC04338275
REMARK  13 active torsions:
REMARK  status: ('A' for Active; 'I' for Inactive)
REMARK    1  A    between atoms: C_1  and  C_2
REMARK    2  A    between atoms: C_2  and  C_3
REMARK    3  A    between atoms: C_2  and  C_4
REMARK    4  A    between atoms: C_2  and  C_5
REMARK    5  A    between atoms: C_7  and  C_16
REMARK    6  A    between atoms: C_9  and  C_12
REMARK    7  A    between atoms: C_10  and  O_11
REMARK    8  A    between atoms: C_12  and  C_13
REMARK    9  A    between atoms: C_12  and  C_14
REMARK   10  A    between atoms: C_12  and  C_15
REMARK   11  A    between atoms: C_16  and  N_17
REMARK   12  A    between atoms: N_17  and  C_18
REMARK   13  A    between atoms: C_25  and  O_27
REMARK                            x       y       z     vdW  Elec       q    Type
REMARK                         _______ _______ _______ _____ _____    ______ ____
ROOT
ATOM      1  C   UNL     1       0.707  -0.490  -1.238  0.00  0.00    -0.000 A 
ATOM      2  C   UNL     1       1.217   0.419  -2.145  0.00  0.00    +0.009 A 
ATOM      3  C   UNL     1       1.864  -0.026  -3.283  0.00  0.00    -0.064 A 
ATOM      4  C   UNL     1       2.003  -1.382  -3.516  0.00  0.00    +0.009 A 
ATOM      5  C   UNL     1       1.496  -2.295  -2.612  0.00  0.00    -0.000 A 
ATOM      6  C   UNL     1       0.851  -1.851  -1.467  0.00  0.00    +0.124 A 
ENDROOT
BRANCH   1   8
ATOM      7  C   UNL     1      -0.019   1.526   0.010  0.00  0.00    +0.015 C 
ATOM      8  C   UNL     1       0.002  -0.004   0.002  0.00  0.00    -0.009 C 
ATOM      9  C   UNL     1       0.742  -0.511   1.242  0.00  0.00    +0.015 C 
ATOM     10  C   UNL     1      -1.433  -0.534   0.013  0.00  0.00    +0.015 C 
ENDBRANCH   1   8
BRANCH   5  11
ATOM     11  C   UNL     1       1.648  -3.773  -2.867  0.00  0.00    -0.009 C 
ATOM     12  C   UNL     1       2.396  -3.989  -4.184  0.00  0.00    +0.015 C 
ATOM     13  C   UNL     1       2.438  -4.409  -1.722  0.00  0.00    +0.015 C 
ATOM     14  C   UNL     1       0.264  -4.420  -2.953  0.00  0.00    +0.015 C 
ENDBRANCH   5  11
BRANCH   6  15
ATOM     15  O   UNL     1       0.356  -2.747  -0.573  0.00  0.00    -0.506 OA
ATOM     16  H   UNL     1      -0.556  -3.015  -0.749  0.00  0.00    +0.292 HD
ENDBRANCH   6  15
BRANCH   3  17
ATOM     17  C   UNL     1       2.418   0.968  -4.270  0.00  0.00    -0.046 C 
BRANCH  17  18
ATOM     18  N   UNL     1       3.803   1.298  -3.909  0.00  0.00    +0.386 N 
ATOM     19  H   UNL     1       3.823   1.697  -2.982  0.00  0.00    -0.085 HD
ATOM     20  H   UNL     1       4.364   0.459  -3.925  0.00  0.00    -0.085 HD
BRANCH  18  21
ATOM     21  C   UNL     1       4.343   2.267  -4.872  0.00  0.00    -0.020 C 
ATOM     22  C   UNL     1       3.562   3.605  -4.748  0.00  0.00    +0.153 C 
ATOM     23  S   UNL     1       4.786   4.748  -5.525  0.00  0.00    -0.030 S 
ATOM     24  O   UNL     1       4.708   6.017  -4.890  0.00  0.00    -0.174 OA
ATOM     25  O   UNL     1       4.675   4.662  -6.939  0.00  0.00    -0.174 OA
ATOM     26  C   UNL     1       6.325   3.894  -4.984  0.00  0.00    +0.195 C 
ATOM     27  C   UNL     1       5.827   2.493  -4.583  0.00  0.00    +0.123 C 
BRANCH  27  28
ATOM     28  O   UNL     1       6.586   1.516  -5.300  0.00  0.00    -0.392 OA
ATOM     29  H   UNL     1       7.542   1.590  -5.171  0.00  0.00    +0.210 HD
ENDBRANCH  27  28
ENDBRANCH  18  21
ENDBRANCH  17  18
ENDBRANCH   3  17
TORSDOF 7
