REMARK  Name = ZINC08558045
REMARK  8 active torsions:
REMARK  status: ('A' for Active; 'I' for Inactive)
REMARK    1  A    between atoms: C_1  and  C_2
REMARK    2  A    between atoms: C_5  and  N_8
REMARK    3  A    between atoms: C_18  and  S_19
REMARK    4  A    between atoms: S_19  and  C_20
REMARK    5  A    between atoms: C_20  and  C_21
REMARK    6  A    between atoms: N_23  and  N_24
REMARK    7  A    between atoms: N_24  and  C_25
REMARK    8  A    between atoms: C_31  and  O_33
REMARK                            x       y       z     vdW  Elec       q    Type
REMARK                         _______ _______ _______ _____ _____    ______ ____
ROOT
ATOM      1  N   UNL     1       0.059  -4.171  -0.021  0.00  0.00    -0.255 N 
ATOM      2  C   UNL     1      -0.035  -4.838  -1.195  0.00  0.00    +0.267 A 
ATOM      3  O   UNL     1      -0.137  -4.242  -2.252  0.00  0.00    -0.267 OA
ATOM      4  C   UNL     1      -0.011  -6.305  -1.147  0.00  0.00    +0.065 A 
ATOM      5  C   UNL     1      -0.101  -7.081  -2.302  0.00  0.00    +0.015 A 
ATOM      6  C   UNL     1      -0.072  -8.445  -2.202  0.00  0.00    +0.001 A 
ATOM      7  C   UNL     1       0.046  -9.063  -0.963  0.00  0.00    +0.002 A 
ATOM      8  C   UNL     1       0.136  -8.327   0.184  0.00  0.00    +0.028 A 
ATOM      9  C   UNL     1       0.109  -6.931   0.115  0.00  0.00    +0.079 A 
ATOM     10  N   UNL     1       0.196  -6.163   1.226  0.00  0.00    -0.223 NA
ATOM     11  C   UNL     1       0.177  -4.855   1.158  0.00  0.00    +0.177 A 
ENDROOT
BRANCH   1  16
ATOM     12  C   UNL     1      -0.017   1.503   0.008  0.00  0.00    +0.044 C 
ATOM     13  C   UNL     1       0.003  -0.004   0.001  0.00  0.00    -0.050 A 
ATOM     14  C   UNL     1       1.206  -0.678  -0.111  0.00  0.00    +0.005 A 
ATOM     15  C   UNL     1       1.228  -2.058  -0.119  0.00  0.00    +0.026 A 
ATOM     16  C   UNL     1       0.040  -2.771  -0.013  0.00  0.00    +0.052 A 
ATOM     17  C   UNL     1      -1.166  -2.091   0.099  0.00  0.00    +0.026 A 
ATOM     18  C   UNL     1      -1.180  -0.710   0.111  0.00  0.00    +0.005 A 
ENDBRANCH   1  16
BRANCH  11  19
ATOM     19  S   UNL     1       0.304  -3.933   2.654  0.00  0.00    -0.078 S 
BRANCH  19  20
ATOM     20  C   UNL     1       0.440  -5.204   3.942  0.00  0.00    +0.174 C 
BRANCH  20  21
ATOM     21  C   UNL     1       0.556  -4.542   5.290  0.00  0.00    +0.239 C 
ATOM     22  O   UNL     1       0.548  -3.333   5.375  0.00  0.00    -0.273 OA
ATOM     23  N   UNL     1       0.670  -5.295   6.403  0.00  0.00    -0.236 N 
ATOM     24  H   UNL     1       0.677  -6.263   6.335  0.00  0.00    +0.173 HD
BRANCH  23  25
ATOM     25  N   UNL     1       0.778  -4.679   7.657  0.00  0.00    -0.271 N 
ATOM     26  H   UNL     1       0.771  -3.712   7.725  0.00  0.00    +0.169 HD
BRANCH  25  27
ATOM     27  C   UNL     1       0.891  -5.429   8.764  0.00  0.00    +0.095 C 
ATOM     28  C   UNL     1       0.999  -4.814  10.017  0.00  0.00    -0.006 C 
ATOM     29  C   UNL     1       0.983  -3.406  10.117  0.00  0.00    +0.013 C 
ATOM     30  C   UNL     1       1.087  -2.810  11.332  0.00  0.00    +0.055 C 
ATOM     31  C   UNL     1       1.211  -3.593  12.493  0.00  0.00    +0.220 C 
ATOM     32  O   UNL     1       1.305  -3.053  13.588  0.00  0.00    -0.284 OA
ATOM     33  C   UNL     1       1.228  -5.002  12.399  0.00  0.00    +0.164 C 
ATOM     34  C   UNL     1       1.118  -5.603  11.184  0.00  0.00    +0.058 C 
BRANCH  33  35
ATOM     35  O   UNL     1       1.348  -5.758  13.523  0.00  0.00    -0.503 OA
ATOM     36  H   UNL     1       1.416  -5.243  14.339  0.00  0.00    +0.292 HD
ENDBRANCH  33  35
ENDBRANCH  25  27
ENDBRANCH  23  25
ENDBRANCH  20  21
ENDBRANCH  19  20
ENDBRANCH  11  19
TORSDOF 7
