REMARK  Name = ZINC44049358
REMARK  5 active torsions:
REMARK  status: ('A' for Active; 'I' for Inactive)
REMARK    1  A    between atoms: C_1  and  C_2
REMARK    2  A    between atoms: C_9  and  C_11
REMARK    3  A    between atoms: N_13  and  C_14
REMARK    4  A    between atoms: C_14  and  C_15
REMARK    5  A    between atoms: N_17  and  C_18
REMARK                            x       y       z     vdW  Elec       q    Type
REMARK                         _______ _______ _______ _____ _____    ______ ____
ROOT
ATOM      1  C   UNL     1       1.628  -8.932   2.965  0.00  0.00    +0.234 C 
ATOM      2  O   UNL     1       0.669  -8.978   2.224  0.00  0.00    -0.274 OA
ATOM      3  N   UNL     1       2.126 -10.067   3.494  0.00  0.00    -0.284 N 
ATOM      4  H   UNL     1       2.932 -10.039   4.032  0.00  0.00    +0.155 HD
ENDROOT
BRANCH   3   5
ATOM      5  C   UNL     1       1.479 -11.289   3.267  0.00  0.00    +0.036 A 
ATOM      6  C   UNL     1       1.453 -12.257   4.264  0.00  0.00    +0.025 A 
ATOM      7  C   UNL     1       0.817 -13.462   4.046  0.00  0.00    +0.029 A 
ATOM      8  C   UNL     1       0.201 -13.709   2.828  0.00  0.00    +0.067 A 
ATOM      9  C   UNL     1       0.225 -12.739   1.825  0.00  0.00    +0.069 A 
ATOM     10  C   UNL     1       0.859 -11.527   2.049  0.00  0.00    +0.051 A 
ATOM     11  N   UNL     1      -0.466 -13.268   0.737  0.00  0.00    -0.306 N 
ATOM     12  H   UNL     1      -0.616 -12.822  -0.112  0.00  0.00    +0.170 HD
ATOM     13  C   UNL     1      -0.891 -14.503   1.063  0.00  0.00    +0.325 A 
ATOM     14  O   UNL     1      -1.527 -15.240   0.333  0.00  0.00    -0.247 OA
ATOM     15  N   UNL     1      -0.504 -14.799   2.318  0.00  0.00    -0.306 N 
ATOM     16  H   UNL     1      -0.685 -15.628   2.787  0.00  0.00    +0.170 HD
ENDBRANCH   3   5
BRANCH   1  17
ATOM     17  C   UNL     1       2.263  -7.606   3.295  0.00  0.00    +0.200 C 
BRANCH  17  20
ATOM     18  C   UNL     1       1.938  -5.253   2.748  0.00  0.00    +0.251 C 
ATOM     19  O   UNL     1       2.890  -4.987   3.457  0.00  0.00    -0.270 OA
ATOM     20  N   UNL     1       1.544  -6.534   2.601  0.00  0.00    -0.302 N 
ATOM     21  H   UNL     1       0.784  -6.746   2.036  0.00  0.00    +0.150 HD
BRANCH  18  29
ATOM     22  C   UNL     1      -0.017   1.525   0.007  0.00  0.00    +0.008 C 
ATOM     23  C   UNL     1       0.000  -0.005   0.001  0.00  0.00    -0.009 C 
ATOM     24  C   UNL     1      -1.438  -0.530   0.019  0.00  0.00    +0.009 C 
ATOM     25  C   UNL     1      -1.416  -2.039  -0.259  0.00  0.00    +0.043 C 
ATOM     26  C   UNL     1      -0.380  -2.670   0.624  0.00  0.00    -0.006 A 
ATOM     27  C   UNL     1       0.607  -2.027   1.311  0.00  0.00    -0.036 A 
ATOM     28  C   UNL     1       1.456  -2.819   2.070  0.00  0.00    +0.024 A 
ATOM     29  C   UNL     1       1.218  -4.181   2.054  0.00  0.00    +0.074 A 
ATOM     30  S   UNL     1      -0.193  -4.293   0.970  0.00  0.00    -0.088 S 
ATOM     31  C   UNL     1       0.751  -0.509   1.234  0.00  0.00    +0.039 C 
ENDBRANCH  18  29
ENDBRANCH  17  20
ENDBRANCH   1  17
TORSDOF 4
