REMARK  Name = ZINC37289417
REMARK  9 active torsions:
REMARK  status: ('A' for Active; 'I' for Inactive)
REMARK    1  A    between atoms: C_1  and  C_2
REMARK    2  A    between atoms: C_2  and  C_3
REMARK    3  A    between atoms: C_2  and  C_4
REMARK    4  A    between atoms: C_2  and  N_5
REMARK    5  A    between atoms: C_6  and  C_8
REMARK    6  A    between atoms: C_8  and  O_9
REMARK    7  A    between atoms: O_9  and  C_10
REMARK    8  A    between atoms: C_13  and  C_17
REMARK    9  A    between atoms: C_15  and  N_16
REMARK                            x       y       z     vdW  Elec       q    Type
REMARK                         _______ _______ _______ _____ _____    ______ ____
ROOT
ATOM      1  C   UNL     1       4.795  -0.472  -3.734  0.00  0.00    +0.142 A 
ATOM      2  C   UNL     1       4.274  -1.270  -4.744  0.00  0.00    +0.048 A 
ATOM      3  C   UNL     1       5.058  -1.627  -5.818  0.00  0.00    +0.019 A 
ATOM      4  C   UNL     1       6.383  -1.186  -5.895  0.00  0.00    +0.065 A 
ATOM      5  C   UNL     1       6.909  -0.381  -4.879  0.00  0.00    +0.041 A 
ATOM      6  C   UNL     1       6.115  -0.023  -3.806  0.00  0.00    +0.068 A 
ENDROOT
BRANCH   6   7
ATOM      7  N   UNL     1       6.635   0.787  -2.789  0.00  0.00    -0.355 N 
ATOM      8  H   UNL     1       6.079   1.035  -2.034  0.00  0.00    +0.142 HD
ATOM      9  H   UNL     1       7.552   1.099  -2.839  0.00  0.00    +0.142 HD
ENDBRANCH   6   7
BRANCH   4  10
ATOM     10  C   UNL     1       7.223  -1.567  -7.043  0.00  0.00    +0.387 C 
ATOM     11  O   UNL     1       6.761  -2.271  -7.931  0.00  0.00    -0.241 OA
ATOM     12  O   UNL     1       8.382  -1.181  -7.109  0.00  0.00    -0.241 OA
ENDBRANCH   4  10
BRANCH   1  13
ATOM     13  O   UNL     1       4.018  -0.124  -2.677  0.00  0.00    -0.481 OA
BRANCH  13  14
ATOM     14  C   UNL     1       2.677  -0.618  -2.667  0.00  0.00    +0.324 C 
BRANCH  14  16
ATOM     15  N   UNL     1       0.688  -0.476  -1.203  0.00  0.00    -0.308 N 
ATOM     16  C   UNL     1       1.972  -0.132  -1.427  0.00  0.00    +0.251 C 
ATOM     17  O   UNL     1       2.559   0.569  -0.630  0.00  0.00    -0.272 OA
ATOM     18  H   UNL     1       0.218  -1.037  -1.840  0.00  0.00    +0.149 HD
BRANCH  15  20
ATOM     19  C   UNL     1      -0.019   1.526   0.010  0.00  0.00    +0.031 C 
ATOM     20  C   UNL     1       0.002  -0.004   0.002  0.00  0.00    +0.026 C 
ATOM     21  C   UNL     1       0.742  -0.511   1.242  0.00  0.00    +0.031 C 
ATOM     22  C   UNL     1      -1.433  -0.534   0.013  0.00  0.00    +0.031 C 
ENDBRANCH  15  20
ENDBRANCH  14  16
ENDBRANCH  13  14
ENDBRANCH   1  13
TORSDOF 6
