REMARK  Name = ZINC63271650
REMARK  3 active torsions:
REMARK  status: ('A' for Active; 'I' for Inactive)
REMARK    1  A    between atoms: C_1  and  O_2
REMARK    2  A    between atoms: O_2  and  C_3
REMARK    3  A    between atoms: C_9  and  C_13
REMARK                            x       y       z     vdW  Elec       q    Type
REMARK                         _______ _______ _______ _____ _____    ______ ____
ROOT
ATOM      1  C   UNL     1      -0.634  -5.164  -1.332  0.00  0.00    +0.242 C 
ATOM      2  O   UNL     1      -1.103  -5.131  -2.450  0.00  0.00    -0.273 OA
ATOM      3  N   UNL     1      -1.215  -5.920  -0.379  0.00  0.00    -0.299 N 
ATOM      4  C   UNL     1      -0.670  -5.974   0.987  0.00  0.00    +0.109 C 
ATOM      5  C   UNL     1      -1.755  -5.463   1.931  0.00  0.00    +0.042 C 
ATOM      6  C   UNL     1      -3.068  -6.158   1.742  0.00  0.00    +0.081 C 
ATOM      7  C   UNL     1      -3.519  -6.460   0.321  0.00  0.00    +0.058 C 
ATOM      8  C   UNL     1      -2.409  -6.710  -0.667  0.00  0.00    +0.117 C 
ATOM      9  C   UNL     1      -4.332  -7.722   0.494  0.00  0.00    -0.019 A 
ATOM     10  C   UNL     1      -5.175  -8.357  -0.395  0.00  0.00    +0.006 A 
ATOM     11  C   UNL     1      -5.818  -9.505   0.056  0.00  0.00    +0.001 A 
ATOM     12  C   UNL     1      -5.622  -9.985   1.335  0.00  0.00    +0.017 A 
ATOM     13  C   UNL     1      -4.768  -9.359   2.230  0.00  0.00    +0.039 A 
ATOM     14  C   UNL     1      -4.107  -8.212   1.784  0.00  0.00    +0.045 A 
ATOM     15  N   UNL     1      -3.150  -7.451   2.435  0.00  0.00    -0.339 N 
ATOM     16 BR   UNL     1      -4.510 -10.028   3.980  0.00  0.00    -0.048 Br
ATOM     17  H   UNL     1      -2.637  -7.723   3.212  0.00  0.00    +0.146 HD
ENDROOT
BRANCH   1  24
ATOM     18  C   UNL     1       0.604  -0.606  -1.053  0.00  0.00    +0.129 A 
ATOM     19  C   UNL     1       1.164   0.138  -2.046  0.00  0.00    +0.046 A 
ATOM     20  C   UNL     1       1.789  -0.459  -3.143  0.00  0.00    +0.006 A 
ATOM     21  C   UNL     1       1.882  -1.801  -3.294  0.00  0.00    +0.026 A 
ATOM     22  C   UNL     1       1.334  -2.674  -2.319  0.00  0.00    +0.047 A 
ATOM     23  N   UNL     1       1.297  -3.984  -2.242  0.00  0.00    -0.370 N 
ATOM     24  C   UNL     1       0.598  -4.359  -1.008  0.00  0.00    +0.190 C 
ATOM     25  C   UNL     1       0.212  -3.059  -0.339  0.00  0.00    +0.020 C 
ATOM     26  C   UNL     1       0.669  -2.074  -1.141  0.00  0.00    +0.038 A 
ATOM     27  H   UNL     1       1.668  -4.601  -2.893  0.00  0.00    +0.161 HD
BRANCH  18  29
ATOM     28  C   UNL     1      -0.017   1.425   0.010  0.00  0.00    +0.277 C 
ATOM     29  O   UNL     1       0.002  -0.004   0.002  0.00  0.00    -0.494 OA
ENDBRANCH  18  29
ENDBRANCH   1  24
TORSDOF 2
