REMARK  Name = ZINC63842642
REMARK  7 active torsions:
REMARK  status: ('A' for Active; 'I' for Inactive)
REMARK    1  A    between atoms: C_1  and  C_2
REMARK    2  A    between atoms: C_2  and  C_24
REMARK    3  A    between atoms: N_5  and  C_9
REMARK    4  A    between atoms: C_9  and  C_10
REMARK    5  A    between atoms: N_12  and  C_13
REMARK    6  A    between atoms: C_13  and  C_14
REMARK    7  A    between atoms: C_14  and  C_15
REMARK                            x       y       z     vdW  Elec       q    Type
REMARK                         _______ _______ _______ _____ _____    ______ ____
ROOT
ATOM      1  C   UNL     1      -0.019   1.526   0.010  0.00  0.00    +0.047 C 
ATOM      2  C   UNL     1       0.002  -0.004   0.002  0.00  0.00    +0.135 C 
ATOM      3  C   UNL     1      -1.403  -0.557   0.139  0.00  0.00    +0.251 C 
ATOM      4  O   UNL     1      -2.332  -0.392  -0.621  0.00  0.00    -0.272 OA
ATOM      5  N   UNL     1      -1.403  -1.272   1.282  0.00  0.00    -0.215 N 
ATOM      6  C   UNL     1      -0.206  -1.247   1.879  0.00  0.00    +0.310 C 
ATOM      7  O   UNL     1       0.040  -1.819   2.924  0.00  0.00    -0.252 OA
ATOM      8  N   UNL     1       0.695  -0.520   1.195  0.00  0.00    -0.281 N 
ATOM      9  H   UNL     1       1.621  -0.365   1.440  0.00  0.00    +0.152 HD
ENDROOT
BRANCH   2  10
ATOM     10  C   UNL     1       0.657  -0.517  -1.255  0.00  0.00    -0.015 A 
ATOM     11  C   UNL     1      -0.107  -0.772  -2.378  0.00  0.00    +0.006 A 
ATOM     12  C   UNL     1       0.495  -1.242  -3.529  0.00  0.00    +0.004 A 
ATOM     13  C   UNL     1       1.863  -1.459  -3.561  0.00  0.00    -0.044 A 
ATOM     14  C   UNL     1       2.627  -1.204  -2.438  0.00  0.00    -0.044 A 
ATOM     15  C   UNL     1       2.022  -0.727  -1.287  0.00  0.00    +0.010 A 
ATOM     16  C   UNL     1       4.079  -1.518  -2.724  0.00  0.00    +0.036 C 
ATOM     17  C   UNL     1       4.060  -2.401  -3.990  0.00  0.00    +0.009 C 
ATOM     18  C   UNL     1       2.750  -1.962  -4.680  0.00  0.00    +0.036 C 
ENDBRANCH   2  10
BRANCH   5  19
ATOM     19  C   UNL     1      -2.569  -1.986   1.805  0.00  0.00    +0.213 C 
BRANCH  19  20
ATOM     20  C   UNL     1      -2.585  -3.391   1.260  0.00  0.00    +0.231 C 
ATOM     21  O   UNL     1      -1.707  -3.759   0.508  0.00  0.00    -0.274 OA
ATOM     22  N   UNL     1      -3.573  -4.239   1.608  0.00  0.00    -0.314 N 
ATOM     23  H   UNL     1      -4.275  -3.944   2.209  0.00  0.00    +0.149 HD
BRANCH  22  24
ATOM     24  C   UNL     1      -3.588  -5.604   1.077  0.00  0.00    +0.108 C 
BRANCH  24  25
ATOM     25  C   UNL     1      -4.806  -6.351   1.624  0.00  0.00    +0.052 C 
BRANCH  25  26
ATOM     26  C   UNL     1      -4.822  -7.755   1.078  0.00  0.00    -0.040 C 
ATOM     27  C   UNL     1      -4.332  -8.865   1.676  0.00  0.00    -0.001 A 
ATOM     28  C   UNL     1      -3.663  -9.088   2.964  0.00  0.00    +0.010 A 
ATOM     29  C   UNL     1      -3.277 -10.342   3.294  0.00  0.00    +0.001 A 
ATOM     30  C   UNL     1      -3.499 -11.430   2.440  0.00  0.00    +0.002 A 
ATOM     31  C   UNL     1      -4.107 -11.305   1.241  0.00  0.00    +0.026 A 
ATOM     32  C   UNL     1      -4.555 -10.031   0.792  0.00  0.00    +0.043 A 
ATOM     33  N   UNL     1      -5.159  -9.657  -0.309  0.00  0.00    -0.380 N 
ATOM     34  C   UNL     1      -5.394  -8.210  -0.246  0.00  0.00    +0.144 C 
ATOM     35  H   UNL     1      -5.413 -10.240  -1.042  0.00  0.00    +0.160 HD
ENDBRANCH  25  26
ENDBRANCH  24  25
ENDBRANCH  22  24
ENDBRANCH  19  20
ENDBRANCH   5  19
TORSDOF 6
