REMARK  Name = ZINC39197021
REMARK  9 active torsions:
REMARK  status: ('A' for Active; 'I' for Inactive)
REMARK    1  A    between atoms: C_1  and  C_2
REMARK    2  A    between atoms: C_2  and  C_4
REMARK    3  A    between atoms: C_2  and  N_13
REMARK    4  A    between atoms: C_4  and  C_6
REMARK    5  A    between atoms: C_4  and  O_12
REMARK    6  A    between atoms: C_14  and  C_16
REMARK    7  A    between atoms: C_19  and  N_22
REMARK    8  A    between atoms: C_23  and  N_34
REMARK    9  A    between atoms: C_25  and  C_27
REMARK                            x       y       z     vdW  Elec       q    Type
REMARK                         _______ _______ _______ _____ _____    ______ ____
ROOT
ATOM      1  C   UNL     1      -3.436  -1.154  -1.134  0.00  0.00    +0.037 A 
ATOM      2  C   UNL     1      -4.047  -1.496   0.075  0.00  0.00    +0.015 A 
ATOM      3  C   UNL     1      -5.339  -1.972   0.081  0.00  0.00    +0.028 A 
ATOM      4  C   UNL     1      -6.035  -2.113  -1.115  0.00  0.00    +0.067 A 
ATOM      5  C   UNL     1      -5.430  -1.774  -2.320  0.00  0.00    +0.028 A 
ATOM      6  C   UNL     1      -4.141  -1.291  -2.333  0.00  0.00    +0.015 A 
ENDROOT
BRANCH   4   7
ATOM      7  N   UNL     1      -7.346  -2.598  -1.105  0.00  0.00    -0.218 N 
ATOM      8  C   UNL     1      -8.348  -2.214  -1.945  0.00  0.00    +0.120 A 
ATOM      9  C   UNL     1      -9.460  -2.919  -1.608  0.00  0.00    +0.073 A 
ATOM     10  C   UNL     1      -9.127  -3.759  -0.528  0.00  0.00    +0.096 A 
ATOM     11  N   UNL     1      -7.858  -3.568  -0.234  0.00  0.00    -0.165 NA
BRANCH  10  12
ATOM     12  C   UNL     1     -10.046  -4.702   0.156  0.00  0.00    +0.020 A 
ATOM     13  C   UNL     1     -11.370  -4.817  -0.264  0.00  0.00    +0.011 A 
ATOM     14  C   UNL     1     -12.220  -5.696   0.376  0.00  0.00    +0.001 A 
ATOM     15  C   UNL     1     -11.761  -6.462   1.432  0.00  0.00    +0.001 A 
ATOM     16  C   UNL     1     -10.448  -6.353   1.854  0.00  0.00    +0.020 A 
ATOM     17  C   UNL     1      -9.586  -5.481   1.217  0.00  0.00    +0.050 A 
ATOM     18 CL   UNL     1      -7.937  -5.350   1.742  0.00  0.00    -0.083 Cl
ENDBRANCH  10  12
BRANCH   8  19
ATOM     19  N   UNL     1      -8.250  -1.271  -2.963  0.00  0.00    -0.343 N 
ATOM     20  H   UNL     1      -7.407  -0.819  -3.126  0.00  0.00    +0.144 HD
ATOM     21  H   UNL     1      -9.024  -1.066  -3.510  0.00  0.00    +0.144 HD
ENDBRANCH   8  19
ENDBRANCH   4   7
BRANCH   1  23
ATOM     22  N   UNL     1      -1.372  -0.511   0.012  0.00  0.00    -0.306 N 
ATOM     23  C   UNL     1      -2.051  -0.643  -1.145  0.00  0.00    +0.244 C 
ATOM     24  O   UNL     1      -1.522  -0.341  -2.197  0.00  0.00    -0.270 OA
ATOM     25  H   UNL     1      -1.794  -0.752   0.852  0.00  0.00    +0.149 HD
BRANCH  22  27
ATOM     26  C   UNL     1      -0.019   1.526   0.010  0.00  0.00    +0.031 C 
ATOM     27  C   UNL     1       0.002  -0.004   0.002  0.00  0.00    +0.103 C 
BRANCH  27  28
ATOM     28  C   UNL     1       0.742  -0.511   1.242  0.00  0.00    +0.164 C 
BRANCH  28  29
ATOM     29  C   UNL     1       2.188  -0.092   1.170  0.00  0.00    -0.017 A 
ATOM     30  C   UNL     1       2.569   1.157   1.623  0.00  0.00    +0.006 A 
ATOM     31  C   UNL     1       3.895   1.541   1.556  0.00  0.00    +0.000 A 
ATOM     32  C   UNL     1       4.841   0.676   1.038  0.00  0.00    +0.000 A 
ATOM     33  C   UNL     1       4.460  -0.574   0.586  0.00  0.00    +0.000 A 
ATOM     34  C   UNL     1       3.134  -0.960   0.656  0.00  0.00    +0.006 A 
ENDBRANCH  28  29
BRANCH  28  35
ATOM     35  O   UNL     1       0.143   0.044   2.414  0.00  0.00    -0.385 OA
ATOM     36  H   UNL     1       0.162   1.011   2.446  0.00  0.00    +0.210 HD
ENDBRANCH  28  35
ENDBRANCH  27  28
ENDBRANCH  22  27
ENDBRANCH   1  23
TORSDOF 8
