REMARK  Name = ZINC15957945
REMARK  11 active torsions:
REMARK  status: ('A' for Active; 'I' for Inactive)
REMARK    1  A    between atoms: C_1  and  C_2
REMARK    2  A    between atoms: C_7  and  C_8
REMARK    3  A    between atoms: C_17  and  C_20
REMARK    4  A    between atoms: C_20  and  C_21
REMARK    5  A    between atoms: N_26  and  C_29
REMARK    6  A    between atoms: C_29  and  C_30
REMARK    7  A    between atoms: C_30  and  C_31
REMARK    8  A    between atoms: C_34  and  O_39
REMARK    9  A    between atoms: C_35  and  O_37
REMARK   10  A    between atoms: O_37  and  C_38
REMARK   11  A    between atoms: O_39  and  C_40
REMARK                            x       y       z     vdW  Elec       q    Type
REMARK                         _______ _______ _______ _____ _____    ______ ____
ROOT
ATOM      1  C   UNL     1      -0.018   1.503   0.010  0.00  0.00    +0.044 C 
ATOM      2  C   UNL     1       0.002  -0.004   0.002  0.00  0.00    -0.046 A 
ATOM      3  C   UNL     1       0.006  -0.685  -1.201  0.00  0.00    +0.004 A 
ATOM      4  C   UNL     1       0.025  -2.069  -1.209  0.00  0.00    +0.008 A 
ATOM      5  C   UNL     1       0.042  -2.764  -0.021  0.00  0.00    +0.004 A 
ATOM      6  C   UNL     1       0.038  -2.090   1.196  0.00  0.00    +0.042 A 
ATOM      7  C   UNL     1       0.023  -0.697   1.195  0.00  0.00    -0.026 A 
ATOM      8  C   UNL     1       0.025   0.056   2.500  0.00  0.00    +0.046 C 
ATOM      9  N   UNL     1       0.055  -3.001   2.254  0.00  0.00    -0.283 N 
ATOM     10  C   UNL     1       0.071  -4.278   1.824  0.00  0.00    +0.243 C 
ATOM     11  O   UNL     1       0.088  -5.275   2.515  0.00  0.00    -0.273 OA
ATOM     12  C   UNL     1       0.066  -4.227   0.321  0.00  0.00    +0.136 C 
ATOM     13  C   UNL     1      -1.149  -4.961  -0.262  0.00  0.00    +0.122 C 
ATOM     14  C   UNL     1      -0.621  -5.609  -1.572  0.00  0.00    +0.107 C 
ATOM     15  C   UNL     1       0.859  -5.179  -1.660  0.00  0.00    +0.076 C 
ATOM     16  N   UNL     1       1.252  -4.895  -0.247  0.00  0.00    -0.295 NA
ATOM     17  C   UNL     1      -0.709  -7.091  -1.290  0.00  0.00    +0.227 C 
ATOM     18  O   UNL     1      -0.384  -7.971  -2.057  0.00  0.00    -0.275 OA
ATOM     19  N   UNL     1      -1.202  -7.280  -0.060  0.00  0.00    -0.241 N 
ATOM     20  C   UNL     1      -1.495  -6.144   0.614  0.00  0.00    +0.228 C 
ATOM     21  O   UNL     1      -1.956  -6.076   1.733  0.00  0.00    -0.275 OA
ATOM     22  H   UNL     1       0.057  -2.745   3.190  0.00  0.00    +0.155 HD
ATOM     23  H   UNL     1       2.058  -4.289  -0.215  0.00  0.00    +0.124 HD
ENDROOT
BRANCH  15  24
ATOM     24  C   UNL     1       1.712  -6.320  -2.216  0.00  0.00    +0.115 C 
BRANCH  24  25
ATOM     25  C   UNL     1       3.128  -5.841  -2.408  0.00  0.00    +0.212 C 
ATOM     26  O   UNL     1       3.425  -4.699  -2.128  0.00  0.00    -0.276 OA
ATOM     27  N   UNL     1       4.064  -6.681  -2.892  0.00  0.00    -0.329 N 
ATOM     28  H   UNL     1       3.826  -7.595  -3.117  0.00  0.00    +0.145 HD
ATOM     29  H   UNL     1       4.976  -6.373  -3.016  0.00  0.00    +0.145 HD
ENDBRANCH  24  25
ENDBRANCH  15  24
BRANCH  19  30
ATOM     30  C   UNL     1      -1.414  -8.612   0.512  0.00  0.00    +0.121 C 
BRANCH  30  31
ATOM     31  C   UNL     1      -0.150  -9.057   1.250  0.00  0.00    +0.054 C 
BRANCH  31  32
ATOM     32  C   UNL     1      -0.367 -10.427   1.839  0.00  0.00    -0.042 A 
ATOM     33  C   UNL     1      -0.886 -10.556   3.114  0.00  0.00    +0.007 A 
ATOM     34  C   UNL     1      -1.088 -11.810   3.658  0.00  0.00    +0.049 A 
ATOM     35  C   UNL     1      -0.771 -12.943   2.925  0.00  0.00    +0.161 A 
ATOM     36  C   UNL     1      -0.249 -12.813   1.642  0.00  0.00    +0.162 A 
ATOM     37  C   UNL     1      -0.054 -11.553   1.100  0.00  0.00    +0.053 A 
BRANCH  36  38
ATOM     38  O   UNL     1       0.063 -13.922   0.918  0.00  0.00    -0.491 OA
ATOM     39  C   UNL     1       0.594 -13.713  -0.392  0.00  0.00    +0.277 C 
ENDBRANCH  36  38
BRANCH  35  40
ATOM     40  O   UNL     1      -0.968 -14.178   3.459  0.00  0.00    -0.491 OA
ATOM     41  C   UNL     1      -1.506 -14.234   4.782  0.00  0.00    +0.277 C 
ENDBRANCH  35  40
ENDBRANCH  31  32
ENDBRANCH  30  31
ENDBRANCH  19  30
TORSDOF 7
