REMARK  Name = ZINC39673953
REMARK  8 active torsions:
REMARK  status: ('A' for Active; 'I' for Inactive)
REMARK    1  A    between atoms: C_1  and  C_2
REMARK    2  A    between atoms: C_4  and  C_12
REMARK    3  A    between atoms: C_12  and  C_13
REMARK    4  A    between atoms: C_13  and  N_14
REMARK    5  A    between atoms: C_15  and  C_17
REMARK    6  A    between atoms: C_28  and  C_30
REMARK    7  A    between atoms: C_30  and  C_31
REMARK    8  A    between atoms: C_31  and  C_32
REMARK                            x       y       z     vdW  Elec       q    Type
REMARK                         _______ _______ _______ _____ _____    ______ ____
ROOT
ATOM      1  C   UNL     1      -5.411   3.612   3.667  0.00  0.00    +0.100 C 
ATOM      2  C   UNL     1      -4.990   2.443   4.585  0.00  0.00    +0.121 C 
ATOM      3  N   UNL     1      -4.246   3.086   5.694  0.00  0.00    -0.300 N 
ATOM      4  C   UNL     1      -5.003   4.330   5.972  0.00  0.00    +0.115 C 
ATOM      5  C   UNL     1      -5.422   4.848   4.582  0.00  0.00    -0.004 C 
ATOM      6  C   UNL     1      -6.824   5.448   4.642  0.00  0.00    -0.010 C 
ATOM      7  C   UNL     1      -6.797   6.710   5.510  0.00  0.00    -0.082 C 
ATOM      8  N   UNL     1      -5.852   7.678   4.940  0.00  0.00    +0.379 N 
ATOM      9  C   UNL     1      -4.492   7.128   4.972  0.00  0.00    -0.082 C 
ATOM     10  C   UNL     1      -4.421   5.884   4.081  0.00  0.00    -0.010 C 
ATOM     11  C   UNL     1      -3.134   2.641   6.310  0.00  0.00    +0.216 C 
ATOM     12  O   UNL     1      -2.639   3.287   7.209  0.00  0.00    -0.276 OA
ATOM     13  H   UNL     1      -6.111   7.877   3.985  0.00  0.00    -0.086 HD
ATOM     14  H   UNL     1      -5.881   8.531   5.478  0.00  0.00    -0.086 HD
ENDROOT
BRANCH   1  16
ATOM     15  N   UNL     1      -4.804   4.306   1.372  0.00  0.00    -0.315 N 
ATOM     16  C   UNL     1      -4.411   3.791   2.554  0.00  0.00    +0.218 C 
ATOM     17  O   UNL     1      -3.253   3.473   2.722  0.00  0.00    -0.275 OA
ATOM     18  H   UNL     1      -5.730   4.560   1.237  0.00  0.00    +0.149 HD
BRANCH  15  19
ATOM     19  C   UNL     1      -3.831   4.480   0.290  0.00  0.00    +0.109 C 
BRANCH  19  20
ATOM     20  C   UNL     1      -4.531   5.077  -0.933  0.00  0.00    +0.056 C 
BRANCH  20  24
ATOM     21  C   UNL     1      -3.831   2.986  -3.117  0.00  0.00    +0.063 C 
ATOM     22  C   UNL     1      -3.222   4.359  -2.994  0.00  0.00    +0.017 A 
ATOM     23  H   UNL     1      -1.883   4.407  -4.590  0.00  0.00    +0.166 HD
ATOM     24  C   UNL     1      -3.531   5.257  -2.046  0.00  0.00    -0.018 A 
ATOM     25  C   UNL     1      -2.712   6.445  -2.298  0.00  0.00    +0.003 A 
ATOM     26  C   UNL     1      -2.582   7.685  -1.670  0.00  0.00    +0.010 A 
ATOM     27  C   UNL     1      -1.702   8.607  -2.165  0.00  0.00    +0.001 A 
ATOM     28  C   UNL     1      -0.937   8.320  -3.286  0.00  0.00    +0.002 A 
ATOM     29  C   UNL     1      -1.049   7.102  -3.921  0.00  0.00    +0.026 A 
ATOM     30  C   UNL     1      -1.938   6.149  -3.435  0.00  0.00    +0.047 A 
ATOM     31  N   UNL     1      -2.268   4.872  -3.830  0.00  0.00    -0.358 N 
ENDBRANCH  20  24
ENDBRANCH  19  20
ENDBRANCH  15  19
ENDBRANCH   1  16
BRANCH  11  32
ATOM     32  C   UNL     1      -2.504   1.341   5.882  0.00  0.00    +0.100 C 
BRANCH  32  33
ATOM     33  C   UNL     1      -1.264   1.069   6.735  0.00  0.00    +0.044 C 
BRANCH  33  34
ATOM     34  C   UNL     1      -0.634  -0.231   6.307  0.00  0.00    -0.047 A 
ATOM     35  C   UNL     1      -1.025  -1.417   6.901  0.00  0.00    +0.003 A 
ATOM     36  C   UNL     1      -0.447  -2.610   6.508  0.00  0.00    +0.000 A 
ATOM     37  C   UNL     1       0.520  -2.617   5.521  0.00  0.00    +0.000 A 
ATOM     38  C   UNL     1       0.910  -1.432   4.926  0.00  0.00    +0.000 A 
ATOM     39  C   UNL     1       0.330  -0.239   5.316  0.00  0.00    +0.003 A 
ENDBRANCH  33  34
ENDBRANCH  32  33
ENDBRANCH  11  32
TORSDOF 7
