REMARK  Name = ZINC13799141
REMARK  17 active torsions:
REMARK  status: ('A' for Active; 'I' for Inactive)
REMARK    1  A    between atoms: C_1  and  C_2
REMARK    2  A    between atoms: C_2  and  C_3
REMARK    3  A    between atoms: C_3  and  C_4
REMARK    4  A    between atoms: C_4  and  C_5
REMARK    5  A    between atoms: C_5  and  C_6
REMARK    6  A    between atoms: C_6  and  C_7
REMARK    7  A    between atoms: C_7  and  O_36
REMARK    8  A    between atoms: C_8  and  C_35
REMARK    9  A    between atoms: C_10  and  C_26
REMARK   10  A    between atoms: C_12  and  C_17
REMARK   11  A    between atoms: C_14  and  C_16
REMARK   12  A    between atoms: C_20  and  N_23
REMARK   13  A    between atoms: N_23  and  C_24
REMARK   14  A    between atoms: N_23  and  C_25
REMARK   15  A    between atoms: C_29  and  N_32
REMARK   16  A    between atoms: N_32  and  C_33
REMARK   17  A    between atoms: N_32  and  C_34
REMARK                            x       y       z     vdW  Elec       q    Type
REMARK                         _______ _______ _______ _____ _____    ______ ____
ROOT
ATOM      1  C   UNL     1      -4.107   3.935  -0.799  0.00  0.00    +0.069 C 
ATOM      2  C   UNL     1      -5.189   4.349   0.201  0.00  0.00    +0.008 C 
ATOM      3  C   UNL     1      -4.861   3.758   1.574  0.00  0.00    -0.034 C 
ATOM      4  C   UNL     1      -2.486   3.819   1.096  0.00  0.00    -0.034 C 
ATOM      5  C   UNL     1      -2.743   4.412  -0.291  0.00  0.00    +0.008 C 
ATOM      6  C   UNL     1      -1.649   3.950  -1.255  0.00  0.00    +0.009 C 
ATOM      7  C   UNL     1      -6.548   3.826  -0.269  0.00  0.00    +0.009 C 
ATOM      8  N   UNL     1      -3.546   4.251   2.027  0.00  0.00    +0.389 N 
ATOM      9  H   UNL     1      -3.348   3.877   2.962  0.00  0.00    -0.084 HD
ATOM     10  H   UNL     1      -3.564   5.277   2.065  0.00  0.00    -0.084 HD
ENDROOT
BRANCH   4  11
ATOM     11  C   UNL     1      -1.153   4.301   1.609  0.00  0.00    -0.061 A 
ATOM     12  C   UNL     1      -1.043   5.564   2.161  0.00  0.00    +0.004 A 
ATOM     13  C   UNL     1       0.178   6.012   2.626  0.00  0.00    +0.023 A 
ATOM     14  C   UNL     1       1.295   5.191   2.540  0.00  0.00    +0.029 A 
ATOM     15  C   UNL     1       1.181   3.923   1.985  0.00  0.00    +0.023 A 
ATOM     16  C   UNL     1      -0.043   3.482   1.521  0.00  0.00    +0.004 A 
BRANCH  14  17
ATOM     17  N   UNL     1       2.532   5.641   3.010  0.00  0.00    -0.336 N 
ATOM     18  C   UNL     1       3.709   4.774   2.917  0.00  0.00    +0.129 C 
ATOM     19  C   UNL     1       2.651   6.979   3.594  0.00  0.00    +0.129 C 
ENDBRANCH  14  17
ENDBRANCH   4  11
BRANCH   3  20
ATOM     20  C   UNL     1      -5.913   4.180   2.567  0.00  0.00    -0.061 A 
ATOM     21  C   UNL     1      -5.857   5.438   3.139  0.00  0.00    +0.004 A 
ATOM     22  C   UNL     1      -6.823   5.829   4.045  0.00  0.00    +0.023 A 
ATOM     23  C   UNL     1      -7.845   4.954   4.390  0.00  0.00    +0.029 A 
ATOM     24  C   UNL     1      -7.896   3.690   3.817  0.00  0.00    +0.023 A 
ATOM     25  C   UNL     1      -6.929   3.306   2.908  0.00  0.00    +0.004 A 
BRANCH  23  26
ATOM     26  N   UNL     1      -8.820   5.345   5.311  0.00  0.00    -0.336 N 
ATOM     27  C   UNL     1      -9.898   4.421   5.673  0.00  0.00    +0.129 C 
ATOM     28  C   UNL     1      -8.766   6.679   5.913  0.00  0.00    +0.129 C 
ENDBRANCH  23  26
ENDBRANCH   3  20
BRANCH   1  29
ATOM     29  O   UNL     1      -4.379   4.530  -2.070  0.00  0.00    -0.388 OA
ATOM     30  H   UNL     1      -3.731   4.310  -2.754  0.00  0.00    +0.210 HD
ENDBRANCH   1  29
BRANCH   1  31
ATOM     31  C   UNL     1      -4.096   2.412  -0.940  0.00  0.00    +0.035 C 
BRANCH  31  32
ATOM     32  C   UNL     1      -3.724   1.778   0.403  0.00  0.00    +0.003 C 
BRANCH  32  33
ATOM     33  C   UNL     1      -4.779   0.739   0.786  0.00  0.00    +0.000 C 
BRANCH  33  34
ATOM     34  C   UNL     1      -4.407   0.106   2.128  0.00  0.00    -0.000 C 
BRANCH  34  36
ATOM     35  C   UNL     1      -5.089  -1.567   3.854  0.00  0.00    +0.004 C 
ATOM     36  C   UNL     1      -5.462  -0.934   2.512  0.00  0.00    -0.003 C 
ENDBRANCH  34  36
ENDBRANCH  33  34
ENDBRANCH  32  33
ENDBRANCH  31  32
ENDBRANCH   1  31
TORSDOF 10
