REMARK  Name = ZINC36325168
REMARK  7 active torsions:
REMARK  status: ('A' for Active; 'I' for Inactive)
REMARK    1  A    between atoms: C_1  and  C_2
REMARK    2  A    between atoms: C_2  and  C_4
REMARK    3  A    between atoms: C_2  and  N_7
REMARK    4  A    between atoms: N_7  and  C_8
REMARK    5  A    between atoms: C_8  and  C_9
REMARK    6  A    between atoms: C_12  and  O_16
REMARK    7  A    between atoms: O_16  and  C_17
REMARK                            x       y       z     vdW  Elec       q    Type
REMARK                         _______ _______ _______ _____ _____    ______ ____
ROOT
ATOM      1  C   UNL     1       2.100  -0.070  -1.159  0.00  0.00    -0.046 C 
ENDROOT
BRANCH   1   2
ATOM      2  C   UNL     1       2.806  -0.556  -2.399  0.00  0.00    -0.062 A 
ATOM      3  C   UNL     1       3.401  -1.804  -2.410  0.00  0.00    +0.020 A 
ATOM      4  C   UNL     1       4.049  -2.252  -3.546  0.00  0.00    +0.061 A 
ATOM      5  C   UNL     1       4.101  -1.449  -4.676  0.00  0.00    +0.148 A 
ATOM      6  C   UNL     1       3.503  -0.197  -4.662  0.00  0.00    +0.061 A 
ATOM      7  C   UNL     1       2.852   0.244  -3.525  0.00  0.00    +0.020 A 
ATOM      8 BR   UNL     1       3.572   0.902  -6.199  0.00  0.00    -0.046 Br
ATOM      9 BR   UNL     1       4.863  -3.959  -3.559  0.00  0.00    -0.046 Br
BRANCH   5  10
ATOM     10  O   UNL     1       4.738  -1.887  -5.794  0.00  0.00    -0.493 OA
ATOM     11  C   UNL     1       3.955  -2.611  -6.745  0.00  0.00    +0.277 C 
ENDBRANCH   5  10
ENDBRANCH   1   2
BRANCH   1  12
ATOM     12  N   UNL     1       0.690  -0.478  -1.207  0.00  0.00    +0.389 N 
ATOM     13  H   UNL     1       0.632  -1.484  -1.254  0.00  0.00    -0.084 HD
ATOM     14  H   UNL     1       0.251  -0.077  -2.022  0.00  0.00    -0.084 HD
BRANCH  12  16
ATOM     15  C   UNL     1      -0.019   1.526   0.010  0.00  0.00    -0.004 C 
ATOM     16  C   UNL     1       0.002  -0.004   0.002  0.00  0.00    +0.013 C 
BRANCH  16  17
ATOM     17  C   UNL     1      -1.412  -0.526   0.013  0.00  0.00    +0.196 C 
ATOM     18  O   UNL     1      -1.808  -1.223  -0.897  0.00  0.00    -0.278 OA
ATOM     19  N   UNL     1      -2.236  -0.217   1.033  0.00  0.00    -0.331 N 
ATOM     20  H   UNL     1      -1.920   0.341   1.761  0.00  0.00    +0.145 HD
ATOM     21  H   UNL     1      -3.146  -0.553   1.040  0.00  0.00    +0.145 HD
ENDBRANCH  16  17
ENDBRANCH  12  16
ENDBRANCH   1  12
TORSDOF 5
