REMARK  Name = ZINC65486360
REMARK  8 active torsions:
REMARK  status: ('A' for Active; 'I' for Inactive)
REMARK    1  A    between atoms: C_1  and  C_2
REMARK    2  A    between atoms: C_3  and  C_9
REMARK    3  A    between atoms: C_4  and  C_8
REMARK    4  A    between atoms: N_5  and  C_7
REMARK    5  A    between atoms: C_9  and  C_10
REMARK    6  A    between atoms: C_9  and  N_11
REMARK    7  A    between atoms: N_14  and  N_15
REMARK    8  A    between atoms: N_15  and  C_16
REMARK                            x       y       z     vdW  Elec       q    Type
REMARK                         _______ _______ _______ _____ _____    ______ ____
ROOT
ATOM      1  N   UNL     1       0.650   1.052  -2.822  0.00  0.00    -0.292 N 
ATOM      2  C   UNL     1       1.279   1.214  -4.003  0.00  0.00    +0.316 C 
ATOM      3  O   UNL     1       0.913   0.587  -4.978  0.00  0.00    -0.251 OA
ATOM      4  N   UNL     1       2.314   2.072  -4.103  0.00  0.00    -0.220 N 
ATOM      5  H   UNL     1       0.942   1.553  -2.044  0.00  0.00    +0.151 HD
ATOM      6  H   UNL     1       2.766   2.188  -4.953  0.00  0.00    +0.174 HD
ENDROOT
BRANCH   1   7
ATOM      7  C   UNL     1      -0.475   0.120  -2.713  0.00  0.00    +0.105 C 
ATOM      8  C   UNL     1      -1.765   0.825  -3.136  0.00  0.00    +0.033 C 
BRANCH   7  11
ATOM      9  C   UNL     1      -0.326   1.952  -0.132  0.00  0.00    +0.068 C 
ATOM     10  C   UNL     1      -0.538   0.460  -0.146  0.00  0.00    +0.065 A 
ATOM     11  C   UNL     1      -0.603  -0.348  -1.286  0.00  0.00    +0.016 A 
ATOM     12  C   UNL     1      -0.803  -1.623  -0.881  0.00  0.00    +0.041 A 
ATOM     13  N   UNL     1      -0.862  -1.623   0.467  0.00  0.00    -0.271 N 
ATOM     14  N   UNL     1      -0.688  -0.304   0.905  0.00  0.00    -0.176 NA
ATOM     15  C   UNL     1      -1.066  -2.795   1.321  0.00  0.00    +0.172 C 
ATOM     16  C   UNL     1      -0.936  -2.829  -1.776  0.00  0.00    +0.065 C 
ENDBRANCH   7  11
ENDBRANCH   1   7
BRANCH   4  17
ATOM     17  N   UNL     1       2.736   2.795  -2.980  0.00  0.00    -0.261 N 
ATOM     18  H   UNL     1       2.339   2.619  -2.112  0.00  0.00    +0.170 HD
BRANCH  17  19
ATOM     19  C   UNL     1       3.729   3.771  -3.109  0.00  0.00    +0.081 A 
ATOM     20  C   UNL     1       4.659   3.957  -2.093  0.00  0.00    +0.066 A 
ATOM     21  C   UNL     1       5.639   4.923  -2.223  0.00  0.00    +0.042 A 
ATOM     22  C   UNL     1       5.696   5.703  -3.365  0.00  0.00    +0.044 A 
ATOM     23  C   UNL     1       4.772   5.520  -4.378  0.00  0.00    +0.042 A 
ATOM     24  C   UNL     1       3.793   4.552  -4.256  0.00  0.00    +0.066 A 
ATOM     25 CL   UNL     1       2.639   4.318  -5.532  0.00  0.00    -0.081 Cl
ATOM     26 CL   UNL     1       6.928   6.915  -3.524  0.00  0.00    -0.083 Cl
ATOM     27 CL   UNL     1       4.587   2.979  -0.660  0.00  0.00    -0.081 Cl
ENDBRANCH  17  19
ENDBRANCH   4  17
TORSDOF 4
