REMARK  Name = ZINC39354220
REMARK  5 active torsions:
REMARK  status: ('A' for Active; 'I' for Inactive)
REMARK    1  A    between atoms: C_7  and  C_10
REMARK    2  A    between atoms: N_11  and  N_12
REMARK    3  A    between atoms: C_17  and  C_20
REMARK    4  A    between atoms: C_20  and  C_21
REMARK    5  A    between atoms: N_23  and  C_24
REMARK                            x       y       z     vdW  Elec       q    Type
REMARK                         _______ _______ _______ _____ _____    ______ ____
ROOT
ATOM      1  N   UNL     1       0.356  -5.357  -0.020  0.00  0.00    -0.127 NA
ATOM      2  C   UNL     1       0.821  -6.604  -0.037  0.00  0.00    +0.183 C 
ATOM      3  N   UNL     1       2.129  -6.994  -0.054  0.00  0.00    -0.263 N 
ATOM      4  C   UNL     1       2.490  -8.270  -0.070  0.00  0.00    +0.233 C 
ATOM      5  O   UNL     1       3.646  -8.636  -0.085  0.00  0.00    -0.274 OA
ATOM      6  C   UNL     1       1.308  -9.227  -0.068  0.00  0.00    +0.149 C 
ATOM      7  S   UNL     1      -0.081  -8.023  -0.035  0.00  0.00    -0.075 S 
ATOM      8  H   UNL     1       2.819  -6.313  -0.055  0.00  0.00    +0.157 HD
ENDROOT
BRANCH   1  10
ATOM      9  C   UNL     1       0.714  -3.123  -0.007  0.00  0.00    +0.141 C 
ATOM     10  N   UNL     1       1.177  -4.362  -0.024  0.00  0.00    -0.155 NA
BRANCH   9  17
ATOM     11  C   UNL     1       0.037   1.360   0.038  0.00  0.00    +0.001 A 
ATOM     12  C   UNL     1       1.220   2.100   0.026  0.00  0.00    +0.002 A 
ATOM     13  C   UNL     1       2.437   1.501   0.003  0.00  0.00    +0.026 A 
ATOM     14  C   UNL     1       2.527   0.086  -0.009  0.00  0.00    +0.043 A 
ATOM     15  N   UNL     1       3.571  -0.722  -0.032  0.00  0.00    -0.380 N 
ATOM     16  C   UNL     1       3.110  -2.113  -0.035  0.00  0.00    +0.150 C 
ATOM     17  C   UNL     1       1.598  -2.052  -0.012  0.00  0.00    +0.000 C 
ATOM     18  C   UNL     1       1.277  -0.688   0.004  0.00  0.00    +0.004 A 
ATOM     19  C   UNL     1       0.049   0.000   0.027  0.00  0.00    +0.010 A 
ATOM     20  H   UNL     1       4.499  -0.439  -0.044  0.00  0.00    +0.160 HD
ENDBRANCH   9  17
ENDBRANCH   1  10
BRANCH   6  21
ATOM     21  C   UNL     1       1.306 -10.105   1.185  0.00  0.00    +0.120 C 
BRANCH  21  22
ATOM     22  C   UNL     1       0.194 -11.117   1.088  0.00  0.00    +0.219 C 
ATOM     23  O   UNL     1      -0.527 -11.135   0.113  0.00  0.00    -0.275 OA
ATOM     24  N   UNL     1       0.000 -12.003   2.086  0.00  0.00    -0.285 N 
ATOM     25  H   UNL     1       0.616 -12.034   2.834  0.00  0.00    +0.155 HD
BRANCH  24  26
ATOM     26  C   UNL     1      -1.091 -12.879   2.041  0.00  0.00    +0.033 A 
ATOM     27  C   UNL     1      -1.743 -13.237   3.213  0.00  0.00    +0.024 A 
ATOM     28  C   UNL     1      -2.820 -14.102   3.167  0.00  0.00    +0.017 A 
ATOM     29  C   UNL     1      -3.248 -14.610   1.953  0.00  0.00    +0.018 A 
ATOM     30  C   UNL     1      -2.599 -14.255   0.784  0.00  0.00    +0.017 A 
ATOM     31  C   UNL     1      -1.526 -13.387   0.824  0.00  0.00    +0.024 A 
ATOM     32 BR   UNL     1      -4.721 -15.794   1.893  0.00  0.00    -0.050 Br
ENDBRANCH  24  26
ENDBRANCH  21  22
ENDBRANCH   6  21
TORSDOF 5
