REMARK  Name = ZINC13636065
REMARK  3 active torsions:
REMARK  status: ('A' for Active; 'I' for Inactive)
REMARK    1  A    between atoms: C_10  and  N_11
REMARK    2  A    between atoms: N_13  and  C_18
REMARK    3  A    between atoms: C_18  and  C_19
REMARK                            x       y       z     vdW  Elec       q    Type
REMARK                         _______ _______ _______ _____ _____    ______ ____
ROOT
ATOM      1  N   UNL     1       4.871   0.098  -0.043  0.00  0.00    -0.268 N 
ATOM      2  C   UNL     1       5.508   0.457   1.226  0.00  0.00    +0.201 C 
ATOM      3  N   UNL     1       6.963   0.549   1.029  0.00  0.00    -0.267 NA
ATOM      4  C   UNL     1       7.276   1.520  -0.030  0.00  0.00    +0.192 C 
ATOM      5  N   UNL     1       6.587   1.129  -1.262  0.00  0.00    -0.313 N 
ATOM      6  C   UNL     1       5.431   0.445  -1.215  0.00  0.00    +0.139 C 
ATOM      7  S   UNL     1       4.653   0.011  -2.677  0.00  0.00    -0.018 S 
ATOM      8  H   UNL     1       6.971   1.364  -2.122  0.00  0.00    +0.149 HD
ENDROOT
BRANCH   1  18
ATOM      9  C   UNL     1      -0.016   1.357   0.009  0.00  0.00    +0.001 A 
ATOM     10  C   UNL     1       1.169   2.090   0.002  0.00  0.00    +0.001 A 
ATOM     11  C   UNL     1       2.378   1.466  -0.013  0.00  0.00    +0.010 A 
ATOM     12  C   UNL     1       2.437   0.064  -0.021  0.00  0.00    +0.004 A 
ATOM     13  C   UNL     1       1.233  -0.683  -0.013  0.00  0.00    -0.016 A 
ATOM     14  C   UNL     1       0.002  -0.004   0.002  0.00  0.00    +0.008 A 
ATOM     15  C   UNL     1       1.290  -2.087  -0.020  0.00  0.00    +0.008 A 
ATOM     16  C   UNL     1       2.496  -2.719  -0.034  0.00  0.00    +0.002 A 
ATOM     17  C   UNL     1       3.685  -1.996  -0.041  0.00  0.00    +0.024 A 
ATOM     18  C   UNL     1       3.672  -0.618  -0.036  0.00  0.00    +0.044 A 
ENDBRANCH   1  18
BRANCH   3  19
ATOM     19  C   UNL     1       7.643   0.899   2.283  0.00  0.00    +0.124 C 
BRANCH  19  20
ATOM     20  C   UNL     1       9.131   0.745   2.107  0.00  0.00    -0.015 A 
ATOM     21  C   UNL     1       9.748  -0.467   2.380  0.00  0.00    +0.008 A 
ATOM     22  C   UNL     1      11.120  -0.563   2.204  0.00  0.00    +0.020 A 
ATOM     23  C   UNL     1      11.822   0.544   1.766  0.00  0.00    +0.111 A 
ATOM     24  N   UNL     1      11.202   1.681   1.517  0.00  0.00    -0.263 NA
ATOM     25  C   UNL     1       9.898   1.807   1.667  0.00  0.00    +0.115 A 
ENDBRANCH  19  20
ENDBRANCH   3  19
TORSDOF 3
