REMARK  Name = ZINC38785209
REMARK  8 active torsions:
REMARK  status: ('A' for Active; 'I' for Inactive)
REMARK    1  A    between atoms: C_1  and  C_2
REMARK    2  A    between atoms: C_2  and  C_3
REMARK    3  A    between atoms: C_2  and  C_4
REMARK    4  A    between atoms: C_7  and  C_10
REMARK    5  A    between atoms: C_14  and  S_18
REMARK    6  A    between atoms: S_18  and  C_19
REMARK    7  A    between atoms: C_19  and  C_20
REMARK    8  A    between atoms: N_22  and  N_23
REMARK                            x       y       z     vdW  Elec       q    Type
REMARK                         _______ _______ _______ _____ _____    ______ ____
ROOT
ATOM      1  C   UNL     1      -5.386  -1.991   0.042  0.00  0.00    -0.015 C 
ATOM      2  C   UNL     1      -6.294  -1.612  -0.911  0.00  0.00    +0.075 C 
ATOM      3  C   UNL     1      -7.651  -2.176  -0.816  0.00  0.00    +0.112 C 
ATOM      4  N   UNL     1      -8.570  -1.856  -1.694  0.00  0.00    -0.217 NA
ATOM      5  C   UNL     1      -8.310  -1.016  -2.694  0.00  0.00    +0.182 C 
ATOM      6  N   UNL     1      -7.127  -0.453  -2.872  0.00  0.00    -0.151 NA
ATOM      7  C   UNL     1      -6.093  -0.681  -2.062  0.00  0.00    +0.272 C 
ATOM      8  O   UNL     1      -5.014  -0.145  -2.255  0.00  0.00    -0.268 OA
ATOM      9  S   UNL     1      -7.611  -3.227   0.614  0.00  0.00    -0.100 S 
ATOM     10  C   UNL     1      -5.860  -2.959   1.101  0.00  0.00    +0.112 C 
ENDROOT
BRANCH   1  14
ATOM     11  C   UNL     1      -1.412  -0.526   0.013  0.00  0.00    -0.045 A 
ATOM     12  C   UNL     1      -2.257  -0.201   1.060  0.00  0.00    +0.004 A 
ATOM     13  C   UNL     1      -3.551  -0.673   1.079  0.00  0.00    +0.008 A 
ATOM     14  C   UNL     1      -4.012  -1.484   0.032  0.00  0.00    -0.020 A 
ATOM     15  C   UNL     1      -3.149  -1.808  -1.025  0.00  0.00    +0.008 A 
ATOM     16  C   UNL     1      -1.859  -1.322  -1.028  0.00  0.00    +0.004 A 
BRANCH  11  18
ATOM     17  C   UNL     1      -0.019   1.526   0.010  0.00  0.00    +0.012 C 
ATOM     18  C   UNL     1       0.002  -0.004   0.002  0.00  0.00    +0.013 C 
ATOM     19  C   UNL     1       0.742  -0.511   1.242  0.00  0.00    +0.012 C 
ENDBRANCH  11  18
ENDBRANCH   1  14
BRANCH   5  20
ATOM     20  S   UNL     1      -9.601  -0.638  -3.832  0.00  0.00    -0.079 S 
BRANCH  20  21
ATOM     21  C   UNL     1      -8.830   0.515  -5.002  0.00  0.00    +0.174 C 
BRANCH  21  22
ATOM     22  C   UNL     1      -9.840   0.923  -6.043  0.00  0.00    +0.242 C 
ATOM     23  O   UNL     1     -10.968   0.480  -6.000  0.00  0.00    -0.273 OA
ATOM     24  N   UNL     1      -9.490   1.781  -7.022  0.00  0.00    -0.206 N 
ATOM     25  H   UNL     1      -8.587   2.135  -7.056  0.00  0.00    +0.177 HD
BRANCH  24  26
ATOM     26  N   UNL     1     -10.429   2.160  -7.990  0.00  0.00    -0.175 NA
ATOM     27  C   UNL     1     -10.088   2.994  -8.942  0.00  0.00    +0.152 C 
ATOM     28  C   UNL     1     -10.941   3.509 -10.039  0.00  0.00    +0.028 A 
ATOM     29  C   UNL     1     -12.269   3.297 -10.392  0.00  0.00    +0.012 A 
ATOM     30  C   UNL     1     -12.794   3.936 -11.497  0.00  0.00    +0.001 A 
ATOM     31  C   UNL     1     -11.999   4.784 -12.251  0.00  0.00    +0.002 A 
ATOM     32  C   UNL     1     -10.680   5.000 -11.909  0.00  0.00    +0.024 A 
ATOM     33  C   UNL     1     -10.133   4.365 -10.799  0.00  0.00    +0.043 A 
ATOM     34  N   UNL     1      -8.859   4.408 -10.245  0.00  0.00    -0.280 N 
ATOM     35  C   UNL     1      -8.771   3.631  -9.152  0.00  0.00    +0.269 C 
ATOM     36  O   UNL     1      -7.782   3.476  -8.460  0.00  0.00    -0.268 OA
ATOM     37  H   UNL     1      -8.126   4.935 -10.600  0.00  0.00    +0.155 HD
ENDBRANCH  24  26
ENDBRANCH  21  22
ENDBRANCH  20  21
ENDBRANCH   5  20
TORSDOF 6
