REMARK  Name = ZINC05924054
REMARK  11 active torsions:
REMARK  status: ('A' for Active; 'I' for Inactive)
REMARK    1  A    between atoms: C_1  and  C_2
REMARK    2  A    between atoms: C_2  and  C_3
REMARK    3  A    between atoms: C_3  and  O_4
REMARK    4  A    between atoms: O_4  and  C_5
REMARK    5  A    between atoms: C_8  and  C_11
REMARK    6  A    between atoms: C_18  and  N_33
REMARK    7  A    between atoms: C_19  and  C_31
REMARK    8  A    between atoms: C_20  and  C_22
REMARK    9  A    between atoms: C_25  and  O_29
REMARK   10  A    between atoms: C_26  and  O_28
REMARK   11  A    between atoms: O_29  and  C_30
REMARK                            x       y       z     vdW  Elec       q    Type
REMARK                         _______ _______ _______ _____ _____    ______ ____
ROOT
ATOM      1  C   UNL     1       3.257  -4.658  -5.971  0.00  0.00    +0.100 A 
ATOM      2  C   UNL     1       4.108  -5.736  -5.705  0.00  0.00    +0.054 A 
ATOM      3  C   UNL     1       4.643  -6.153  -6.889  0.00  0.00    +0.223 A 
ATOM      4  N   UNL     1       4.145  -5.366  -7.865  0.00  0.00    -0.246 N 
ATOM      5  H   UNL     1       4.349  -5.432  -8.811  0.00  0.00    +0.192 HD
ATOM      6  N   UNL     1       3.275  -4.437  -7.272  0.00  0.00    -0.171 NA
ATOM      7  O   UNL     1       5.517  -7.187  -6.973  0.00  0.00    -0.423 OA
ATOM      8  C   UNL     1       6.069  -7.633  -5.827  0.00  0.00    +0.200 C 
ATOM      9  C   UNL     1       5.619  -7.301  -4.597  0.00  0.00    +0.098 C 
ATOM     10  C   UNL     1       4.437  -6.388  -4.388  0.00  0.00    +0.102 C 
ENDROOT
BRANCH   1  14
ATOM     11  C   UNL     1       0.999  -2.483  -3.095  0.00  0.00    +0.121 A 
ATOM     12  C   UNL     1       2.309  -2.846  -2.817  0.00  0.00    +0.046 A 
ATOM     13  C   UNL     1       3.044  -3.551  -3.747  0.00  0.00    +0.013 A 
ATOM     14  C   UNL     1       2.469  -3.900  -4.967  0.00  0.00    +0.003 A 
ATOM     15  C   UNL     1       1.153  -3.534  -5.244  0.00  0.00    +0.013 A 
ATOM     16  C   UNL     1       0.422  -2.834  -4.308  0.00  0.00    +0.046 A 
BRANCH  11  17
ATOM     17  O   UNL     1       0.277  -1.788  -2.177  0.00  0.00    -0.492 OA
BRANCH  17  18
ATOM     18  C   UNL     1       0.933  -1.461  -0.950  0.00  0.00    +0.229 C 
BRANCH  18  20
ATOM     19  C   UNL     1       0.672  -0.334   1.264  0.00  0.00    +0.007 C 
ATOM     20  C   UNL     1      -0.030  -0.685  -0.049  0.00  0.00    +0.038 C 
ENDBRANCH  18  20
ENDBRANCH  17  18
ENDBRANCH  11  17
ENDBRANCH   1  14
BRANCH  10  21
ATOM     21  C   UNL     1       3.254  -7.190  -3.908  0.00  0.00    -0.031 A 
ATOM     22  C   UNL     1       2.715  -8.174  -4.716  0.00  0.00    +0.008 A 
ATOM     23  C   UNL     1       1.630  -8.913  -4.281  0.00  0.00    +0.050 A 
ATOM     24  C   UNL     1       1.081  -8.668  -3.032  0.00  0.00    +0.161 A 
ATOM     25  C   UNL     1       1.624  -7.677  -2.219  0.00  0.00    +0.159 A 
ATOM     26  C   UNL     1       2.714  -6.944  -2.659  0.00  0.00    +0.053 A 
BRANCH  25  27
ATOM     27  O   UNL     1       1.089  -7.433  -0.993  0.00  0.00    -0.503 OA
ATOM     28  H   UNL     1       1.482  -7.956  -0.281  0.00  0.00    +0.292 HD
ENDBRANCH  25  27
BRANCH  24  29
ATOM     29  O   UNL     1       0.014  -9.393  -2.603  0.00  0.00    -0.491 OA
ATOM     30  C   UNL     1      -0.491 -10.392  -3.491  0.00  0.00    +0.277 C 
ENDBRANCH  24  29
ENDBRANCH  10  21
BRANCH   8  31
ATOM     31  N   UNL     1       7.151  -8.474  -5.915  0.00  0.00    -0.328 N 
ATOM     32  H   UNL     1       7.496  -8.731  -6.784  0.00  0.00    +0.145 HD
ATOM     33  H   UNL     1       7.569  -8.812  -5.108  0.00  0.00    +0.145 HD
ENDBRANCH   8  31
BRANCH   9  34
ATOM     34  C   UNL     1       6.290  -7.835  -3.450  0.00  0.00    +0.101 C 
ATOM     35  N   UNL     1       6.822  -8.259  -2.540  0.00  0.00    -0.191 NA
ENDBRANCH   9  34
TORSDOF 9
