REMARK  Name = ZINC40168732
REMARK  9 active torsions:
REMARK  status: ('A' for Active; 'I' for Inactive)
REMARK    1  A    between atoms: C_1  and  C_2
REMARK    2  A    between atoms: C_3  and  C_35
REMARK    3  A    between atoms: C_5  and  N_10
REMARK    4  A    between atoms: C_6  and  C_7
REMARK    5  A    between atoms: C_11  and  C_13
REMARK    6  A    between atoms: C_13  and  C_15
REMARK    7  A    between atoms: C_13  and  O_16
REMARK    8  A    between atoms: O_16  and  C_17
REMARK    9  A    between atoms: C_27  and  C_28
REMARK                            x       y       z     vdW  Elec       q    Type
REMARK                         _______ _______ _______ _____ _____    ______ ____
ROOT
ATOM      1  O   UNL     1       0.403  -6.706   2.324  0.00  0.00    -0.473 OA
ENDROOT
BRANCH   1   2
ATOM      2  C   UNL     1       1.237  -7.576   2.956  0.00  0.00    +0.212 A 
ATOM      3  C   UNL     1       2.581  -7.212   3.223  0.00  0.00    +0.235 A 
ATOM      4  O   UNL     1       3.020  -6.121   2.897  0.00  0.00    -0.283 OA
ATOM      5  C   UNL     1       3.428  -8.205   3.912  0.00  0.00    +0.068 A 
ATOM      6  C   UNL     1       4.761  -7.933   4.215  0.00  0.00    +0.015 A 
ATOM      7  C   UNL     1       5.520  -8.886   4.859  0.00  0.00    +0.001 A 
ATOM      8  C   UNL     1       4.962 -10.109   5.204  0.00  0.00    +0.004 A 
ATOM      9  C   UNL     1       3.645 -10.390   4.909  0.00  0.00    +0.047 A 
ATOM     10  C   UNL     1       2.862  -9.442   4.260  0.00  0.00    +0.140 A 
ATOM     11  O   UNL     1       1.571  -9.697   3.964  0.00  0.00    -0.451 OA
ATOM     12  C   UNL     1       0.785  -8.803   3.342  0.00  0.00    +0.181 A 
BRANCH  12  13
ATOM     13  C   UNL     1      -0.618  -9.164   3.063  0.00  0.00    +0.021 A 
ATOM     14  C   UNL     1      -1.160  -8.940   1.795  0.00  0.00    +0.013 A 
ATOM     15  C   UNL     1      -2.472  -9.280   1.540  0.00  0.00    +0.021 A 
ATOM     16  C   UNL     1      -3.252  -9.841   2.538  0.00  0.00    +0.041 A 
ATOM     17  C   UNL     1      -2.720 -10.065   3.797  0.00  0.00    +0.021 A 
ATOM     18  C   UNL     1      -1.408  -9.735   4.063  0.00  0.00    +0.013 A 
ATOM     19 CL   UNL     1      -4.903 -10.266   2.209  0.00  0.00    -0.084 Cl
ENDBRANCH  12  13
ENDBRANCH   1   2
BRANCH   1  20
ATOM     20  C   UNL     1       0.066  -5.506   3.023  0.00  0.00    +0.256 C 
ATOM     21  C   UNL     1      -1.254  -5.706   3.771  0.00  0.00    +0.062 C 
BRANCH  20  23
ATOM     22  N   UNL     1      -0.242  -3.112   2.482  0.00  0.00    -0.276 N 
ATOM     23  C   UNL     1      -0.080  -4.375   2.039  0.00  0.00    +0.258 C 
ATOM     24  O   UNL     1      -0.053  -4.600   0.847  0.00  0.00    -0.271 OA
ATOM     25  H   UNL     1      -0.331  -2.940   3.433  0.00  0.00    +0.155 HD
BRANCH  22  30
ATOM     26  C   UNL     1      -0.605   1.673   0.867  0.00  0.00    +0.045 C 
ATOM     27  C   UNL     1      -0.443   0.183   0.715  0.00  0.00    -0.027 A 
ATOM     28  C   UNL     1      -0.293  -0.401  -0.489  0.00  0.00    -0.008 A 
ATOM     29  S   UNL     1      -0.148  -2.129  -0.091  0.00  0.00    -0.078 S 
ATOM     30  C   UNL     1      -0.281  -2.060   1.580  0.00  0.00    +0.084 A 
ATOM     31  C   UNL     1      -0.431  -0.708   1.852  0.00  0.00    +0.068 A 
ATOM     32  C   UNL     1      -0.258   0.252  -1.847  0.00  0.00    +0.052 C 
BRANCH  31  33
ATOM     33  C   UNL     1      -0.578  -0.210   3.223  0.00  0.00    +0.244 C 
ATOM     34  O   UNL     1      -1.685  -0.109   3.719  0.00  0.00    -0.270 OA
ATOM     35  N   UNL     1       0.513   0.137   3.934  0.00  0.00    -0.325 N 
ATOM     36  H   UNL     1       1.395   0.057   3.539  0.00  0.00    +0.145 HD
ATOM     37  H   UNL     1       0.416   0.467   4.841  0.00  0.00    +0.145 HD
ENDBRANCH  31  33
ENDBRANCH  22  30
ENDBRANCH  20  23
ENDBRANCH   1  20
TORSDOF 6
