REMARK  Name = ZINC63515598
REMARK  8 active torsions:
REMARK  status: ('A' for Active; 'I' for Inactive)
REMARK    1  A    between atoms: C_1  and  C_2
REMARK    2  A    between atoms: C_5  and  C_28
REMARK    3  A    between atoms: C_7  and  S_8
REMARK    4  A    between atoms: S_8  and  N_11
REMARK    5  A    between atoms: N_11  and  C_12
REMARK    6  A    between atoms: C_22  and  C_24
REMARK    7  A    between atoms: C_24  and  O_26
REMARK    8  A    between atoms: O_26  and  C_27
REMARK                            x       y       z     vdW  Elec       q    Type
REMARK                         _______ _______ _______ _____ _____    ______ ____
ROOT
ATOM      1  S   UNL     1       0.318   0.084   2.679  0.00  0.00    +0.059 S 
ATOM      2  O   UNL     1      -0.811   0.932   2.839  0.00  0.00    -0.153 OA
ATOM      3  O   UNL     1       0.655  -0.922   3.624  0.00  0.00    -0.153 OA
ENDROOT
BRANCH   1  10
ATOM      4  C   UNL     1      -0.265   1.513   0.082  0.00  0.00    +0.046 C 
ATOM      5  C   UNL     1      -0.143   0.014  -0.010  0.00  0.00    -0.024 A 
ATOM      6  C   UNL     1      -0.292  -0.616  -1.233  0.00  0.00    +0.006 A 
ATOM      7  C   UNL     1      -0.182  -1.988  -1.323  0.00  0.00    +0.010 A 
ATOM      8  C   UNL     1       0.081  -2.740  -0.180  0.00  0.00    +0.004 A 
ATOM      9  C   UNL     1       0.231  -2.101   1.049  0.00  0.00    +0.039 A 
ATOM     10  C   UNL     1       0.123  -0.727   1.127  0.00  0.00    +0.109 A 
BRANCH   8  11
ATOM     11  C   UNL     1       0.201  -4.216  -0.270  0.00  0.00    +0.091 A 
ATOM     12  C   UNL     1       0.047  -4.860  -1.520  0.00  0.00    +0.035 A 
ATOM     13  C   UNL     1       0.164  -6.218  -1.565  0.00  0.00    +0.073 A 
ATOM     14  C   UNL     1       0.432  -6.899  -0.357  0.00  0.00    +0.265 A 
ATOM     15  O   UNL     1       0.546  -8.114  -0.349  0.00  0.00    -0.266 OA
ATOM     16  N   UNL     1       0.562  -6.198   0.784  0.00  0.00    -0.243 N 
ATOM     17  N   UNL     1       0.454  -4.919   0.809  0.00  0.00    -0.171 NA
ATOM     18  H   UNL     1       0.746  -6.672   1.611  0.00  0.00    +0.192 HD
ENDBRANCH   8  11
ENDBRANCH   1  10
BRANCH   1  19
ATOM     19  N   UNL     1       1.639   1.075   2.551  0.00  0.00    -0.183 NA
ATOM     20  H   UNL     1       1.529   2.038   2.593  0.00  0.00    +0.148 HD
BRANCH  19  21
ATOM     21  C   UNL     1       2.974   0.497   2.375  0.00  0.00    +0.124 C 
ATOM     22  C   UNL     1       3.686   1.101   1.157  0.00  0.00    +0.081 C 
ATOM     23  C   UNL     1       3.343   0.337  -0.093  0.00  0.00    -0.016 C 
ATOM     24  C   UNL     1       4.340   0.132  -0.966  0.00  0.00    -0.003 C 
ATOM     25  C   UNL     1       5.689   0.627  -0.709  0.00  0.00    +0.001 C 
ATOM     26  C   UNL     1       6.088   1.097   0.492  0.00  0.00    +0.023 C 
ATOM     27  C   UNL     1       5.148   1.144   1.567  0.00  0.00    +0.045 C 
ATOM     28  N   UNL     1       5.247   1.091   2.852  0.00  0.00    -0.271 NA
ATOM     29  C   UNL     1       3.937   0.948   3.505  0.00  0.00    +0.233 C 
BRANCH  29  30
ATOM     30  C   UNL     1       4.002  -0.100   4.587  0.00  0.00    +0.333 C 
ATOM     31  O   UNL     1       4.955  -0.838   4.656  0.00  0.00    -0.248 OA
BRANCH  30  32
ATOM     32  O   UNL     1       3.000  -0.212   5.473  0.00  0.00    -0.466 OA
ATOM     33  C   UNL     1       3.177  -1.149   6.537  0.00  0.00    +0.280 C 
ENDBRANCH  30  32
ENDBRANCH  29  30
ENDBRANCH  19  21
ENDBRANCH   1  19
TORSDOF 6
