REMARK  Name = ZINC63869430
REMARK  5 active torsions:
REMARK  status: ('A' for Active; 'I' for Inactive)
REMARK    1  A    between atoms: C_1  and  C_2
REMARK    2  A    between atoms: C_4  and  C_17
REMARK    3  A    between atoms: N_12  and  C_13
REMARK    4  A    between atoms: C_13  and  C_14
REMARK    5  A    between atoms: C_23  and  C_27
REMARK                            x       y       z     vdW  Elec       q    Type
REMARK                         _______ _______ _______ _____ _____    ______ ____
ROOT
ATOM      1  C   UNL     1      -0.019   1.526   0.010  0.00  0.00    +0.029 C 
ATOM      2  C   UNL     1       0.002  -0.004   0.002  0.00  0.00    +0.082 C 
ATOM      3  C   UNL     1      -1.432  -0.557   0.047  0.00  0.00    +0.083 C 
ATOM      4  C   UNL     1      -1.488  -1.361   1.327  0.00  0.00    -0.018 A 
ATOM      5  C   UNL     1      -2.517  -2.086   1.897  0.00  0.00    +0.006 A 
ATOM      6  C   UNL     1      -2.321  -2.747   3.095  0.00  0.00    +0.000 A 
ATOM      7  C   UNL     1      -1.090  -2.680   3.723  0.00  0.00    +0.002 A 
ATOM      8  C   UNL     1      -0.061  -1.958   3.159  0.00  0.00    +0.023 A 
ATOM      9  C   UNL     1      -0.252  -1.288   1.948  0.00  0.00    +0.034 A 
ATOM     10  N   UNL     1       0.649  -0.510   1.215  0.00  0.00    -0.317 N 
ENDROOT
BRANCH   3  11
ATOM     11  C   UNL     1      -1.696  -1.456  -1.163  0.00  0.00    +0.183 C 
ATOM     12  N   UNL     1      -1.577  -0.679  -2.403  0.00  0.00    -0.363 N 
ATOM     13  C   UNL     1      -2.732  -0.727  -3.006  0.00  0.00    +0.060 A 
ATOM     14  C   UNL     1      -3.210  -0.147  -4.268  0.00  0.00    +0.028 A 
ATOM     15  C   UNL     1      -4.478  -0.356  -4.666  0.00  0.00    +0.017 A 
ATOM     16  C   UNL     1      -5.414  -1.152  -3.877  0.00  0.00    +0.065 A 
ATOM     17  C   UNL     1      -5.047  -1.724  -2.696  0.00  0.00    +0.042 A 
ATOM     18  C   UNL     1      -3.677  -1.540  -2.196  0.00  0.00    +0.061 A 
ATOM     19  N   UNL     1      -3.072  -1.964  -1.122  0.00  0.00    -0.363 N 
ATOM     20  H   UNL     1      -3.460  -2.515  -0.424  0.00  0.00    +0.162 HD
ATOM     21  H   UNL     1      -0.784  -0.215  -2.716  0.00  0.00    +0.162 HD
BRANCH  16  22
ATOM     22  C   UNL     1      -6.792  -1.343  -4.372  0.00  0.00    +0.387 C 
ATOM     23  O   UNL     1      -7.137  -0.836  -5.430  0.00  0.00    -0.241 OA
ATOM     24  O   UNL     1      -7.588  -2.007  -3.724  0.00  0.00    -0.241 OA
ENDBRANCH  16  22
ENDBRANCH   3  11
BRANCH  10  25
ATOM     25  C   UNL     1       2.036  -0.240   1.602  0.00  0.00    +0.200 C 
BRANCH  25  26
ATOM     26  C   UNL     1       2.089   1.009   2.443  0.00  0.00    +0.228 C 
ATOM     27  O   UNL     1       1.069   1.614   2.694  0.00  0.00    -0.274 OA
ATOM     28  N   UNL     1       3.271   1.454   2.915  0.00  0.00    -0.328 N 
ATOM     29  H   UNL     1       4.087   0.970   2.714  0.00  0.00    +0.145 HD
ATOM     30  H   UNL     1       3.304   2.258   3.456  0.00  0.00    +0.145 HD
ENDBRANCH  25  26
ENDBRANCH  10  25
TORSDOF 4
