REMARK  Name = ZINC13321371
REMARK  10 active torsions:
REMARK  status: ('A' for Active; 'I' for Inactive)
REMARK    1  A    between atoms: C_1  and  O_2
REMARK    2  A    between atoms: O_2  and  C_3
REMARK    3  A    between atoms: C_6  and  C_18
REMARK    4  A    between atoms: C_8  and  O_9
REMARK    5  A    between atoms: O_9  and  C_10
REMARK    6  A    between atoms: C_10  and  C_11
REMARK    7  A    between atoms: N_19  and  N_20
REMARK    8  A    between atoms: C_21  and  C_23
REMARK    9  A    between atoms: C_25  and  O_30
REMARK   10  A    between atoms: C_28  and  O_29
REMARK                            x       y       z     vdW  Elec       q    Type
REMARK                         _______ _______ _______ _____ _____    ______ ____
ROOT
ATOM      1  C   UNL     1      -0.160   1.550  -9.669  0.00  0.00    +0.162 A 
ATOM      2  C   UNL     1      -0.153   2.242  -8.466  0.00  0.00    +0.050 A 
ATOM      3  C   UNL     1      -0.131   1.553  -7.272  0.00  0.00    +0.013 A 
ATOM      4  C   UNL     1      -0.105   0.156  -7.271  0.00  0.00    -0.002 A 
ATOM      5  C   UNL     1      -0.113  -0.540  -8.483  0.00  0.00    +0.059 A 
ATOM      6  C   UNL     1      -0.141   0.157  -9.676  0.00  0.00    +0.163 A 
ENDROOT
BRANCH   1   8
ATOM      7  C   UNL     1      -0.207   3.660 -10.764  0.00  0.00    +0.277 C 
ATOM      8  O   UNL     1      -0.188   2.234 -10.844  0.00  0.00    -0.491 OA
ENDBRANCH   1   8
BRANCH   4   9
ATOM      9  C   UNL     1      -0.076  -0.582  -5.995  0.00  0.00    +0.138 C 
ATOM     10  N   UNL     1      -0.069   0.067  -4.871  0.00  0.00    -0.187 NA
BRANCH  10  11
ATOM     11  N   UNL     1      -0.042  -0.635  -3.658  0.00  0.00    -0.203 N 
ATOM     12  C   UNL     1      -0.035   0.038  -2.490  0.00  0.00    +0.267 C 
ATOM     13  O   UNL     1      -0.051   1.254  -2.489  0.00  0.00    -0.268 OA
ATOM     14  H   UNL     1      -0.028  -1.605  -3.659  0.00  0.00    +0.178 HD
BRANCH  12  15
ATOM     15  C   UNL     1      -0.006  -0.700  -1.214  0.00  0.00    +0.083 A 
ATOM     16  C   UNL     1       0.019  -2.097  -1.211  0.00  0.00    +0.062 A 
ATOM     17  C   UNL     1       0.039  -2.783  -0.011  0.00  0.00    +0.118 A 
ATOM     18  C   UNL     1       0.041  -2.086   1.192  0.00  0.00    +0.049 A 
ATOM     19  C   UNL     1       0.023  -0.706   1.198  0.00  0.00    +0.050 A 
ATOM     20  C   UNL     1       0.002  -0.004   0.002  0.00  0.00    +0.129 A 
BRANCH  20  21
ATOM     21  O   UNL     1      -0.016   1.353   0.009  0.00  0.00    -0.506 OA
ATOM     22  H   UNL     1       0.862   1.758   0.003  0.00  0.00    +0.292 HD
ENDBRANCH  20  21
BRANCH  17  23
ATOM     23  O   UNL     1       0.056  -4.142  -0.007  0.00  0.00    -0.507 OA
ATOM     24  H   UNL     1      -0.822  -4.547   0.003  0.00  0.00    +0.292 HD
ENDBRANCH  17  23
ENDBRANCH  12  15
ENDBRANCH  10  11
ENDBRANCH   4   9
BRANCH   6  25
ATOM     25  O   UNL     1      -0.148  -0.517 -10.857  0.00  0.00    -0.484 OA
BRANCH  25  26
ATOM     26  C   UNL     1      -0.126  -1.944 -10.790  0.00  0.00    +0.264 C 
BRANCH  26  27
ATOM     27  C   UNL     1      -0.138  -2.513 -12.185  0.00  0.00    -0.010 A 
ATOM     28  C   UNL     1      -1.340  -2.797 -12.805  0.00  0.00    +0.008 A 
ATOM     29  C   UNL     1      -1.351  -3.315 -14.087  0.00  0.00    +0.015 A 
ATOM     30  C   UNL     1      -0.159  -3.558 -14.745  0.00  0.00    +0.018 A 
ATOM     31  C   UNL     1       1.044  -3.279 -14.122  0.00  0.00    +0.015 A 
ATOM     32  C   UNL     1       1.054  -2.757 -12.842  0.00  0.00    +0.008 A 
ATOM     33 BR   UNL     1      -0.174  -4.273 -16.496  0.00  0.00    -0.050 Br
ENDBRANCH  26  27
ENDBRANCH  25  26
ENDBRANCH   6  25
TORSDOF 9
