REMARK  Name = ZINC00820785
REMARK  6 active torsions:
REMARK  status: ('A' for Active; 'I' for Inactive)
REMARK    1  A    between atoms: C_1  and  C_2
REMARK    2  A    between atoms: C_2  and  C_30
REMARK    3  A    between atoms: C_6  and  N_22
REMARK    4  A    between atoms: C_9  and  N_21
REMARK    5  A    between atoms: C_10  and  C_12
REMARK    6  A    between atoms: C_12  and  C_14
REMARK                            x       y       z     vdW  Elec       q    Type
REMARK                         _______ _______ _______ _____ _____    ______ ____
ROOT
ATOM      1  C   UNL     1      -1.294   0.009   1.842  0.00  0.00    +0.041 C 
ATOM      2  C   UNL     1       0.024   0.369   1.153  0.00  0.00    +0.068 C 
ATOM      3  C   UNL     1       0.062   1.872   0.868  0.00  0.00    +0.070 C 
ATOM      4  C   UNL     1       1.454   2.276   0.460  0.00  0.00    -0.025 A 
ATOM      5  C   UNL     1       2.530   1.482   0.690  0.00  0.00    +0.020 A 
ATOM      6  C   UNL     1       3.808   1.905   0.299  0.00  0.00    +0.105 A 
ATOM      7  C   UNL     1       2.957   3.869  -0.541  0.00  0.00    +0.089 A 
ATOM      8  C   UNL     1       1.633   3.530  -0.184  0.00  0.00    +0.031 A 
ATOM      9  C   UNL     1       0.627   4.521  -0.526  0.00  0.00    +0.052 A 
ATOM     10  C   UNL     1       1.040   5.682  -1.155  0.00  0.00    +0.083 A 
ATOM     11  S   UNL     1       2.802   5.466  -1.302  0.00  0.00    -0.065 S 
ATOM     12  C   UNL     1       2.390   0.140   1.363  0.00  0.00    +0.199 C 
ATOM     13  O   UNL     1       1.123   0.043   2.012  0.00  0.00    -0.369 OA
ATOM     14  C   UNL     1       0.148  -0.408  -0.160  0.00  0.00    +0.041 C 
ATOM     15  N   UNL     1       4.047   3.096  -0.318  0.00  0.00    -0.337 N 
ATOM     16  H   UNL     1       4.991   3.389  -0.596  0.00  0.00    +0.168 HD
ENDROOT
BRANCH   6  17
ATOM     17  N   UNL     1       4.905   1.091   0.540  0.00  0.00    -0.312 N 
ATOM     18  C   UNL     1       5.826   1.719   1.498  0.00  0.00    +0.134 C 
ATOM     19  C   UNL     1       6.989   0.764   1.780  0.00  0.00    +0.178 C 
ATOM     20  O   UNL     1       7.635   0.431   0.548  0.00  0.00    -0.377 OA
ATOM     21  C   UNL     1       6.767  -0.183  -0.409  0.00  0.00    +0.178 C 
ATOM     22  C   UNL     1       5.601   0.762  -0.713  0.00  0.00    +0.134 C 
ENDBRANCH   6  17
BRANCH   9  23
ATOM     23  N   UNL     1      -0.710   4.309  -0.232  0.00  0.00    -0.356 N 
ATOM     24  H   UNL     1      -1.398   4.743  -0.760  0.00  0.00    +0.142 HD
ATOM     25  H   UNL     1      -0.958   3.726   0.503  0.00  0.00    +0.142 HD
ENDBRANCH   9  23
BRANCH  10  26
ATOM     26  C   UNL     1       0.253   6.776  -1.579  0.00  0.00    +0.202 C 
ATOM     27  O   UNL     1      -0.963   6.715  -1.510  0.00  0.00    -0.286 OA
BRANCH  26  28
ATOM     28  C   UNL     1       0.904   7.994  -2.108  0.00  0.00    +0.023 A 
ATOM     29  C   UNL     1       2.219   8.298  -1.750  0.00  0.00    +0.013 A 
ATOM     30  C   UNL     1       2.822   9.432  -2.250  0.00  0.00    +0.016 A 
ATOM     31  C   UNL     1       2.123  10.276  -3.096  0.00  0.00    +0.018 A 
ATOM     32  C   UNL     1       0.816   9.984  -3.450  0.00  0.00    +0.016 A 
ATOM     33  C   UNL     1       0.204   8.849  -2.961  0.00  0.00    +0.013 A 
ATOM     34 BR   UNL     1       2.955  11.834  -3.772  0.00  0.00    -0.050 Br
ENDBRANCH  26  28
ENDBRANCH  10  26
TORSDOF 4
