REMARK  Name = ZINC08310469
REMARK  4 active torsions:
REMARK  status: ('A' for Active; 'I' for Inactive)
REMARK    1  A    between atoms: C_6  and  C_7
REMARK    2  A    between atoms: C_12  and  C_13
REMARK    3  A    between atoms: C_12  and  N_57
REMARK    4  A    between atoms: N_18  and  C_19
REMARK                            x       y       z     vdW  Elec       q    Type
REMARK                         _______ _______ _______ _____ _____    ______ ____
ROOT
ATOM      1  C   UNL     1       0.307   3.111  -8.000  0.00  0.00    -0.037 C 
ATOM      2  C   UNL     1      -0.728   3.361  -9.126  0.00  0.00    -0.013 C 
ATOM      3  C   UNL     1      -1.508   4.592  -8.611  0.00  0.00    -0.020 C 
ATOM      4  C   UNL     1      -0.566   5.272  -7.600  0.00  0.00    -0.077 C 
ATOM      5  N   UNL     1       0.666   4.474  -7.593  0.00  0.00    +0.390 N 
ATOM      6  H   UNL     1       1.339   4.869  -8.261  0.00  0.00    -0.080 HD
ENDROOT
BRANCH   1  12
ATOM      7  C   UNL     1       2.425   3.029  -9.328  0.00  0.00    +0.006 A 
ATOM      8  C   UNL     1       3.529   2.356  -9.822  0.00  0.00    +0.049 A 
ATOM      9  C   UNL     1       3.708   1.018  -9.518  0.00  0.00    +0.162 A 
ATOM     10  C   UNL     1       2.785   0.356  -8.720  0.00  0.00    +0.162 A 
ATOM     11  C   UNL     1       1.686   1.034  -8.223  0.00  0.00    +0.051 A 
ATOM     12  C   UNL     1       1.506   2.370  -8.534  0.00  0.00    -0.057 A 
ATOM     13  O   UNL     1       2.971  -0.964  -8.427  0.00  0.00    -0.488 OA
ATOM     14  C   UNL     1       4.079  -1.264  -7.575  0.00  0.00    +0.232 C 
ATOM     15  C   UNL     1       5.363  -1.378  -8.382  0.00  0.00    +0.082 C 
ATOM     16  C   UNL     1       5.760  -0.060  -9.027  0.00  0.00    +0.232 C 
ATOM     17  O   UNL     1       4.791   0.341  -9.999  0.00  0.00    -0.488 OA
ENDBRANCH   1  12
BRANCH   5  18
ATOM     18  C   UNL     1       1.274   4.474  -6.229  0.00  0.00    +0.020 C 
BRANCH  18  19
ATOM     19  C   UNL     1       1.714   5.868  -5.863  0.00  0.00    +0.204 C 
ATOM     20  O   UNL     1       1.657   6.757  -6.686  0.00  0.00    -0.277 OA
ATOM     21  N   UNL     1       2.171   6.127  -4.622  0.00  0.00    -0.242 N 
ATOM     22  C   UNL     1       2.564   7.374  -4.295  0.00  0.00    +0.306 C 
ATOM     23  O   UNL     1       2.507   8.265  -5.120  0.00  0.00    -0.252 OA
ATOM     24  N   UNL     1       3.021   7.633  -3.054  0.00  0.00    -0.296 N 
ATOM     25  H   UNL     1       2.216   5.416  -3.964  0.00  0.00    +0.159 HD
ATOM     26  H   UNL     1       3.067   6.922  -2.396  0.00  0.00    +0.151 HD
BRANCH  24  27
ATOM     27  C   UNL     1       3.448   8.988  -2.699  0.00  0.00    +0.074 C 
ATOM     28  C   UNL     1       3.326   9.198  -1.179  0.00  0.00    +0.022 C 
ATOM     29  C   UNL     1       4.745   9.512  -0.661  0.00  0.00    +0.002 C 
ATOM     30  C   UNL     1       5.683   8.891  -1.726  0.00  0.00    +0.002 C 
ATOM     31  C   UNL     1       4.938   9.182  -3.052  0.00  0.00    +0.022 C 
ENDBRANCH  24  27
ENDBRANCH  18  19
ENDBRANCH   5  18
TORSDOF 4
