REMARK  Name = ZINC14470924
REMARK  7 active torsions:
REMARK  status: ('A' for Active; 'I' for Inactive)
REMARK    1  A    between atoms: C_1  and  C_2
REMARK    2  A    between atoms: C_6  and  C_38
REMARK    3  A    between atoms: C_7  and  N_8
REMARK    4  A    between atoms: N_8  and  S_9
REMARK    5  A    between atoms: S_9  and  C_12
REMARK    6  A    between atoms: C_25  and  C_28
REMARK    7  A    between atoms: C_32  and  N_34
REMARK                            x       y       z     vdW  Elec       q    Type
REMARK                         _______ _______ _______ _____ _____    ______ ____
ROOT
ATOM      1  C   UNL     1       3.513   0.096  -2.744  0.00  0.00    +0.109 A 
ATOM      2  C   UNL     1       2.877  -0.387  -3.873  0.00  0.00    +0.030 A 
ATOM      3  C   UNL     1       1.500  -0.380  -3.950  0.00  0.00    +0.025 A 
ATOM      4  C   UNL     1       0.741   0.112  -2.895  0.00  0.00    +0.031 A 
ATOM      5  C   UNL     1       1.391   0.613  -1.761  0.00  0.00    -0.018 A 
ATOM      6  C   UNL     1       2.768   0.595  -1.692  0.00  0.00    +0.034 A 
ATOM      7  C   UNL     1       0.548   1.149  -0.672  0.00  0.00    +0.049 C 
ATOM      8  C   UNL     1       1.011   1.181   0.739  0.00  0.00    -0.023 C 
ATOM      9  C   UNL     1      -0.044   1.049   1.534  0.00  0.00    -0.030 C 
ATOM     10  C   UNL     1      -1.313   0.882   0.697  0.00  0.00    +0.033 C 
ATOM     11  C   UNL     1      -0.750   0.290  -0.603  0.00  0.00    +0.029 C 
ATOM     12  C   UNL     1      -1.494   0.576  -1.895  0.00  0.00    +0.105 C 
ATOM     13  N   UNL     1      -0.656   0.075  -2.980  0.00  0.00    -0.336 N 
ATOM     14  H   UNL     1      -1.075  -0.298  -3.771  0.00  0.00    +0.147 HD
ENDROOT
BRANCH  12  15
ATOM     15  C   UNL     1      -2.827  -0.128  -1.895  0.00  0.00    -0.025 A 
ATOM     16  C   UNL     1      -2.897  -1.474  -2.203  0.00  0.00    +0.007 A 
ATOM     17  C   UNL     1      -4.119  -2.119  -2.204  0.00  0.00    +0.022 A 
ATOM     18  C   UNL     1      -5.272  -1.418  -1.896  0.00  0.00    +0.071 A 
ATOM     19  C   UNL     1      -5.200  -0.072  -1.588  0.00  0.00    +0.145 A 
ATOM     20  C   UNL     1      -3.977   0.572  -1.582  0.00  0.00    +0.039 A 
ATOM     21 CL   UNL     1      -6.807  -2.229  -1.895  0.00  0.00    -0.081 Cl
BRANCH  19  22
ATOM     22  N   UNL     1      -6.433   0.679  -1.258  0.00  0.00    +0.058 N 
ATOM     23  O   UNL     1      -6.370   1.865  -0.986  0.00  0.00    -0.126 OA
ATOM     24  O   UNL     1      -7.510   0.111  -1.257  0.00  0.00    -0.126 OA
ENDBRANCH  19  22
ENDBRANCH  12  15
BRANCH   1  25
ATOM     25  S   UNL     1       5.272   0.078  -2.647  0.00  0.00    +0.072 S 
ATOM     26  O   UNL     1       5.751  -0.058  -3.978  0.00  0.00    -0.150 OA
ATOM     27  O   UNL     1       5.644   1.165  -1.810  0.00  0.00    -0.150 OA
BRANCH  25  28
ATOM     28  N   UNL     1       5.704  -1.306  -1.845  0.00  0.00    -0.216 N 
ATOM     29  H   UNL     1       6.126  -1.250  -0.974  0.00  0.00    +0.174 HD
BRANCH  28  36
ATOM     30  C   UNL     1       3.529  -2.844  -0.845  0.00  0.00    +0.046 C 
ATOM     31  C   UNL     1       4.407  -3.338  -1.966  0.00  0.00    -0.028 A 
ATOM     32  C   UNL     1       4.165  -4.569  -2.543  0.00  0.00    +0.005 A 
ATOM     33  C   UNL     1       4.974  -5.025  -3.568  0.00  0.00    +0.001 A 
ATOM     34  C   UNL     1       6.024  -4.249  -4.022  0.00  0.00    +0.005 A 
ATOM     35  C   UNL     1       6.269  -3.015  -3.452  0.00  0.00    -0.028 A 
ATOM     36  C   UNL     1       5.459  -2.553  -2.423  0.00  0.00    +0.054 A 
ATOM     37  C   UNL     1       7.414  -2.169  -3.948  0.00  0.00    +0.046 C 
ENDBRANCH  28  36
ENDBRANCH  25  28
ENDBRANCH   1  25
TORSDOF 5
