REMARK  Name = ZINC12467361
REMARK  6 active torsions:
REMARK  status: ('A' for Active; 'I' for Inactive)
REMARK    1  A    between atoms: C_4  and  N_7
REMARK    2  A    between atoms: N_7  and  N_8
REMARK    3  A    between atoms: C_10  and  C_20
REMARK    4  A    between atoms: C_15  and  O_19
REMARK    5  A    between atoms: N_22  and  C_23
REMARK    6  A    between atoms: C_27  and  N_29
REMARK                            x       y       z     vdW  Elec       q    Type
REMARK                         _______ _______ _______ _____ _____    ______ ____
ROOT
ATOM      1  N   UNL     1      -0.075   5.599   0.336  0.00  0.00    -0.276 N 
ATOM      2  C   UNL     1       1.077   6.317   0.337  0.00  0.00    +0.224 A 
ATOM      3  C   UNL     1       2.296   5.645   0.223  0.00  0.00    +0.099 A 
ATOM      4  C   UNL     1       3.503   6.369   0.215  0.00  0.00    +0.030 A 
ATOM      5  C   UNL     1       3.437   7.763   0.330  0.00  0.00    +0.018 A 
ATOM      6  C   UNL     1       4.598   8.561   0.332  0.00  0.00    +0.015 A 
ATOM      7  C   UNL     1       4.484   9.910   0.446  0.00  0.00    +0.046 A 
ATOM      8  C   UNL     1       3.232  10.525   0.563  0.00  0.00    +0.120 A 
ATOM      9  C   UNL     1       2.062   9.784   0.567  0.00  0.00    +0.092 A 
ATOM     10  C   UNL     1       2.125   8.403   0.453  0.00  0.00    +0.141 A 
ATOM     11  O   UNL     1       1.012   7.650   0.453  0.00  0.00    -0.437 OA
ATOM     12  H   UNL     1      -0.040   4.503   0.247  0.00  0.00    +0.187 HD
ENDROOT
BRANCH   3  13
ATOM     13  C   UNL     1       2.318   4.170   0.104  0.00  0.00    +0.253 C 
ATOM     14  O   UNL     1       3.247   3.537   0.567  0.00  0.00    -0.270 OA
ATOM     15  N   UNL     1       1.309   3.529  -0.519  0.00  0.00    -0.281 N 
ATOM     16  H   UNL     1       0.507   4.105  -1.002  0.00  0.00    +0.155 HD
BRANCH  15  17
ATOM     17  C   UNL     1       1.283   2.132  -0.550  0.00  0.00    +0.036 A 
ATOM     18  C   UNL     1       2.471   1.414  -0.627  0.00  0.00    +0.023 A 
ATOM     19  C   UNL     1       2.441   0.034  -0.658  0.00  0.00    +0.004 A 
ATOM     20  C   UNL     1       1.231  -0.634  -0.613  0.00  0.00    +0.033 A 
ATOM     21  C   UNL     1       0.047   0.076  -0.537  0.00  0.00    +0.128 A 
ATOM     22  C   UNL     1       0.070   1.457  -0.505  0.00  0.00    +0.056 A 
BRANCH  21  23
ATOM     23  N   UNL     1      -1.245  -0.643  -0.490  0.00  0.00    +0.056 N 
ATOM     24  O   UNL     1      -2.373   0.033  -0.418  0.00  0.00    -0.126 OA
ATOM     25  O   UNL     1      -1.267  -1.960  -0.520  0.00  0.00    -0.126 OA
ENDBRANCH  21  23
ENDBRANCH  15  17
ENDBRANCH   3  13
BRANCH   1  26
ATOM     26  N   UNL     1      -1.211   6.201   0.441  0.00  0.00    -0.258 N 
ATOM     27  H   UNL     1      -1.246   7.297   0.530  0.00  0.00    +0.172 HD
BRANCH  26  31
ATOM     28  C   UNL     1      -4.731   4.005   0.437  0.00  0.00    +0.000 A 
ATOM     29  C   UNL     1      -4.779   5.385   0.551  0.00  0.00    +0.002 A 
ATOM     30  C   UNL     1      -3.613   6.120   0.553  0.00  0.00    +0.024 A 
ATOM     31  C   UNL     1      -2.381   5.471   0.440  0.00  0.00    +0.046 A 
ATOM     32  C   UNL     1      -2.340   4.080   0.321  0.00  0.00    +0.024 A 
ATOM     33  C   UNL     1      -3.513   3.356   0.325  0.00  0.00    +0.002 A 
ENDBRANCH  26  31
ENDBRANCH   1  26
BRANCH   8  34
ATOM     34  O   UNL     1       3.163  11.874   0.676  0.00  0.00    -0.507 OA
ATOM     35  H   UNL     1       2.185  12.369   0.768  0.00  0.00    +0.292 HD
ENDBRANCH   8  34
TORSDOF 6
