REMARK  Name = ZINC19811900
REMARK  4 active torsions:
REMARK  status: ('A' for Active; 'I' for Inactive)
REMARK    1  A    between atoms: C_1  and  N_2
REMARK    2  A    between atoms: N_8  and  C_9
REMARK    3  A    between atoms: C_9  and  C_11
REMARK    4  A    between atoms: C_15  and  N_17
REMARK                            x       y       z     vdW  Elec       q    Type
REMARK                         _______ _______ _______ _____ _____    ______ ____
ROOT
ATOM      1  C   UNL     1      -2.529   3.865   0.001  0.00  0.00    +0.270 C 
ATOM      2  O   UNL     1      -2.546   5.080   0.010  0.00  0.00    -0.268 OA
ENDROOT
BRANCH   1  10
ATOM      3  C   UNL     1      -6.348   1.782   0.073  0.00  0.00    +0.152 C 
ATOM      4  N   UNL     1      -6.093   3.224   0.077  0.00  0.00    -0.318 N 
ATOM      5  C   UNL     1      -7.098   4.304   0.093  0.00  0.00    +0.158 A 
ATOM      6  C   UNL     1      -6.253   5.563   0.091  0.00  0.00    +0.267 A 
ATOM      7  O   UNL     1      -6.650   6.711   0.101  0.00  0.00    -0.266 OA
ATOM      8  N   UNL     1      -4.986   5.152   0.075  0.00  0.00    -0.294 N 
ATOM      9  C   UNL     1      -4.882   3.842   0.058  0.00  0.00    +0.203 A 
ATOM     10  N   UNL     1      -3.687   3.175   0.024  0.00  0.00    -0.142 NA
ATOM     11  H   UNL     1      -4.081   5.777   0.076  0.00  0.00    +0.172 HD
ENDBRANCH   1  10
BRANCH   1  12
ATOM     12  C   UNL     1      -1.240   3.144  -0.036  0.00  0.00    +0.041 A 
ATOM     13  C   UNL     1      -1.219   1.748  -0.051  0.00  0.00    +0.014 A 
ATOM     14  C   UNL     1      -0.014   1.077  -0.080  0.00  0.00    +0.022 A 
ATOM     15  C   UNL     1       1.176   1.783  -0.103  0.00  0.00    +0.062 A 
ATOM     16  C   UNL     1       1.165   3.174  -0.094  0.00  0.00    +0.044 A 
ATOM     17  C   UNL     1      -0.041   3.857  -0.060  0.00  0.00    +0.037 A 
ATOM     18 CL   UNL     1       2.688   0.930  -0.146  0.00  0.00    -0.082 Cl
BRANCH  16  19
ATOM     19  N   UNL     1       2.369   3.883  -0.118  0.00  0.00    -0.357 N 
ATOM     20  H   UNL     1       2.360   4.983  -0.110  0.00  0.00    +0.142 HD
ATOM     21  H   UNL     1       3.326   3.341  -0.144  0.00  0.00    +0.142 HD
ENDBRANCH  16  19
ENDBRANCH   1  12
TORSDOF 3
