REMARK  Name = ZINC25152268
REMARK  6 active torsions:
REMARK  status: ('A' for Active; 'I' for Inactive)
REMARK    1  A    between atoms: C_1  and  C_2
REMARK    2  A    between atoms: C_2  and  C_4
REMARK    3  A    between atoms: C_2  and  N_15
REMARK    4  A    between atoms: N_9  and  C_10
REMARK    5  A    between atoms: C_18  and  C_21
REMARK    6  A    between atoms: C_21  and  C_23
REMARK                            x       y       z     vdW  Elec       q    Type
REMARK                         _______ _______ _______ _____ _____    ______ ____
ROOT
ATOM      1  N   UNL     1       0.009  -0.918  -1.148  0.00  0.00    +0.387 N 
ATOM      2  C   UNL     1      -0.619  -2.189  -0.764  0.00  0.00    -0.077 C 
ATOM      3  C   UNL     1      -0.542  -3.173  -1.933  0.00  0.00    -0.007 C 
ATOM      4  C   UNL     1      -1.278  -2.583  -3.140  0.00  0.00    +0.057 C 
ATOM      5  C   UNL     1      -0.663  -1.223  -3.485  0.00  0.00    -0.007 C 
ATOM      6  C   UNL     1      -0.735  -0.311  -2.258  0.00  0.00    -0.077 C 
ATOM      7  H   UNL     1       0.961  -1.089  -1.435  0.00  0.00    -0.081 HD
ENDROOT
BRANCH   1   9
ATOM      8  C   UNL     1       0.630   1.331  -0.404  0.00  0.00    -0.004 C 
ATOM      9  C   UNL     1       0.002  -0.004   0.002  0.00  0.00    +0.017 C 
BRANCH   9  10
ATOM     10  C   UNL     1       0.796  -0.610   1.130  0.00  0.00    +0.207 C 
ATOM     11  O   UNL     1       1.696  -1.387   0.889  0.00  0.00    -0.277 OA
ATOM     12  N   UNL     1       0.507  -0.289   2.407  0.00  0.00    -0.242 N 
ATOM     13  C   UNL     1       1.218  -0.831   3.416  0.00  0.00    +0.306 C 
ATOM     14  O   UNL     1       2.119  -1.609   3.174  0.00  0.00    -0.252 OA
ATOM     15  N   UNL     1       0.928  -0.510   4.692  0.00  0.00    -0.296 N 
ATOM     16  H   UNL     1      -0.212   0.332   2.599  0.00  0.00    +0.159 HD
ATOM     17  H   UNL     1       0.209   0.112   4.885  0.00  0.00    +0.151 HD
BRANCH  15  18
ATOM     18  C   UNL     1       1.700  -1.099   5.789  0.00  0.00    +0.074 C 
ATOM     19  C   UNL     1       1.074  -2.443   6.214  0.00  0.00    +0.022 C 
ATOM     20  C   UNL     1       1.247  -2.473   7.753  0.00  0.00    +0.002 C 
ATOM     21  C   UNL     1       0.994  -0.998   8.154  0.00  0.00    +0.002 C 
ATOM     22  C   UNL     1       1.649  -0.180   7.022  0.00  0.00    +0.022 C 
ENDBRANCH  15  18
ENDBRANCH   9  10
ENDBRANCH   1   9
BRANCH   4  23
ATOM     23  C   UNL     1      -1.140  -3.512  -4.318  0.00  0.00    +0.166 C 
ATOM     24  O   UNL     1      -0.197  -4.272  -4.384  0.00  0.00    -0.292 OA
BRANCH  23  25
ATOM     25  C   UNL     1      -2.146  -3.496  -5.387  0.00  0.00    +0.021 A 
ATOM     26  C   UNL     1      -3.232  -2.615  -5.317  0.00  0.00    +0.015 A 
ATOM     27  C   UNL     1      -4.174  -2.605  -6.320  0.00  0.00    +0.050 A 
ATOM     28  C   UNL     1      -4.053  -3.466  -7.406  0.00  0.00    +0.162 A 
ATOM     29  C   UNL     1      -2.973  -4.343  -7.484  0.00  0.00    +0.163 A 
ATOM     30  C   UNL     1      -2.021  -4.358  -6.483  0.00  0.00    +0.060 A 
ATOM     31  O   UNL     1      -2.837  -5.186  -8.545  0.00  0.00    -0.485 OA
ATOM     32  C   UNL     1      -4.002  -5.403  -9.348  0.00  0.00    +0.270 C 
ATOM     33  C   UNL     1      -4.649  -4.041  -9.634  0.00  0.00    +0.270 C 
ATOM     34  O   UNL     1      -4.998  -3.439  -8.383  0.00  0.00    -0.485 OA
ENDBRANCH  23  25
ENDBRANCH   4  23
TORSDOF 5
