REMARK  Name = ZINC34786603
REMARK  7 active torsions:
REMARK  status: ('A' for Active; 'I' for Inactive)
REMARK    1  A    between atoms: C_1  and  C_2
REMARK    2  A    between atoms: C_7  and  N_8
REMARK    3  A    between atoms: N_8  and  N_9
REMARK    4  A    between atoms: N_9  and  N_30
REMARK    5  A    between atoms: C_20  and  C_25
REMARK    6  A    between atoms: C_22  and  C_24
REMARK    7  A    between atoms: N_30  and  C_31
REMARK                            x       y       z     vdW  Elec       q    Type
REMARK                         _______ _______ _______ _____ _____    ______ ____
ROOT
ATOM      1  N   UNL     1       0.537  -0.492   3.903  0.00  0.00    -0.166 N 
ATOM      2  C   UNL     1       1.705  -0.391   4.636  0.00  0.00    +0.167 A 
ATOM      3  C   UNL     1       2.352   0.868   4.789  0.00  0.00    +0.054 A 
ATOM      4  C   UNL     1       1.955   2.172   4.255  0.00  0.00    -0.025 A 
ATOM      5  C   UNL     1       2.750   3.220   4.548  0.00  0.00    -0.004 A 
ATOM      6  S   UNL     1       4.057   2.547   5.539  0.00  0.00    -0.073 S 
ATOM      7  C   UNL     1       3.533   0.853   5.557  0.00  0.00    +0.116 A 
ATOM      8  N   UNL     1       3.996  -0.260   6.091  0.00  0.00    -0.203 NA
ATOM      9  C   UNL     1       3.352  -1.403   5.915  0.00  0.00    +0.254 A 
ATOM     10  N   UNL     1       2.231  -1.460   5.209  0.00  0.00    -0.192 NA
ATOM     11  N   UNL     1       3.859  -2.570   6.488  0.00  0.00    -0.202 N 
ATOM     12  C   UNL     1       4.985  -2.667   7.243  0.00  0.00    +0.045 A 
ATOM     13  C   UNL     1       5.125  -3.963   7.604  0.00  0.00    +0.048 A 
ATOM     14  C   UNL     1       4.056  -4.682   7.056  0.00  0.00    +0.061 A 
ATOM     15  N   UNL     1       3.295  -3.849   6.394  0.00  0.00    -0.169 NA
ATOM     16  C   UNL     1       3.819  -6.162   7.208  0.00  0.00    +0.067 C 
ATOM     17  C   UNL     1       5.910  -1.536   7.611  0.00  0.00    +0.066 C 
ATOM     18  C   UNL     1       2.566   4.646   4.124  0.00  0.00    +0.043 C 
ATOM     19  C   UNL     1       1.532   4.684   2.989  0.00  0.00    +0.005 C 
ATOM     20  C   UNL     1       0.323   3.838   3.398  0.00  0.00    +0.005 C 
ATOM     21  C   UNL     1       0.703   2.357   3.403  0.00  0.00    +0.037 C 
ENDROOT
BRANCH   1  22
ATOM     22  N   UNL     1       0.526  -0.132   2.549  0.00  0.00    -0.249 N 
ATOM     23  H   UNL     1       0.077   0.680   2.267  0.00  0.00    +0.172 HD
BRANCH  22  30
ATOM     24  C   UNL     1       0.528   0.718  -0.166  0.00  0.00    +0.046 C 
ATOM     25  C   UNL     1       1.187  -0.565   0.269  0.00  0.00    -0.028 A 
ATOM     26  C   UNL     1       1.822  -1.366  -0.661  0.00  0.00    +0.005 A 
ATOM     27  C   UNL     1       2.427  -2.544  -0.263  0.00  0.00    +0.000 A 
ATOM     28  C   UNL     1       2.399  -2.924   1.067  0.00  0.00    +0.002 A 
ATOM     29  C   UNL     1       1.766  -2.129   2.001  0.00  0.00    +0.025 A 
ATOM     30  C   UNL     1       1.162  -0.942   1.605  0.00  0.00    +0.049 A 
ENDBRANCH  22  30
ENDBRANCH   1  22
BRANCH   1  31
ATOM     31  N   UNL     1      -0.607  -0.945   4.498  0.00  0.00    -0.218 NA
ATOM     32  H   UNL     1      -0.658  -0.641   5.459  0.00  0.00    +0.146 HD
BRANCH  31  33
ATOM     33  C   UNL     1      -0.708  -2.407   4.402  0.00  0.00    +0.075 C 
ATOM     34  C   UNL     1      -1.554  -2.780   3.183  0.00  0.00    +0.020 C 
ATOM     35  C   UNL     1      -1.659  -4.303   3.082  0.00  0.00    +0.002 C 
ATOM     36  C   UNL     1      -2.318  -4.854   4.348  0.00  0.00    +0.000 C 
ATOM     37  C   UNL     1      -1.472  -4.480   5.567  0.00  0.00    +0.002 C 
ATOM     38  C   UNL     1      -1.367  -2.957   5.668  0.00  0.00    +0.020 C 
ENDBRANCH  31  33
ENDBRANCH   1  31
TORSDOF 4
