REMARK  Name = ZINC39225665
REMARK  14 active torsions:
REMARK  status: ('A' for Active; 'I' for Inactive)
REMARK    1  A    between atoms: C_1  and  C_2
REMARK    2  A    between atoms: C_2  and  C_3
REMARK    3  A    between atoms: C_3  and  C_5
REMARK    4  A    between atoms: C_3  and  C_11
REMARK    5  A    between atoms: N_20  and  C_23
REMARK    6  A    between atoms: C_23  and  C_25
REMARK    7  A    between atoms: C_23  and  C_29
REMARK    8  A    between atoms: C_25  and  C_26
REMARK    9  A    between atoms: C_26  and  C_27
REMARK   10  A    between atoms: C_26  and  C_28
REMARK   11  A    between atoms: N_31  and  C_32
REMARK   12  A    between atoms: C_32  and  C_33
REMARK   13  A    between atoms: N_38  and  C_39
REMARK   14  A    between atoms: C_39  and  C_40
REMARK                            x       y       z     vdW  Elec       q    Type
REMARK                         _______ _______ _______ _____ _____    ______ ____
ROOT
ATOM      1  C   UNL     1      -3.083   4.375  -3.999  0.00  0.00    +0.224 C 
ATOM      2  O   UNL     1      -4.288   4.236  -3.999  0.00  0.00    -0.275 OA
ATOM      3  N   UNL     1      -2.285   3.342  -3.662  0.00  0.00    -0.287 N 
ATOM      4  C   UNL     1      -0.810   3.338  -3.713  0.00  0.00    +0.109 C 
ATOM      5  C   UNL     1      -0.380   2.250  -2.696  0.00  0.00    +0.022 C 
ATOM      6  C   UNL     1      -1.491   1.181  -2.891  0.00  0.00    +0.037 C 
ATOM      7  C   UNL     1      -2.734   2.038  -3.177  0.00  0.00    +0.115 C 
ATOM      8  C   UNL     1      -3.586   2.189  -1.904  0.00  0.00    +0.054 C 
ATOM      9  C   UNL     1      -4.623   1.057  -2.088  0.00  0.00    +0.111 C 
ATOM     10  N   UNL     1      -4.697   0.823  -3.536  0.00  0.00    -0.288 N 
ATOM     11  C   UNL     1      -3.636   1.357  -4.171  0.00  0.00    +0.240 C 
ATOM     12  O   UNL     1      -3.437   1.299  -5.366  0.00  0.00    -0.273 OA
ENDROOT
BRANCH   1  13
ATOM     13  C   UNL     1      -2.478   5.702  -4.377  0.00  0.00    +0.105 C 
BRANCH  13  14
ATOM     14  C   UNL     1      -2.321   5.775  -5.874  0.00  0.00    -0.036 A 
ATOM     15  C   UNL     1      -3.431   5.675  -6.691  0.00  0.00    +0.004 A 
ATOM     16  C   UNL     1      -3.287   5.741  -8.065  0.00  0.00    +0.000 A 
ATOM     17  C   UNL     1      -2.032   5.908  -8.620  0.00  0.00    +0.000 A 
ATOM     18  C   UNL     1      -0.922   6.009  -7.803  0.00  0.00    +0.000 A 
ATOM     19  C   UNL     1      -1.067   5.947  -6.430  0.00  0.00    +0.004 A 
ENDBRANCH  13  14
BRANCH  13  21
ATOM     20  C   UNL     1      -3.464   6.829  -2.377  0.00  0.00    +0.005 C 
ATOM     21  C   UNL     1      -3.394   6.833  -3.905  0.00  0.00    +0.014 C 
ENDBRANCH  13  21
ENDBRANCH   1  13
BRANCH  10  22
ATOM     22  C   UNL     1      -5.784   0.103  -4.204  0.00  0.00    +0.162 C 
BRANCH  22  23
ATOM     23  C   UNL     1      -7.058   0.900  -4.091  0.00  0.00    +0.234 C 
ATOM     24  O   UNL     1      -7.058   1.965  -3.511  0.00  0.00    -0.274 OA
ATOM     25  N   UNL     1      -8.197   0.429  -4.636  0.00  0.00    -0.315 N 
ATOM     26  H   UNL     1      -8.197  -0.423  -5.100  0.00  0.00    +0.149 HD
BRANCH  25  27
ATOM     27  C   UNL     1      -9.436   1.204  -4.527  0.00  0.00    +0.089 C 
BRANCH  27  28
ATOM     28  C   UNL     1     -10.571   0.451  -5.224  0.00  0.00    -0.051 C 
ATOM     29  C   UNL     1     -11.838   1.331  -5.263  0.00  0.00    -0.016 C 
ATOM     30  C   UNL     1     -11.783   1.961  -6.680  0.00  0.00    -0.020 C 
ATOM     31  C   UNL     1     -11.186   0.800  -7.515  0.00  0.00    -0.078 C 
ATOM     32  N   UNL     1     -10.195   0.158  -6.620  0.00  0.00    +0.382 N 
ATOM     33  H   UNL     1      -9.276   0.527  -6.809  0.00  0.00    -0.081 HD
BRANCH  32  34
ATOM     34  C   UNL     1     -10.197  -1.295  -6.837  0.00  0.00    -0.082 C 
ATOM     35  C   UNL     1      -9.688  -1.600  -8.247  0.00  0.00    -0.017 C 
ENDBRANCH  32  34
ENDBRANCH  27  28
ENDBRANCH  25  27
ENDBRANCH  22  23
BRANCH  22  36
ATOM     36  C   UNL     1      -5.975  -1.262  -3.538  0.00  0.00    +0.035 C 
BRANCH  36  37
ATOM     37  C   UNL     1      -4.753  -2.139  -3.814  0.00  0.00    -0.015 C 
ATOM     38  C   UNL     1      -3.536  -1.562  -3.087  0.00  0.00    +0.007 C 
ATOM     39  C   UNL     1      -5.021  -3.559  -3.311  0.00  0.00    +0.007 C 
ENDBRANCH  36  37
ENDBRANCH  22  36
ENDBRANCH  10  22
TORSDOF 10
