REMARK  Name = ZINC10671437
REMARK  6 active torsions:
REMARK  status: ('A' for Active; 'I' for Inactive)
REMARK    1  A    between atoms: C_12  and  C_14
REMARK    2  A    between atoms: C_14  and  O_16
REMARK    3  A    between atoms: O_16  and  C_17
REMARK    4  A    between atoms: C_17  and  C_18
REMARK    5  A    between atoms: N_23  and  C_24
REMARK    6  A    between atoms: C_24  and  C_25
REMARK                            x       y       z     vdW  Elec       q    Type
REMARK                         _______ _______ _______ _____ _____    ______ ____
ROOT
ATOM      1  O   UNL     1      -0.692   1.554   1.203  0.00  0.00    -0.453 OA
ENDROOT
BRANCH   1   2
ATOM      2  C   UNL     1      -0.166   1.194   2.384  0.00  0.00    +0.343 C 
ATOM      3  O   UNL     1       0.829   0.510   2.418  0.00  0.00    -0.247 OA
BRANCH   2  15
ATOM      4  C   UNL     1       2.817   2.317   6.734  0.00  0.00    +0.002 A 
ATOM      5  C   UNL     1       2.776   3.659   6.405  0.00  0.00    +0.001 A 
ATOM      6  C   UNL     1       1.765   4.119   5.576  0.00  0.00    +0.016 A 
ATOM      7  C   UNL     1       0.825   3.238   5.097  0.00  0.00    +0.032 A 
ATOM      8  C   UNL     1       0.835   1.875   5.420  0.00  0.00    +0.052 A 
ATOM      9  C   UNL     1       1.872   1.437   6.257  0.00  0.00    +0.025 A 
ATOM     10  N   UNL     1      -0.191   1.070   4.883  0.00  0.00    -0.245 N 
ATOM     11  C   UNL     1      -0.867  -0.059   5.218  0.00  0.00    +0.221 C 
ATOM     12  O   UNL     1      -0.481  -0.888   6.015  0.00  0.00    -0.275 OA
ATOM     13  C   UNL     1      -2.170  -0.135   4.455  0.00  0.00    +0.100 C 
ATOM     14  C   UNL     1      -2.295   1.237   3.768  0.00  0.00    +0.059 C 
ATOM     15  C   UNL     1      -0.817   1.643   3.667  0.00  0.00    +0.190 C 
ATOM     16  S   UNL     1      -0.580   3.429   4.016  0.00  0.00    -0.086 S 
ENDBRANCH   2  15
ENDBRANCH   1   2
BRANCH   1  17
ATOM     17  C   UNL     1      -0.013   1.086   0.008  0.00  0.00    +0.328 C 
BRANCH  17  18
ATOM     18  C   UNL     1      -0.742   1.585  -1.213  0.00  0.00    +0.258 C 
ATOM     19  O   UNL     1      -1.736   2.268  -1.089  0.00  0.00    -0.272 OA
ATOM     20  N   UNL     1      -0.288   1.272  -2.443  0.00  0.00    -0.237 N 
ATOM     21  C   UNL     1      -0.940   1.719  -3.535  0.00  0.00    +0.306 C 
ATOM     22  O   UNL     1      -1.937   2.403  -3.410  0.00  0.00    -0.252 OA
ATOM     23  N   UNL     1      -0.487   1.406  -4.765  0.00  0.00    -0.292 N 
ATOM     24  H   UNL     1       0.507   0.726  -2.543  0.00  0.00    +0.159 HD
ATOM     25  H   UNL     1       0.308   0.860  -4.865  0.00  0.00    +0.151 HD
BRANCH  23  26
ATOM     26  C   UNL     1      -1.196   1.891  -5.952  0.00  0.00    +0.180 C 
BRANCH  26  27
ATOM     27  C   UNL     1      -0.490   1.405  -7.192  0.00  0.00    +0.122 A 
ATOM     28  C   UNL     1      -0.740   0.252  -7.838  0.00  0.00    +0.046 A 
ATOM     29  C   UNL     1       0.146   0.200  -8.939  0.00  0.00    +0.041 A 
ATOM     30  C   UNL     1       0.884   1.323  -8.899  0.00  0.00    +0.195 A 
ATOM     31  O   UNL     1       0.490   2.053  -7.843  0.00  0.00    -0.466 OA
ENDBRANCH  26  27
ENDBRANCH  23  26
ENDBRANCH  17  18
ENDBRANCH   1  17
TORSDOF 6
