REMARK  Name = ZINC01783992
REMARK  11 active torsions:
REMARK  status: ('A' for Active; 'I' for Inactive)
REMARK    1  A    between atoms: C_1  and  C_2
REMARK    2  A    between atoms: C_2  and  C_3
REMARK    3  A    between atoms: C_3  and  C_4
REMARK    4  A    between atoms: C_4  and  C_5
REMARK    5  A    between atoms: C_5  and  C_6
REMARK    6  A    between atoms: C_6  and  N_7
REMARK    7  A    between atoms: N_15  and  N_16
REMARK    8  A    between atoms: C_17  and  C_19
REMARK    9  A    between atoms: C_19  and  N_20
REMARK   10  A    between atoms: C_27  and  C_31
REMARK   11  A    between atoms: C_28  and  C_30
REMARK                            x       y       z     vdW  Elec       q    Type
REMARK                         _______ _______ _______ _____ _____    ______ ____
ROOT
ATOM      1  N   UNL     1       1.261  -5.638   7.599  0.00  0.00    -0.205 N 
ATOM      2  C   UNL     1       1.104  -6.014   8.884  0.00  0.00    +0.252 C 
ATOM      3  O   UNL     1       2.064  -6.371   9.533  0.00  0.00    -0.272 OA
ATOM      4  H   UNL     1       0.493  -5.353   7.080  0.00  0.00    +0.177 HD
ENDROOT
BRANCH   1  13
ATOM      5  N   UNL     1       2.232  -4.563   3.651  0.00  0.00    -0.266 N 
ATOM      6  C   UNL     1       3.601  -4.800   3.703  0.00  0.00    +0.046 A 
ATOM      7  C   UNL     1       4.600  -4.663   2.745  0.00  0.00    +0.024 A 
ATOM      8  C   UNL     1       5.908  -4.973   3.058  0.00  0.00    +0.002 A 
ATOM      9  C   UNL     1       6.242  -5.423   4.324  0.00  0.00    +0.001 A 
ATOM     10  C   UNL     1       5.265  -5.565   5.288  0.00  0.00    +0.012 A 
ATOM     11  C   UNL     1       3.944  -5.255   4.983  0.00  0.00    +0.028 A 
ATOM     12  C   UNL     1       2.686  -5.296   5.764  0.00  0.00    +0.153 C 
ATOM     13  N   UNL     1       2.533  -5.661   7.013  0.00  0.00    -0.174 NA
ATOM     14  C   UNL     1       1.642  -4.829   4.829  0.00  0.00    +0.271 C 
ATOM     15  O   UNL     1       0.457  -4.710   5.080  0.00  0.00    -0.268 OA
BRANCH   5  16
ATOM     16  C   UNL     1       1.524  -4.077   2.464  0.00  0.00    +0.114 C 
BRANCH  16  17
ATOM     17  C   UNL     1       1.503  -2.548   2.473  0.00  0.00    +0.019 C 
BRANCH  17  18
ATOM     18  C   UNL     1       0.763  -2.041   1.233  0.00  0.00    +0.002 C 
BRANCH  18  19
ATOM     19  C   UNL     1       0.742  -0.511   1.242  0.00  0.00    -0.000 C 
BRANCH  19  21
ATOM     20  C   UNL     1      -0.019   1.526   0.010  0.00  0.00    +0.004 C 
ATOM     21  C   UNL     1       0.002  -0.004   0.002  0.00  0.00    -0.003 C 
ENDBRANCH  19  21
ENDBRANCH  18  19
ENDBRANCH  17  18
ENDBRANCH  16  17
ENDBRANCH   5  16
ENDBRANCH   1  13
BRANCH   2  22
ATOM     22  C   UNL     1      -0.265  -5.989   9.514  0.00  0.00    +0.223 C 
BRANCH  22  23
ATOM     23  N   UNL     1      -0.170  -6.439  10.905  0.00  0.00    -0.290 N 
ATOM     24  C   UNL     1      -0.301  -7.760  11.189  0.00  0.00    +0.203 A 
ATOM     25  N   UNL     1      -0.223  -8.198  12.416  0.00  0.00    -0.230 NA
ATOM     26  C   UNL     1      -0.011  -7.363  13.430  0.00  0.00    +0.116 A 
ATOM     27  C   UNL     1       0.137  -5.981  13.234  0.00  0.00    +0.080 A 
ATOM     28  C   UNL     1       0.051  -5.534  11.877  0.00  0.00    +0.263 A 
ATOM     29  O   UNL     1       0.172  -4.352  11.606  0.00  0.00    -0.267 OA
ATOM     30  C   UNL     1       0.363  -5.205  14.448  0.00  0.00    +0.007 A 
ATOM     31  C   UNL     1       0.411  -5.854  15.637  0.00  0.00    -0.003 A 
ATOM     32  S   UNL     1       0.153  -7.559  15.186  0.00  0.00    -0.073 S 
ATOM     33  C   UNL     1       0.630  -5.274  17.010  0.00  0.00    +0.052 C 
BRANCH  30  34
ATOM     34  C   UNL     1       0.537  -3.734  14.384  0.00  0.00    -0.016 A 
ATOM     35  C   UNL     1       1.638  -3.188  13.726  0.00  0.00    +0.008 A 
ATOM     36  C   UNL     1       1.795  -1.818  13.669  0.00  0.00    +0.001 A 
ATOM     37  C   UNL     1       0.862  -0.988  14.263  0.00  0.00    +0.000 A 
ATOM     38  C   UNL     1      -0.233  -1.524  14.917  0.00  0.00    +0.001 A 
ATOM     39  C   UNL     1      -0.404  -2.892  14.975  0.00  0.00    +0.008 A 
ENDBRANCH  30  34
ENDBRANCH  22  23
ENDBRANCH   2  22
TORSDOF 9
