REMARK  Name = ZINC39634531
REMARK  9 active torsions:
REMARK  status: ('A' for Active; 'I' for Inactive)
REMARK    1  A    between atoms: C_1  and  O_2
REMARK    2  A    between atoms: O_2  and  C_3
REMARK    3  A    between atoms: C_6  and  C_11
REMARK    4  A    between atoms: C_8  and  O_9
REMARK    5  A    between atoms: O_9  and  C_10
REMARK    6  A    between atoms: C_11  and  C_12
REMARK    7  A    between atoms: C_12  and  N_13
REMARK    8  A    between atoms: C_14  and  C_16
REMARK    9  A    between atoms: C_27  and  C_29
REMARK                            x       y       z     vdW  Elec       q    Type
REMARK                         _______ _______ _______ _____ _____    ______ ____
ROOT
ATOM      1  C   UNL     1      -8.105  -4.915  -2.693  0.00  0.00    +0.100 C 
ATOM      2  C   UNL     1      -8.278  -6.284  -1.996  0.00  0.00    +0.121 C 
ATOM      3  N   UNL     1      -9.264  -7.008  -2.832  0.00  0.00    -0.296 N 
ATOM      4  C   UNL     1      -8.899  -6.654  -4.224  0.00  0.00    +0.115 C 
ATOM      5  C   UNL     1      -8.513  -5.163  -4.155  0.00  0.00    -0.004 C 
ATOM      6  C   UNL     1      -7.338  -4.879  -5.087  0.00  0.00    -0.010 C 
ATOM      7  C   UNL     1      -7.785  -5.075  -6.538  0.00  0.00    -0.082 C 
ATOM      8  N   UNL     1      -8.901  -4.169  -6.835  0.00  0.00    +0.379 N 
ATOM      9  C   UNL     1     -10.059  -4.510  -6.000  0.00  0.00    -0.082 C 
ATOM     10  C   UNL     1      -9.708  -4.290  -4.525  0.00  0.00    -0.010 C 
ATOM     11  C   UNL     1     -10.268  -7.807  -2.419  0.00  0.00    +0.247 C 
ATOM     12  O   UNL     1     -10.524  -7.899  -1.234  0.00  0.00    -0.270 OA
ATOM     13  H   UNL     1      -8.620  -3.218  -6.647  0.00  0.00    -0.086 HD
ATOM     14  H   UNL     1      -9.153  -4.256  -7.809  0.00  0.00    -0.086 HD
ENDROOT
BRANCH  11  15
ATOM     15  C   UNL     1     -11.058  -8.571  -3.408  0.00  0.00    +0.037 A 
ATOM     16  C   UNL     1     -10.537  -8.823  -4.678  0.00  0.00    +0.014 A 
ATOM     17  C   UNL     1     -11.279  -9.537  -5.596  0.00  0.00    +0.016 A 
ATOM     18  C   UNL     1     -12.539 -10.003  -5.259  0.00  0.00    +0.018 A 
ATOM     19  C   UNL     1     -13.061  -9.757  -4.001  0.00  0.00    +0.016 A 
ATOM     20  C   UNL     1     -12.326  -9.049  -3.072  0.00  0.00    +0.014 A 
ATOM     21 BR   UNL     1     -13.550 -10.980  -6.524  0.00  0.00    -0.050 Br
ENDBRANCH  11  15
BRANCH   1  23
ATOM     22  N   UNL     1      -6.376  -3.151  -2.584  0.00  0.00    -0.315 N 
ATOM     23  C   UNL     1      -6.669  -4.466  -2.618  0.00  0.00    +0.218 C 
ATOM     24  O   UNL     1      -5.777  -5.287  -2.587  0.00  0.00    -0.275 OA
ATOM     25  H   UNL     1      -7.089  -2.494  -2.608  0.00  0.00    +0.149 HD
BRANCH  22  26
ATOM     26  C   UNL     1      -4.979  -2.713  -2.511  0.00  0.00    +0.109 C 
BRANCH  26  27
ATOM     27  C   UNL     1      -4.924  -1.185  -2.485  0.00  0.00    +0.054 C 
BRANCH  27  31
ATOM     28  C   UNL     1      -0.848   0.093  -2.277  0.00  0.00    +0.161 A 
ATOM     29  C   UNL     1      -1.456  -0.098  -3.508  0.00  0.00    +0.049 A 
ATOM     30  C   UNL     1      -2.773  -0.511  -3.572  0.00  0.00    +0.007 A 
ATOM     31  C   UNL     1      -3.488  -0.735  -2.410  0.00  0.00    -0.042 A 
ATOM     32  C   UNL     1      -2.888  -0.546  -1.179  0.00  0.00    +0.053 A 
ATOM     33  C   UNL     1      -1.566  -0.138  -1.107  0.00  0.00    +0.162 A 
BRANCH  28  35
ATOM     34  C   UNL     1       1.122   0.716  -3.454  0.00  0.00    +0.277 C 
ATOM     35  O   UNL     1       0.448   0.499  -2.213  0.00  0.00    -0.491 OA
ENDBRANCH  28  35
BRANCH  33  36
ATOM     36  O   UNL     1      -0.972   0.042   0.103  0.00  0.00    -0.491 OA
ATOM     37  C   UNL     1      -1.770  -0.214   1.261  0.00  0.00    +0.277 C 
ENDBRANCH  33  36
ENDBRANCH  27  31
ENDBRANCH  26  27
ENDBRANCH  22  26
ENDBRANCH   1  23
TORSDOF 7
