REMARK  Name = ZINC63254428
REMARK  7 active torsions:
REMARK  status: ('A' for Active; 'I' for Inactive)
REMARK    1  A    between atoms: C_4  and  C_7
REMARK    2  A    between atoms: N_9  and  C_10
REMARK    3  A    between atoms: C_10  and  C_19
REMARK    4  A    between atoms: C_11  and  C_12
REMARK    5  A    between atoms: N_21  and  C_22
REMARK    6  A    between atoms: C_22  and  C_23
REMARK    7  A    between atoms: C_23  and  C_24
REMARK                            x       y       z     vdW  Elec       q    Type
REMARK                         _______ _______ _______ _____ _____    ______ ____
ROOT
ATOM      1  C   UNL     1       4.860  -2.861   0.015  0.00  0.00    +0.097 C 
ATOM      2  C   UNL     1       6.053  -2.245  -0.157  0.00  0.00    +0.036 C 
ENDROOT
BRANCH   2   3
ATOM      3  C   UNL     1       6.126  -0.777  -0.178  0.00  0.00    -0.023 A 
ATOM      4  C   UNL     1       5.162  -0.015   0.490  0.00  0.00    +0.009 A 
ATOM      5  C   UNL     1       5.237   1.361   0.465  0.00  0.00    +0.020 A 
ATOM      6  C   UNL     1       6.265   1.990  -0.219  0.00  0.00    +0.041 A 
ATOM      7  C   UNL     1       7.224   1.242  -0.883  0.00  0.00    +0.020 A 
ATOM      8  C   UNL     1       7.165  -0.135  -0.862  0.00  0.00    +0.009 A 
ATOM      9 CL   UNL     1       6.352   3.724  -0.244  0.00  0.00    -0.084 Cl
ENDBRANCH   2   3
BRANCH   1  12
ATOM     10  C   UNL     1       2.937  -2.305   1.299  0.00  0.00    +0.248 C 
ATOM     11  O   UNL     1       3.294  -3.092   2.154  0.00  0.00    -0.270 OA
ATOM     12  N   UNL     1       3.703  -2.100   0.209  0.00  0.00    -0.277 N 
ATOM     13  H   UNL     1       3.451  -1.425  -0.441  0.00  0.00    +0.155 HD
BRANCH  10  17
ATOM     14  C   UNL     1      -0.724  -0.199   1.747  0.00  0.00    +0.000 A 
ATOM     15  C   UNL     1      -0.374  -1.174   2.664  0.00  0.00    +0.001 A 
ATOM     16  C   UNL     1       0.814  -1.861   2.525  0.00  0.00    +0.013 A 
ATOM     17  C   UNL     1       1.663  -1.572   1.455  0.00  0.00    +0.037 A 
ATOM     18  C   UNL     1       1.302  -0.588   0.533  0.00  0.00    +0.013 A 
ATOM     19  C   UNL     1       0.112   0.093   0.684  0.00  0.00    +0.001 A 
ENDBRANCH  10  17
ENDBRANCH   1  12
BRANCH   1  20
ATOM     20  C   UNL     1       4.780  -4.328  -0.003  0.00  0.00    +0.258 C 
ATOM     21  O   UNL     1       3.708  -4.881   0.152  0.00  0.00    -0.269 OA
ATOM     22  N   UNL     1       5.896  -5.061  -0.190  0.00  0.00    -0.310 N 
ATOM     23  H   UNL     1       6.751  -4.620  -0.313  0.00  0.00    +0.149 HD
BRANCH  22  24
ATOM     24  C   UNL     1       5.817  -6.524  -0.207  0.00  0.00    +0.109 C 
BRANCH  24  25
ATOM     25  C   UNL     1       7.213  -7.108  -0.434  0.00  0.00    +0.052 C 
BRANCH  25  26
ATOM     26  C   UNL     1       7.131  -8.612  -0.452  0.00  0.00    -0.040 C 
ATOM     27  C   UNL     1       7.021  -9.408  -1.540  0.00  0.00    -0.001 A 
ATOM     28  C   UNL     1       6.947  -9.122  -2.978  0.00  0.00    +0.010 A 
ATOM     29  C   UNL     1       6.837 -10.152  -3.847  0.00  0.00    +0.001 A 
ATOM     30  C   UNL     1       6.793 -11.483  -3.410  0.00  0.00    +0.002 A 
ATOM     31  C   UNL     1       6.857 -11.825  -2.106  0.00  0.00    +0.026 A 
ATOM     32  C   UNL     1       6.973 -10.822  -1.105  0.00  0.00    +0.043 A 
ATOM     33  N   UNL     1       7.051 -10.898   0.202  0.00  0.00    -0.380 N 
ATOM     34  C   UNL     1       7.162  -9.539   0.743  0.00  0.00    +0.144 C 
ATOM     35  H   UNL     1       7.040 -11.716   0.723  0.00  0.00    +0.160 HD
ENDBRANCH  25  26
ENDBRANCH  24  25
ENDBRANCH  22  24
ENDBRANCH   1  20
TORSDOF 7
