REMARK  Name = ZINC20170889
REMARK  8 active torsions:
REMARK  status: ('A' for Active; 'I' for Inactive)
REMARK    1  A    between atoms: C_1  and  C_2
REMARK    2  A    between atoms: C_2  and  O_3
REMARK    3  A    between atoms: O_3  and  C_4
REMARK    4  A    between atoms: C_4  and  C_6
REMARK    5  A    between atoms: C_8  and  C_26
REMARK    6  A    between atoms: C_13  and  C_20
REMARK    7  A    between atoms: C_14  and  C_18
REMARK    8  A    between atoms: C_15  and  N_17
REMARK                            x       y       z     vdW  Elec       q    Type
REMARK                         _______ _______ _______ _____ _____    ______ ____
ROOT
ATOM      1  C   UNL     1      -2.881  -2.427   0.017  0.00  0.00    +0.195 C 
ATOM      2  C   UNL     1      -2.769  -3.950   0.034  0.00  0.00    +0.077 C 
ATOM      3  C   UNL     1      -2.338  -4.423  -1.353  0.00  0.00    +0.016 A 
ATOM      4  C   UNL     1      -1.571  -5.575  -1.584  0.00  0.00    +0.086 A 
ATOM      5  C   UNL     1      -1.273  -5.870  -2.944  0.00  0.00    +0.044 A 
ATOM      6  C   UNL     1      -0.542  -6.953  -3.357  0.00  0.00    -0.014 A 
ATOM      7  C   UNL     1      -0.081  -7.788  -2.317  0.00  0.00    +0.095 A 
ATOM      8  C   UNL     1      -0.391  -7.467  -0.983  0.00  0.00    +0.135 A 
ATOM      9  N   UNL     1      -1.100  -6.414  -0.626  0.00  0.00    -0.230 NA
ATOM     10  C   UNL     1      -0.252  -7.230  -4.810  0.00  0.00    +0.046 C 
ATOM     11  S   UNL     1      -2.051  -4.557  -3.834  0.00  0.00    -0.071 S 
ATOM     12  C   UNL     1      -2.719  -3.686  -2.443  0.00  0.00    +0.078 A 
ATOM     13  N   UNL     1      -3.454  -2.522  -2.399  0.00  0.00    -0.279 N 
ATOM     14  C   UNL     1      -3.632  -1.940  -1.191  0.00  0.00    +0.232 C 
ATOM     15  O   UNL     1      -4.408  -1.014  -1.082  0.00  0.00    -0.275 OA
ATOM     16  H   UNL     1      -3.830  -2.134  -3.205  0.00  0.00    +0.155 HD
ENDROOT
BRANCH   2  17
ATOM     17  C   UNL     1      -4.105  -4.552   0.385  0.00  0.00    -0.020 A 
ATOM     18  C   UNL     1      -5.203  -4.314  -0.420  0.00  0.00    +0.006 A 
ATOM     19  C   UNL     1      -6.429  -4.866  -0.098  0.00  0.00    +0.000 A 
ATOM     20  C   UNL     1      -6.557  -5.656   1.029  0.00  0.00    +0.001 A 
ATOM     21  C   UNL     1      -5.460  -5.895   1.834  0.00  0.00    +0.020 A 
ATOM     22  C   UNL     1      -4.231  -5.347   1.510  0.00  0.00    +0.045 A 
ATOM     23 CL   UNL     1      -2.851  -5.652   2.517  0.00  0.00    -0.083 Cl
ENDBRANCH   2  17
BRANCH   8  24
ATOM     24  N   UNL     1       0.077  -8.307   0.015  0.00  0.00    -0.342 N 
ATOM     25  H   UNL     1       0.601  -9.090  -0.216  0.00  0.00    +0.144 HD
ATOM     26  H   UNL     1      -0.120  -8.113   0.945  0.00  0.00    +0.144 HD
ENDBRANCH   8  24
BRANCH   1  27
ATOM     27  C   UNL     1      -1.496  -1.832   0.006  0.00  0.00    +0.320 C 
ATOM     28  O   UNL     1      -0.528  -2.555  -0.007  0.00  0.00    -0.250 OA
BRANCH  27  29
ATOM     29  O   UNL     1      -1.339  -0.499   0.012  0.00  0.00    -0.464 OA
BRANCH  29  31
ATOM     30  C   UNL     1      -0.019   1.526   0.010  0.00  0.00    +0.048 C 
ATOM     31  C   UNL     1       0.002  -0.004   0.002  0.00  0.00    +0.229 C 
ENDBRANCH  29  31
ENDBRANCH  27  29
ENDBRANCH   1  27
BRANCH   7  32
ATOM     32  C   UNL     1       0.694  -8.954  -2.618  0.00  0.00    +0.103 C 
ATOM     33  N   UNL     1       1.310  -9.879  -2.856  0.00  0.00    -0.191 NA
ENDBRANCH   7  32
TORSDOF 6
