REMARK  Name = ZINC12003248
REMARK  13 active torsions:
REMARK  status: ('A' for Active; 'I' for Inactive)
REMARK    1  A    between atoms: C_1  and  C_2
REMARK    2  A    between atoms: C_2  and  C_3
REMARK    3  A    between atoms: C_2  and  C_4
REMARK    4  A    between atoms: C_4  and  C_5
REMARK    5  A    between atoms: C_5  and  C_6
REMARK    6  A    between atoms: C_6  and  C_13
REMARK    7  A    between atoms: C_18  and  C_19
REMARK    8  A    between atoms: C_18  and  N_66
REMARK    9  A    between atoms: C_22  and  C_25
REMARK   10  A    between atoms: C_26  and  C_27
REMARK   11  A    between atoms: C_27  and  C_28
REMARK   12  A    between atoms: C_27  and  C_29
REMARK   13  A    between atoms: C_27  and  O_30
REMARK                            x       y       z     vdW  Elec       q    Type
REMARK                         _______ _______ _______ _____ _____    ______ ____
ROOT
ATOM      1  C   UNL     1       3.713   3.265  -1.108  0.00  0.00    +0.018 C 
ATOM      2  C   UNL     1       2.818   3.978  -0.091  0.00  0.00    -0.013 C 
ATOM      3  C   UNL     1       1.384   3.461  -0.231  0.00  0.00    -0.078 C 
ATOM      4  C   UNL     1       2.175   1.302  -0.994  0.00  0.00    -0.078 C 
ATOM      5  C   UNL     1       3.632   1.754  -0.877  0.00  0.00    -0.013 C 
ATOM      6  N   UNL     1       1.371   2.006   0.027  0.00  0.00    +0.382 N 
ATOM      7  H   UNL     1       1.779   1.827   0.953  0.00  0.00    -0.081 HD
ENDROOT
BRANCH   1   8
ATOM      8  C   UNL     1       5.159   3.734  -0.933  0.00  0.00    +0.115 C 
ATOM      9  C   UNL     1       5.575   3.648   0.522  0.00  0.00    +0.244 C 
ATOM     10  O   UNL     1       5.630   2.652   1.210  0.00  0.00    -0.273 OA
ATOM     11  N   UNL     1       5.871   4.910   0.891  0.00  0.00    -0.238 N 
ATOM     12  C   UNL     1       5.701   5.772  -0.118  0.00  0.00    +0.307 C 
ATOM     13  O   UNL     1       5.905   6.967  -0.027  0.00  0.00    -0.252 OA
ATOM     14  N   UNL     1       5.280   5.169  -1.244  0.00  0.00    -0.285 N 
ATOM     15  H   UNL     1       6.170   5.162   1.779  0.00  0.00    +0.159 HD
ATOM     16  H   UNL     1       5.092   5.595  -2.095  0.00  0.00    +0.151 HD
BRANCH   8  17
ATOM     17  C   UNL     1       6.100   2.911  -1.815  0.00  0.00    +0.036 C 
BRANCH  17  18
ATOM     18  C   UNL     1       7.537   3.399  -1.622  0.00  0.00    +0.005 C 
BRANCH  18  20
ATOM     19  C   UNL     1       8.157   2.838  -3.976  0.00  0.00    +0.007 C 
ATOM     20  C   UNL     1       8.479   2.576  -2.503  0.00  0.00    -0.017 C 
ATOM     21  C   UNL     1       9.927   2.979  -2.218  0.00  0.00    +0.007 C 
ENDBRANCH  18  20
ENDBRANCH  17  18
ENDBRANCH   8  17
ENDBRANCH   1   8
BRANCH   6  22
ATOM     22  C   UNL     1      -0.018   1.503   0.010  0.00  0.00    -0.043 C 
BRANCH  22  23
ATOM     23  C   UNL     1       0.002  -0.004   0.002  0.00  0.00    -0.064 A 
ATOM     24  C   UNL     1      -0.006  -0.686  -1.202  0.00  0.00    +0.003 A 
ATOM     25  C   UNL     1       0.019  -2.066  -1.216  0.00  0.00    +0.017 A 
ATOM     26  C   UNL     1       0.040  -2.773  -0.013  0.00  0.00    +0.025 A 
ATOM     27  C   UNL     1       0.042  -2.079   1.197  0.00  0.00    +0.017 A 
ATOM     28  C   UNL     1       0.023  -0.699   1.198  0.00  0.00    +0.003 A 
BRANCH  26  29
ATOM     29  C   UNL     1       0.059  -4.205  -0.021  0.00  0.00    -0.063 C 
ATOM     30  C   UNL     1       0.075  -5.379  -0.028  0.00  0.00    -0.063 C 
BRANCH  30  31
ATOM     31  C   UNL     1       0.095  -6.850  -0.036  0.00  0.00    +0.121 C 
ATOM     32  C   UNL     1       0.088  -7.353  -1.481  0.00  0.00    +0.055 C 
ATOM     33  C   UNL     1       1.358  -7.347   0.671  0.00  0.00    +0.055 C 
BRANCH  31  34
ATOM     34  O   UNL     1      -1.058  -7.346   0.646  0.00  0.00    -0.377 OA
ATOM     35  H   UNL     1      -1.111  -8.311   0.680  0.00  0.00    +0.211 HD
ENDBRANCH  31  34
ENDBRANCH  30  31
ENDBRANCH  26  29
ENDBRANCH  22  23
ENDBRANCH   6  22
TORSDOF 9
