REMARK  Name = ZINC02686955
REMARK  9 active torsions:
REMARK  status: ('A' for Active; 'I' for Inactive)
REMARK    1  A    between atoms: C_1  and  C_2
REMARK    2  A    between atoms: C_5  and  N_8
REMARK    3  A    between atoms: C_9  and  C_11
REMARK    4  A    between atoms: C_11  and  C_12
REMARK    5  A    between atoms: N_16  and  C_24
REMARK    6  A    between atoms: C_24  and  C_25
REMARK    7  A    between atoms: N_27  and  C_28
REMARK    8  A    between atoms: C_29  and  C_35
REMARK    9  A    between atoms: C_33  and  C_34
REMARK                            x       y       z     vdW  Elec       q    Type
REMARK                         _______ _______ _______ _____ _____    ______ ____
ROOT
ATOM      1  C   UNL     1       4.443   7.607   2.902  0.00  0.00    +0.166 C 
ATOM      2  C   UNL     1       4.255   8.939   2.221  0.00  0.00    +0.241 C 
ATOM      3  O   UNL     1       4.350   9.962   2.866  0.00  0.00    -0.273 OA
ATOM      4  N   UNL     1       3.985   9.003   0.902  0.00  0.00    -0.259 N 
ATOM      5  C   UNL     1       4.011   7.852   0.106  0.00  0.00    +0.058 A 
ATOM      6  C   UNL     1       3.529   7.881  -1.193  0.00  0.00    +0.025 A 
ATOM      7  C   UNL     1       3.541   6.730  -1.959  0.00  0.00    +0.002 A 
ATOM      8  C   UNL     1       4.033   5.548  -1.436  0.00  0.00    +0.002 A 
ATOM      9  C   UNL     1       4.520   5.510  -0.141  0.00  0.00    +0.025 A 
ATOM     10  C   UNL     1       4.514   6.660   0.629  0.00  0.00    +0.049 A 
ATOM     11  N   UNL     1       5.010   6.651   1.940  0.00  0.00    -0.331 N 
ATOM     12  H   UNL     1       5.708   6.031   2.205  0.00  0.00    +0.147 HD
ENDROOT
BRANCH   1  13
ATOM     13  C   UNL     1       3.091   7.092   3.400  0.00  0.00    +0.127 C 
BRANCH  13  15
ATOM     14  N   UNL     1       2.237   5.183   4.721  0.00  0.00    -0.285 N 
ATOM     15  C   UNL     1       3.296   5.821   4.183  0.00  0.00    +0.219 C 
ATOM     16  O   UNL     1       4.413   5.371   4.328  0.00  0.00    -0.275 OA
ATOM     17  H   UNL     1       1.339   5.511   4.558  0.00  0.00    +0.155 HD
BRANCH  14  22
ATOM     18  C   UNL     1       3.034   0.585   7.947  0.00  0.00    +0.044 C 
ATOM     19  C   UNL     1       2.822   1.806   7.090  0.00  0.00    -0.050 A 
ATOM     20  C   UNL     1       3.750   2.831   7.108  0.00  0.00    +0.005 A 
ATOM     21  C   UNL     1       3.559   3.952   6.324  0.00  0.00    +0.023 A 
ATOM     22  C   UNL     1       2.434   4.049   5.516  0.00  0.00    +0.033 A 
ATOM     23  C   UNL     1       1.505   3.017   5.498  0.00  0.00    +0.023 A 
ATOM     24  C   UNL     1       1.701   1.899   6.285  0.00  0.00    +0.005 A 
ENDBRANCH  14  22
ENDBRANCH  13  15
ENDBRANCH   1  13
BRANCH   4  25
ATOM     25  C   UNL     1       3.659  10.295   0.294  0.00  0.00    +0.209 C 
BRANCH  25  26
ATOM     26  C   UNL     1       2.171  10.519   0.357  0.00  0.00    +0.235 C 
ATOM     27  O   UNL     1       1.452   9.682   0.861  0.00  0.00    -0.274 OA
ATOM     28  N   UNL     1       1.637  11.650  -0.146  0.00  0.00    -0.284 N 
ATOM     29  H   UNL     1       2.199  12.281  -0.622  0.00  0.00    +0.155 HD
BRANCH  28  30
ATOM     30  C   UNL     1       0.273  11.914   0.019  0.00  0.00    +0.039 A 
ATOM     31  C   UNL     1      -0.139  13.081   0.648  0.00  0.00    -0.029 A 
ATOM     32  C   UNL     1      -1.487  13.341   0.805  0.00  0.00    +0.005 A 
ATOM     33  C   UNL     1      -2.425  12.435   0.345  0.00  0.00    +0.001 A 
ATOM     34  C   UNL     1      -2.018  11.269  -0.277  0.00  0.00    +0.005 A 
ATOM     35  C   UNL     1      -0.672  11.006  -0.442  0.00  0.00    -0.029 A 
ATOM     36  C   UNL     1      -0.229   9.735  -1.119  0.00  0.00    +0.045 C 
ATOM     37  C   UNL     1       0.883  14.067   1.154  0.00  0.00    +0.045 C 
ENDBRANCH  28  30
ENDBRANCH  25  26
ENDBRANCH   4  25
TORSDOF 6
