REMARK  Name = ZINC39676588
REMARK  9 active torsions:
REMARK  status: ('A' for Active; 'I' for Inactive)
REMARK    1  A    between atoms: C_1  and  O_2
REMARK    2  A    between atoms: O_2  and  C_3
REMARK    3  A    between atoms: C_6  and  C_9
REMARK    4  A    between atoms: C_9  and  C_10
REMARK    5  A    between atoms: C_9  and  N_18
REMARK    6  A    between atoms: C_13  and  O_16
REMARK    7  A    between atoms: O_16  and  C_17
REMARK    8  A    between atoms: C_19  and  C_21
REMARK    9  A    between atoms: C_32  and  C_34
REMARK                            x       y       z     vdW  Elec       q    Type
REMARK                         _______ _______ _______ _____ _____    ______ ____
ROOT
ATOM      1  N   UNL     1       3.203  -4.073   1.276  0.00  0.00    -0.304 N 
ATOM      2  C   UNL     1       4.229  -4.234   2.135  0.00  0.00    +0.219 C 
ATOM      3  O   UNL     1       4.460  -3.385   2.969  0.00  0.00    -0.275 OA
ATOM      4  H   UNL     1       3.018  -4.752   0.609  0.00  0.00    +0.150 HD
ENDROOT
BRANCH   2   5
ATOM      5  C   UNL     1       5.087  -5.471   2.060  0.00  0.00    +0.100 C 
ATOM      6  C   UNL     1       5.603  -5.854   3.465  0.00  0.00    +0.121 C 
ATOM      7  N   UNL     1       6.984  -6.341   3.237  0.00  0.00    -0.300 N 
ATOM      8  C   UNL     1       7.531  -5.429   2.205  0.00  0.00    +0.115 C 
ATOM      9  C   UNL     1       6.355  -5.192   1.236  0.00  0.00    -0.004 C 
ATOM     10  C   UNL     1       6.441  -6.156   0.057  0.00  0.00    -0.010 C 
ATOM     11  C   UNL     1       7.680  -5.823  -0.780  0.00  0.00    -0.082 C 
ATOM     12  N   UNL     1       7.591  -4.439  -1.259  0.00  0.00    +0.379 N 
ATOM     13  C   UNL     1       7.602  -3.513  -0.120  0.00  0.00    -0.082 C 
ATOM     14  C   UNL     1       6.360  -3.748   0.745  0.00  0.00    -0.010 C 
ATOM     15  C   UNL     1       7.602  -7.380   3.834  0.00  0.00    +0.219 C 
ATOM     16  O   UNL     1       6.988  -8.093   4.599  0.00  0.00    -0.275 OA
ATOM     17  H   UNL     1       8.378  -4.241  -1.859  0.00  0.00    -0.086 HD
ATOM     18  H   UNL     1       6.735  -4.318  -1.780  0.00  0.00    -0.086 HD
BRANCH  15  19
ATOM     19  C   UNL     1       9.056  -7.655   3.550  0.00  0.00    +0.079 C 
ATOM     20  C   UNL     1       9.338  -9.154   3.707  0.00  0.00    +0.017 C 
ATOM     21  C   UNL     1      10.770  -9.429   3.242  0.00  0.00    +0.027 C 
ATOM     22  C   UNL     1      11.717  -8.462   3.889  0.00  0.00    -0.031 C 
ATOM     23  C   UNL     1      11.352  -7.356   4.454  0.00  0.00    -0.030 C 
ATOM     24  C   UNL     1       9.929  -6.888   4.546  0.00  0.00    +0.039 C 
ENDBRANCH  15  19
ENDBRANCH   2   5
BRANCH   1  25
ATOM     25  C   UNL     1       2.368  -2.871   1.349  0.00  0.00    +0.134 C 
BRANCH  25  29
ATOM     26  C   UNL     1       4.203   0.275  -0.887  0.00  0.00    +0.120 A 
ATOM     27  C   UNL     1       3.591   0.551   0.327  0.00  0.00    +0.046 A 
ATOM     28  C   UNL     1       2.998  -0.468   1.048  0.00  0.00    +0.009 A 
ATOM     29  C   UNL     1       3.015  -1.762   0.560  0.00  0.00    -0.023 A 
ATOM     30  C   UNL     1       3.625  -2.039  -0.649  0.00  0.00    +0.009 A 
ATOM     31  C   UNL     1       4.213  -1.023  -1.377  0.00  0.00    +0.046 A 
BRANCH  26  33
ATOM     32  C   UNL     1       4.737   2.587  -1.033  0.00  0.00    +0.277 C 
ATOM     33  O   UNL     1       4.786   1.276  -1.598  0.00  0.00    -0.495 OA
ENDBRANCH  26  33
ENDBRANCH  25  29
BRANCH  25  34
ATOM     34  C   UNL     1       1.008  -3.169   0.774  0.00  0.00    -0.023 A 
ATOM     35  C   UNL     1       0.893  -3.958  -0.356  0.00  0.00    +0.009 A 
ATOM     36  C   UNL     1      -0.353  -4.233  -0.885  0.00  0.00    +0.046 A 
ATOM     37  C   UNL     1      -1.490  -3.716  -0.282  0.00  0.00    +0.120 A 
ATOM     38  C   UNL     1      -1.373  -2.924   0.851  0.00  0.00    +0.046 A 
ATOM     39  C   UNL     1      -0.125  -2.657   1.380  0.00  0.00    +0.009 A 
BRANCH  37  40
ATOM     40  O   UNL     1      -2.717  -3.984  -0.800  0.00  0.00    -0.495 OA
ATOM     41  C   UNL     1      -3.844  -3.418  -0.128  0.00  0.00    +0.277 C 
ENDBRANCH  37  40
ENDBRANCH  25  34
ENDBRANCH   1  25
TORSDOF 7
