REMARK  Name = ZINC17190078
REMARK  13 active torsions:
REMARK  status: ('A' for Active; 'I' for Inactive)
REMARK    1  A    between atoms: C_1  and  C_2
REMARK    2  A    between atoms: C_2  and  C_3
REMARK    3  A    between atoms: C_2  and  C_4
REMARK    4  A    between atoms: C_7  and  O_10
REMARK    5  A    between atoms: O_10  and  C_11
REMARK    6  A    between atoms: C_11  and  C_12
REMARK    7  A    between atoms: C_15  and  S_18
REMARK    8  A    between atoms: N_16  and  N_17
REMARK    9  A    between atoms: S_18  and  C_19
REMARK   10  A    between atoms: C_19  and  C_20
REMARK   11  A    between atoms: N_22  and  C_23
REMARK   12  A    between atoms: C_26  and  S_29
REMARK   13  A    between atoms: S_29  and  N_32
REMARK                            x       y       z     vdW  Elec       q    Type
REMARK                         _______ _______ _______ _____ _____    ______ ____
ROOT
ATOM      1  C   UNL     1      -3.492   4.588   6.103  0.00  0.00    +0.189 A 
ATOM      2  N   UNL     1      -2.953   4.744   7.278  0.00  0.00    -0.128 NA
ATOM      3  N   UNL     1      -3.863   4.989   8.152  0.00  0.00    -0.121 NA
ATOM      4  C   UNL     1      -5.042   5.003   7.576  0.00  0.00    +0.209 A 
ATOM      5  N   UNL     1      -4.842   4.752   6.249  0.00  0.00    -0.225 N 
ENDROOT
BRANCH   5   6
ATOM      6  N   UNL     1      -5.792   4.677   5.271  0.00  0.00    -0.295 N 
ATOM      7  H   UNL     1      -6.138   3.734   5.174  0.00  0.00    +0.163 HD
ATOM      8  H   UNL     1      -6.547   5.322   5.450  0.00  0.00    +0.163 HD
ENDBRANCH   5   6
BRANCH   1   9
ATOM      9  C   UNL     1      -2.763   4.288   4.818  0.00  0.00    +0.306 C 
BRANCH   9  10
ATOM     10  O   UNL     1      -2.661   2.873   4.647  0.00  0.00    -0.484 OA
BRANCH  10  14
ATOM     11  C   UNL     1      -0.735   1.529   1.256  0.00  0.00    -0.045 A 
ATOM     12  C   UNL     1      -0.862   2.887   1.485  0.00  0.00    +0.007 A 
ATOM     13  C   UNL     1      -1.512   3.339   2.617  0.00  0.00    +0.046 A 
ATOM     14  C   UNL     1      -2.026   2.430   3.530  0.00  0.00    +0.121 A 
ATOM     15  C   UNL     1      -1.892   1.069   3.300  0.00  0.00    +0.046 A 
ATOM     16  C   UNL     1      -1.247   0.621   2.164  0.00  0.00    +0.007 A 
BRANCH  11  18
ATOM     17  C   UNL     1       1.408   1.558   0.008  0.00  0.00    +0.012 C 
ATOM     18  C   UNL     1      -0.031   1.039   0.017  0.00  0.00    +0.013 C 
ATOM     19  C   UNL     1      -0.766   1.551  -1.224  0.00  0.00    +0.012 C 
ENDBRANCH  11  18
ENDBRANCH  10  14
ENDBRANCH   9  10
ENDBRANCH   1   9
BRANCH   4  20
ATOM     20  S   UNL     1      -6.590   5.295   8.364  0.00  0.00    -0.075 S 
BRANCH  20  21
ATOM     21  C   UNL     1      -6.033   5.543  10.069  0.00  0.00    +0.173 C 
BRANCH  21  22
ATOM     22  C   UNL     1      -7.223   5.818  10.951  0.00  0.00    +0.227 C 
ATOM     23  O   UNL     1      -8.338   5.843  10.475  0.00  0.00    -0.275 OA
ATOM     24  N   UNL     1      -7.048   6.035  12.270  0.00  0.00    -0.285 N 
ATOM     25  H   UNL     1      -6.165   5.949  12.663  0.00  0.00    +0.155 HD
BRANCH  24  26
ATOM     26  C   UNL     1      -8.140   6.385  13.072  0.00  0.00    +0.034 A 
ATOM     27  C   UNL     1      -7.970   7.264  14.134  0.00  0.00    +0.025 A 
ATOM     28  C   UNL     1      -9.051   7.612  14.920  0.00  0.00    +0.030 A 
ATOM     29  C   UNL     1     -10.299   7.077  14.658  0.00  0.00    +0.105 A 
ATOM     30  C   UNL     1     -10.470   6.197  13.606  0.00  0.00    +0.030 A 
ATOM     31  C   UNL     1      -9.395   5.849  12.812  0.00  0.00    +0.025 A 
BRANCH  29  32
ATOM     32  S   UNL     1     -11.674   7.518  15.668  0.00  0.00    +0.056 S 
ATOM     33  O   UNL     1     -11.364   8.778  16.248  0.00  0.00    -0.153 OA
ATOM     34  O   UNL     1     -12.839   7.307  14.883  0.00  0.00    -0.153 OA
BRANCH  32  35
ATOM     35  N   UNL     1     -11.738   6.427  16.912  0.00  0.00    -0.204 NA
ATOM     36  H   UNL     1     -11.080   5.716  16.968  0.00  0.00    +0.144 HD
ATOM     37  H   UNL     1     -12.432   6.499  17.585  0.00  0.00    +0.144 HD
ENDBRANCH  32  35
ENDBRANCH  29  32
ENDBRANCH  24  26
ENDBRANCH  21  22
ENDBRANCH  20  21
ENDBRANCH   4  20
TORSDOF 11
