REMARK  Name = ZINC19596045
REMARK  8 active torsions:
REMARK  status: ('A' for Active; 'I' for Inactive)
REMARK    1  A    between atoms: C_1  and  C_2
REMARK    2  A    between atoms: C_5  and  S_8
REMARK    3  A    between atoms: S_8  and  N_11
REMARK    4  A    between atoms: N_11  and  C_12
REMARK    5  A    between atoms: N_11  and  C_13
REMARK    6  A    between atoms: C_13  and  C_14
REMARK    7  A    between atoms: N_16  and  N_17
REMARK    8  A    between atoms: C_18  and  C_20
REMARK                            x       y       z     vdW  Elec       q    Type
REMARK                         _______ _______ _______ _____ _____    ______ ____
ROOT
ATOM      1  C   UNL     1      -3.246   1.275  -1.331  0.00  0.00    +0.245 C 
ATOM      2  O   UNL     1      -3.382   2.166  -0.519  0.00  0.00    -0.273 OA
ATOM      3  N   UNL     1      -4.315   0.556  -1.728  0.00  0.00    -0.233 N 
ATOM      4  H   UNL     1      -4.192  -0.251  -2.464  0.00  0.00    +0.173 HD
ENDROOT
BRANCH   3   5
ATOM      5  N   UNL     1      -5.583   0.838  -1.201  0.00  0.00    -0.230 N 
ATOM      6  C   UNL     1      -6.652   0.119  -1.597  0.00  0.00    +0.260 C 
ATOM      7  O   UNL     1      -6.516  -0.774  -2.412  0.00  0.00    -0.269 OA
ATOM      8  H   UNL     1      -5.705   1.645  -0.464  0.00  0.00    +0.173 HD
BRANCH   6   9
ATOM      9  C   UNL     1      -7.987   0.415  -1.043  0.00  0.00    +0.043 A 
ATOM     10  C   UNL     1      -9.096  -0.329  -1.453  0.00  0.00    +0.062 A 
ATOM     11  C   UNL     1     -10.345  -0.050  -0.931  0.00  0.00    +0.168 A 
ATOM     12  C   UNL     1     -10.496   0.975   0.003  0.00  0.00    +0.184 A 
ATOM     13  C   UNL     1      -9.393   1.715   0.409  0.00  0.00    +0.087 A 
ATOM     14  C   UNL     1      -8.144   1.436  -0.103  0.00  0.00    +0.037 A 
ATOM     15 CL   UNL     1      -9.587   2.989   1.573  0.00  0.00    -0.080 Cl
ATOM     16  O   UNL     1     -11.811   1.048   0.358  0.00  0.00    -0.451 OA
ATOM     17  C   UNL     1     -12.392  -0.202  -0.055  0.00  0.00    +0.466 C 
ATOM     18  O   UNL     1     -11.566  -0.616  -1.159  0.00  0.00    -0.453 OA
ENDBRANCH   6   9
ENDBRANCH   3   5
BRANCH   1  19
ATOM     19  C   UNL     1      -1.883   0.973  -1.897  0.00  0.00    +0.206 C 
BRANCH  19  20
ATOM     20  N   UNL     1      -0.897   1.885  -1.312  0.00  0.00    -0.171 NA
ATOM     21  C   UNL     1      -0.691   3.213  -1.897  0.00  0.00    +0.132 C 
BRANCH  20  22
ATOM     22  S   UNL     1      -0.017   1.417   0.010  0.00  0.00    +0.061 S 
ATOM     23  O   UNL     1       0.002  -0.004   0.002  0.00  0.00    -0.153 OA
ATOM     24  O   UNL     1       1.172   2.195   0.003  0.00  0.00    -0.153 OA
BRANCH  22  29
ATOM     25  C   UNL     1      -3.131   3.072   4.906  0.00  0.00    +0.044 C 
ATOM     26  C   UNL     1      -2.353   2.659   3.683  0.00  0.00    -0.050 A 
ATOM     27  C   UNL     1      -2.559   1.412   3.121  0.00  0.00    +0.005 A 
ATOM     28  C   UNL     1      -1.846   1.033   2.000  0.00  0.00    +0.029 A 
ATOM     29  C   UNL     1      -0.927   1.900   1.439  0.00  0.00    +0.105 A 
ATOM     30  C   UNL     1      -0.717   3.145   2.004  0.00  0.00    +0.029 A 
ATOM     31  C   UNL     1      -1.434   3.526   3.123  0.00  0.00    +0.005 A 
ENDBRANCH  22  29
ENDBRANCH  20  22
ENDBRANCH  19  20
ENDBRANCH   1  19
TORSDOF 6
