REMARK  Name = ZINC36371655
REMARK  11 active torsions:
REMARK  status: ('A' for Active; 'I' for Inactive)
REMARK    1  A    between atoms: C_1  and  C_2
REMARK    2  A    between atoms: C_2  and  C_4
REMARK    3  A    between atoms: C_2  and  C_10
REMARK    4  A    between atoms: C_4  and  C_5
REMARK    5  A    between atoms: C_5  and  C_6
REMARK    6  A    between atoms: C_6  and  C_7
REMARK    7  A    between atoms: C_7  and  C_8
REMARK    8  A    between atoms: C_7  and  C_9
REMARK    9  A    between atoms: C_16  and  C_36
REMARK   10  A    between atoms: C_27  and  C_35
REMARK   11  A    between atoms: N_30  and  O_31
REMARK                            x       y       z     vdW  Elec       q    Type
REMARK                         _______ _______ _______ _____ _____    ______ ____
ROOT
ATOM      1  C   UNL     1       0.838  -0.489   1.175  0.00  0.00    -0.002 C 
ATOM      2  C   UNL     1       0.999  -2.019   1.068  0.00  0.00    +0.004 C 
ATOM      3  C   UNL     1       2.514  -2.293   0.948  0.00  0.00    +0.004 C 
ATOM      4  C   UNL     1       3.172  -1.044   1.605  0.00  0.00    -0.001 C 
ATOM      5  C   UNL     1       2.257   0.089   1.106  0.00  0.00    -0.026 C 
ATOM      6  C   UNL     1       2.406   1.365   1.903  0.00  0.00    +0.007 C 
ATOM      7  C   UNL     1       2.214   1.104   3.396  0.00  0.00    +0.005 C 
ATOM      8  C   UNL     1       3.270   0.091   3.854  0.00  0.00    -0.001 C 
ATOM      9  C   UNL     1       3.053  -1.235   3.120  0.00  0.00    -0.004 C 
ATOM     10  C   UNL     1       4.099  -2.260   3.569  0.00  0.00    +0.004 C 
ATOM     11  C   UNL     1       4.004  -2.468   5.078  0.00  0.00    +0.005 C 
ATOM     12  C   UNL     1       2.876  -1.611   5.660  0.00  0.00    +0.003 C 
ATOM     13  C   UNL     1       3.119  -0.120   5.366  0.00  0.00    -0.020 C 
ATOM     14  C   UNL     1       1.945   0.742   5.850  0.00  0.00    +0.069 C 
ATOM     15  C   UNL     1       1.735   0.494   7.329  0.00  0.00    +0.123 C 
ATOM     16  N   UNL     1       1.579   1.468   8.168  0.00  0.00    -0.089 NA
ATOM     17  C   UNL     1       1.718  -0.921   7.765  0.00  0.00    +0.181 C 
ATOM     18  O   UNL     1       0.894  -1.336   8.552  0.00  0.00    -0.291 OA
ATOM     19  C   UNL     1       2.832  -1.846   7.176  0.00  0.00    +0.085 C 
ATOM     20  C   UNL     1       4.406   0.309   6.074  0.00  0.00    +0.012 C 
ATOM     21  C   UNL     1       2.598   0.395  -0.354  0.00  0.00    +0.012 C 
ENDROOT
BRANCH   1  23
ATOM     22  C   UNL     1      -0.225   1.540   0.178  0.00  0.00    +0.008 C 
ATOM     23  C   UNL     1      -0.003   0.036   0.009  0.00  0.00    -0.010 C 
BRANCH  23  24
ATOM     24  C   UNL     1      -1.354  -0.681  -0.008  0.00  0.00    +0.003 C 
BRANCH  24  25
ATOM     25  C   UNL     1      -2.146  -0.248  -1.244  0.00  0.00    +0.001 C 
BRANCH  25  26
ATOM     26  C   UNL     1      -3.497  -0.965  -1.261  0.00  0.00    +0.003 C 
BRANCH  26  27
ATOM     27  C   UNL     1      -4.288  -0.531  -2.497  0.00  0.00    -0.017 C 
ATOM     28  C   UNL     1      -5.585  -1.339  -2.582  0.00  0.00    +0.007 C 
ATOM     29  C   UNL     1      -4.621   0.958  -2.393  0.00  0.00    +0.007 C 
ENDBRANCH  26  27
ENDBRANCH  25  26
ENDBRANCH  24  25
ENDBRANCH  23  24
ENDBRANCH   1  23
BRANCH  16  30
ATOM     30  O   UNL     1       1.385   1.194   9.543  0.00  0.00    -0.409 OA
ATOM     31  H   UNL     1       1.278   1.983  10.091  0.00  0.00    +0.328 HD
ENDBRANCH  16  30
TORSDOF 6
