REMARK  Name = ZINC22882649
REMARK  8 active torsions:
REMARK  status: ('A' for Active; 'I' for Inactive)
REMARK    1  A    between atoms: C_1  and  C_2
REMARK    2  A    between atoms: C_5  and  C_34
REMARK    3  A    between atoms: N_8  and  C_10
REMARK    4  A    between atoms: C_10  and  C_11
REMARK    5  A    between atoms: N_16  and  C_17
REMARK    6  A    between atoms: C_17  and  C_19
REMARK    7  A    between atoms: C_22  and  N_25
REMARK    8  A    between atoms: C_26  and  C_28
REMARK                            x       y       z     vdW  Elec       q    Type
REMARK                         _______ _______ _______ _____ _____    ______ ____
ROOT
ATOM      1  C   UNL     1       0.819   3.684   6.436  0.00  0.00    +0.269 C 
ATOM      2  O   UNL     1       0.324   2.817   7.137  0.00  0.00    -0.268 OA
ENDROOT
BRANCH   1   8
ATOM      3  C   UNL     1       2.161   0.193   3.695  0.00  0.00    +0.008 A 
ATOM      4  C   UNL     1       1.538  -0.538   4.627  0.00  0.00    +0.067 A 
ATOM      5  S   UNL     1       0.968   0.716   5.760  0.00  0.00    -0.061 S 
ATOM      6  C   UNL     1       1.564   2.071   4.961  0.00  0.00    +0.163 A 
ATOM      7  N   UNL     1       2.180   1.541   3.869  0.00  0.00    -0.341 N 
ATOM      8  N   UNL     1       1.462   3.350   5.315  0.00  0.00    -0.152 NA
ATOM      9  H   UNL     1       2.621   2.116   3.224  0.00  0.00    +0.167 HD
BRANCH   3  10
ATOM     10  C   UNL     1       2.819  -0.454   2.503  0.00  0.00    -0.024 C 
BRANCH  10  16
ATOM     11  C   UNL     1      -0.027   1.477   0.058  0.00  0.00    +0.005 C 
ATOM     12  C   UNL     1       0.000  -0.052   0.058  0.00  0.00    -0.031 C 
ATOM     13  C   UNL     1       0.715  -0.552  -1.201  0.00  0.00    +0.003 C 
ATOM     14  C   UNL     1       2.169  -0.074  -1.174  0.00  0.00    -0.031 C 
ATOM     15  C   UNL     1       2.840  -0.571   0.109  0.00  0.00    -0.075 C 
ATOM     16  N   UNL     1       2.126  -0.038   1.276  0.00  0.00    +0.384 N 
ATOM     17  C   UNL     1       0.750  -0.550   1.296  0.00  0.00    -0.075 C 
ATOM     18  C   UNL     1       2.913  -0.632  -2.389  0.00  0.00    +0.005 C 
ATOM     19  H   UNL     1       2.108   0.969   1.227  0.00  0.00    -0.081 HD
ENDBRANCH  10  16
ENDBRANCH   3  10
ENDBRANCH   1   8
BRANCH   1  20
ATOM     20  C   UNL     1       0.706   5.106   6.829  0.00  0.00    +0.039 A 
ATOM     21  C   UNL     1       1.266   6.101   6.025  0.00  0.00    +0.015 A 
ATOM     22  C   UNL     1       1.160   7.423   6.393  0.00  0.00    +0.024 A 
ATOM     23  C   UNL     1       0.494   7.769   7.565  0.00  0.00    +0.034 A 
ATOM     24  C   UNL     1      -0.066   6.780   8.368  0.00  0.00    +0.024 A 
ATOM     25  C   UNL     1       0.033   5.457   8.001  0.00  0.00    +0.015 A 
BRANCH  23  26
ATOM     26  N   UNL     1       0.389   9.109   7.936  0.00  0.00    -0.282 N 
ATOM     27  C   UNL     1      -0.724   9.552   8.555  0.00  0.00    +0.248 C 
ATOM     28  O   UNL     1      -1.600   8.767   8.865  0.00  0.00    -0.270 OA
ATOM     29  H   UNL     1       1.116   9.723   7.748  0.00  0.00    +0.155 HD
BRANCH  27  30
ATOM     30  C   UNL     1      -0.880  10.990   8.856  0.00  0.00    +0.037 A 
ATOM     31  C   UNL     1       0.121  11.894   8.496  0.00  0.00    +0.013 A 
ATOM     32  C   UNL     1      -0.031  13.236   8.780  0.00  0.00    +0.001 A 
ATOM     33  C   UNL     1      -1.172  13.685   9.421  0.00  0.00    +0.000 A 
ATOM     34  C   UNL     1      -2.167  12.795   9.781  0.00  0.00    +0.001 A 
ATOM     35  C   UNL     1      -2.031  11.452   9.497  0.00  0.00    +0.013 A 
ENDBRANCH  27  30
ENDBRANCH  23  26
ENDBRANCH   1  20
TORSDOF 6
