REMARK  Name = ZINC14189533
REMARK  7 active torsions:
REMARK  status: ('A' for Active; 'I' for Inactive)
REMARK    1  A    between atoms: C_1  and  N_2
REMARK    2  A    between atoms: N_2  and  C_3
REMARK    3  A    between atoms: N_2  and  S_9
REMARK    4  A    between atoms: S_9  and  C_12
REMARK    5  A    between atoms: C_15  and  N_18
REMARK    6  A    between atoms: C_19  and  C_21
REMARK    7  A    between atoms: C_21  and  N_22
REMARK                            x       y       z     vdW  Elec       q    Type
REMARK                         _______ _______ _______ _____ _____    ______ ____
ROOT
ATOM      1  N   UNL     1      -4.199   0.909   1.691  0.00  0.00    -0.284 N 
ATOM      2  C   UNL     1      -5.083   1.226   0.724  0.00  0.00    +0.235 C 
ATOM      3  O   UNL     1      -6.255   1.377   1.000  0.00  0.00    -0.274 OA
ATOM      4  H   UNL     1      -3.275   0.723   1.461  0.00  0.00    +0.155 HD
ENDROOT
BRANCH   1   8
ATOM      5  C   UNL     1      -5.433   0.734   5.666  0.00  0.00    +0.106 A 
ATOM      6  C   UNL     1      -6.293   0.338   4.659  0.00  0.00    +0.030 A 
ATOM      7  C   UNL     1      -5.887   0.395   3.340  0.00  0.00    +0.025 A 
ATOM      8  C   UNL     1      -4.614   0.850   3.026  0.00  0.00    +0.034 A 
ATOM      9  C   UNL     1      -3.750   1.242   4.041  0.00  0.00    +0.025 A 
ATOM     10  C   UNL     1      -4.165   1.188   5.357  0.00  0.00    +0.030 A 
BRANCH   5  11
ATOM     11  S   UNL     1      -5.955   0.659   7.348  0.00  0.00    +0.061 S 
ATOM     12  O   UNL     1      -5.163   1.599   8.061  0.00  0.00    -0.153 OA
ATOM     13  O   UNL     1      -7.375   0.715   7.335  0.00  0.00    -0.153 OA
BRANCH  11  15
ATOM     14  C   UNL     1      -4.237  -1.051   8.546  0.00  0.00    +0.132 C 
ATOM     15  N   UNL     1      -5.545  -0.839   7.922  0.00  0.00    -0.177 NA
BRANCH  15  16
ATOM     16  C   UNL     1      -6.491  -1.952   7.806  0.00  0.00    +0.080 C 
ATOM     17  C   UNL     1      -6.829  -2.481   9.201  0.00  0.00    +0.020 C 
ATOM     18  C   UNL     1      -7.816  -3.644   9.080  0.00  0.00    +0.002 C 
ATOM     19  C   UNL     1      -7.187  -4.763   8.248  0.00  0.00    +0.000 C 
ATOM     20  C   UNL     1      -6.850  -4.233   6.853  0.00  0.00    +0.002 C 
ATOM     21  C   UNL     1      -5.862  -3.071   6.974  0.00  0.00    +0.020 C 
ENDBRANCH  15  16
ENDBRANCH  11  15
ENDBRANCH   5  11
ENDBRANCH   1   8
BRANCH   2  22
ATOM     22  C   UNL     1      -4.616   1.391  -0.699  0.00  0.00    +0.214 C 
BRANCH  22  23
ATOM     23  N   UNL     1      -5.758   1.732  -1.551  0.00  0.00    -0.215 N 
ATOM     24  C   UNL     1      -6.165   2.992  -1.805  0.00  0.00    +0.251 C 
ATOM     25  O   UNL     1      -5.675   4.019  -1.389  0.00  0.00    -0.272 OA
ATOM     26  C   UNL     1      -7.358   2.855  -2.725  0.00  0.00    +0.138 C 
ATOM     27  C   UNL     1      -7.073   3.522  -4.065  0.00  0.00    +0.040 C 
ATOM     28  C   UNL     1      -7.111   5.043  -3.868  0.00  0.00    +0.008 C 
ATOM     29  C   UNL     1      -8.553   5.457  -3.584  0.00  0.00    +0.035 C 
ATOM     30  C   UNL     1      -9.133   4.631  -2.466  0.00  0.00    -0.042 A 
ATOM     31  C   UNL     1      -8.584   3.429  -2.074  0.00  0.00    -0.012 A 
ATOM     32  C   UNL     1      -9.171   2.711  -1.040  0.00  0.00    +0.006 A 
ATOM     33  C   UNL     1     -10.296   3.192  -0.403  0.00  0.00    +0.000 A 
ATOM     34  C   UNL     1     -10.845   4.398  -0.795  0.00  0.00    +0.000 A 
ATOM     35  C   UNL     1     -10.265   5.113  -1.822  0.00  0.00    +0.004 A 
ATOM     36  N   UNL     1      -7.507   1.403  -2.898  0.00  0.00    -0.281 N 
ATOM     37  C   UNL     1      -6.529   0.830  -2.172  0.00  0.00    +0.310 C 
ATOM     38  O   UNL     1      -6.361  -0.371  -2.092  0.00  0.00    -0.252 OA
ATOM     39  H   UNL     1      -8.177   0.947  -3.430  0.00  0.00    +0.152 HD
ENDBRANCH  22  23
ENDBRANCH   2  22
TORSDOF 6
