REMARK  Name = ZINC39672231
REMARK  8 active torsions:
REMARK  status: ('A' for Active; 'I' for Inactive)
REMARK    1  A    between atoms: C_1  and  N_2
REMARK    2  A    between atoms: C_10  and  C_12
REMARK    3  A    between atoms: C_12  and  N_13
REMARK    4  A    between atoms: C_14  and  C_16
REMARK    5  A    between atoms: C_27  and  C_29
REMARK    6  A    between atoms: C_33  and  N_35
REMARK    7  A    between atoms: N_35  and  C_36
REMARK    8  A    between atoms: N_35  and  C_37
REMARK                            x       y       z     vdW  Elec       q    Type
REMARK                         _______ _______ _______ _____ _____    ______ ____
ROOT
ATOM      1  C   UNL     1       7.137  -3.744   2.487  0.00  0.00    +0.100 C 
ATOM      2  C   UNL     1       6.284  -4.658   3.395  0.00  0.00    +0.121 C 
ATOM      3  N   UNL     1       6.909  -5.996   3.273  0.00  0.00    -0.296 N 
ATOM      4  C   UNL     1       8.366  -5.721   3.246  0.00  0.00    +0.115 C 
ATOM      5  C   UNL     1       8.503  -4.443   2.395  0.00  0.00    -0.004 C 
ATOM      6  C   UNL     1       9.596  -3.544   2.965  0.00  0.00    -0.010 C 
ATOM      7  C   UNL     1      10.953  -4.236   2.809  0.00  0.00    -0.082 C 
ATOM      8  N   UNL     1      11.206  -4.508   1.389  0.00  0.00    +0.379 N 
ATOM      9  C   UNL     1      10.203  -5.447   0.873  0.00  0.00    -0.082 C 
ATOM     10  C   UNL     1       8.815  -4.806   0.946  0.00  0.00    -0.010 C 
ATOM     11  C   UNL     1       6.293  -7.193   3.202  0.00  0.00    +0.247 C 
ATOM     12  O   UNL     1       5.081  -7.249   3.128  0.00  0.00    -0.270 OA
ATOM     13  H   UNL     1      11.156  -3.645   0.869  0.00  0.00    -0.086 HD
ATOM     14  H   UNL     1      12.126  -4.908   1.283  0.00  0.00    -0.086 HD
ENDROOT
BRANCH  11  15
ATOM     15  C   UNL     1       7.091  -8.437   3.215  0.00  0.00    +0.039 A 
ATOM     16  C   UNL     1       8.359  -8.450   3.799  0.00  0.00    +0.013 A 
ATOM     17  C   UNL     1       9.102  -9.613   3.810  0.00  0.00    +0.003 A 
ATOM     18  C   UNL     1       8.596 -10.767   3.243  0.00  0.00    +0.023 A 
ATOM     19  C   UNL     1       7.335 -10.765   2.659  0.00  0.00    +0.030 A 
ATOM     20  C   UNL     1       6.577  -9.604   2.649  0.00  0.00    +0.036 A 
BRANCH  19  21
ATOM     21  N   UNL     1       6.828 -11.935   2.088  0.00  0.00    -0.336 N 
ATOM     22  C   UNL     1       7.575 -13.190   2.203  0.00  0.00    +0.129 C 
ATOM     23  C   UNL     1       5.549 -11.906   1.373  0.00  0.00    +0.129 C 
ENDBRANCH  19  21
ENDBRANCH  11  15
BRANCH   1  25
ATOM     24  N   UNL     1       6.828  -2.596   0.318  0.00  0.00    -0.311 N 
ATOM     25  C   UNL     1       6.512  -3.632   1.120  0.00  0.00    +0.218 C 
ATOM     26  O   UNL     1       5.724  -4.473   0.742  0.00  0.00    -0.275 OA
ATOM     27  H   UNL     1       7.458  -1.923   0.620  0.00  0.00    +0.149 HD
BRANCH  24  28
ATOM     28  C   UNL     1       6.221  -2.487  -1.011  0.00  0.00    +0.139 C 
BRANCH  28  38
ATOM     29  C   UNL     1       9.530   2.161  -4.178  0.00  0.00    +0.129 C 
ATOM     30  N   UNL     1       8.183   2.162  -3.602  0.00  0.00    -0.333 N 
ATOM     31  C   UNL     1       7.331   3.356  -3.696  0.00  0.00    +0.105 C 
ATOM     32  C   UNL     1       6.686   3.581  -2.322  0.00  0.00    +0.024 C 
ATOM     33  C   UNL     1       5.787   2.388  -1.997  0.00  0.00    +0.038 C 
ATOM     34  C   UNL     1       6.542   1.096  -2.173  0.00  0.00    -0.026 A 
ATOM     35  C   UNL     1       7.684   1.024  -2.958  0.00  0.00    +0.033 A 
ATOM     36  C   UNL     1       8.351  -0.186  -3.109  0.00  0.00    +0.024 A 
ATOM     37  C   UNL     1       7.877  -1.320  -2.479  0.00  0.00    +0.007 A 
ATOM     38  C   UNL     1       6.738  -1.250  -1.699  0.00  0.00    -0.030 A 
ATOM     39  C   UNL     1       6.076  -0.043  -1.539  0.00  0.00    +0.010 A 
ENDBRANCH  28  38
ENDBRANCH  24  28
ENDBRANCH   1  25
TORSDOF 5
