REMARK  Name = ZINC12309663
REMARK  11 active torsions:
REMARK  status: ('A' for Active; 'I' for Inactive)
REMARK    1  A    between atoms: C_1  and  C_2
REMARK    2  A    between atoms: C_2  and  C_3
REMARK    3  A    between atoms: C_3  and  C_4
REMARK    4  A    between atoms: C_10  and  N_11
REMARK    5  A    between atoms: N_11  and  O_12
REMARK    6  A    between atoms: O_12  and  C_13
REMARK    7  A    between atoms: C_13  and  C_14
REMARK    8  A    between atoms: N_16  and  C_17
REMARK    9  A    between atoms: C_20  and  C_23
REMARK   10  A    between atoms: N_28  and  C_33
REMARK   11  A    between atoms: N_31  and  C_32
REMARK                            x       y       z     vdW  Elec       q    Type
REMARK                         _______ _______ _______ _____ _____    ______ ____
ROOT
ATOM      1  N   UNL     1      -0.950   6.369   0.622  0.00  0.00    -0.264 N 
ATOM      2  H   UNL     1      -1.115   7.320   0.094  0.00  0.00    +0.194 HD
ENDROOT
BRANCH   1   9
ATOM      3  C   UNL     1       1.451   6.516   0.224  0.00  0.00    -0.005 A 
ATOM      4  C   UNL     1       2.634   5.908   0.407  0.00  0.00    +0.090 A 
ATOM      5  N   UNL     1       2.722   4.629   0.888  0.00  0.00    -0.347 N 
ATOM      6  H   UNL     1       3.688   4.241   1.245  0.00  0.00    +0.167 HD
ATOM      7  C   UNL     1       1.644   3.802   0.944  0.00  0.00    +0.129 A 
ATOM      8  C   UNL     1       0.363   4.323   0.785  0.00  0.00    +0.106 A 
ATOM      9  C   UNL     1       0.218   5.771   0.548  0.00  0.00    +0.082 A 
ATOM     10  C   UNL     1      -0.754   3.458   0.853  0.00  0.00    +0.268 A 
ATOM     11  O   UNL     1      -1.884   3.892   0.721  0.00  0.00    -0.267 OA
ATOM     12  N   UNL     1      -0.542   2.140   1.063  0.00  0.00    -0.263 N 
ATOM     13  C   UNL     1       0.703   1.659   1.216  0.00  0.00    +0.333 A 
ATOM     14  O   UNL     1       0.856   0.468   1.406  0.00  0.00    -0.246 OA
ATOM     15  N   UNL     1       1.787   2.455   1.158  0.00  0.00    -0.282 N 
ATOM     16  C   UNL     1       3.124   1.881   1.326  0.00  0.00    +0.155 C 
ATOM     17  C   UNL     1      -1.685   1.226   1.131  0.00  0.00    +0.157 C 
BRANCH   3  18
ATOM     18  C   UNL     1       1.384   7.927  -0.301  0.00  0.00    +0.038 C 
BRANCH  18  20
ATOM     19  C   UNL     1       2.564  10.127  -0.396  0.00  0.00    +0.004 C 
ATOM     20  C   UNL     1       2.633   8.694   0.137  0.00  0.00    +0.001 C 
ENDBRANCH  18  20
ENDBRANCH   3  18
ENDBRANCH   1   9
BRANCH   1  21
ATOM     21  O   UNL     1      -1.995   5.789   1.381  0.00  0.00    -0.265 OA
BRANCH  21  22
ATOM     22  C   UNL     1      -3.208   6.546   1.373  0.00  0.00    +0.288 C 
BRANCH  22  23
ATOM     23  C   UNL     1      -4.245   5.840   2.208  0.00  0.00    +0.246 C 
ATOM     24  O   UNL     1      -3.974   4.792   2.755  0.00  0.00    -0.273 OA
ATOM     25  N   UNL     1      -5.476   6.373   2.345  0.00  0.00    -0.284 N 
ATOM     26  H   UNL     1      -5.746   7.282   1.789  0.00  0.00    +0.155 HD
BRANCH  25  27
ATOM     27  C   UNL     1      -6.405   5.771   3.193  0.00  0.00    +0.033 A 
ATOM     28  C   UNL     1      -6.446   4.385   3.306  0.00  0.00    +0.024 A 
ATOM     29  C   UNL     1      -7.359   3.788   4.146  0.00  0.00    +0.015 A 
ATOM     30  C   UNL     1      -8.253   4.575   4.877  0.00  0.00    +0.037 A 
ATOM     31  C   UNL     1      -8.213   5.967   4.757  0.00  0.00    +0.015 A 
ATOM     32  C   UNL     1      -7.293   6.558   3.919  0.00  0.00    +0.024 A 
BRANCH  30  33
ATOM     33  C   UNL     1      -9.237   3.938   5.774  0.00  0.00    +0.242 C 
ATOM     34  O   UNL     1     -10.013   4.624   6.409  0.00  0.00    -0.270 OA
ATOM     35  N   UNL     1      -9.274   2.596   5.888  0.00  0.00    -0.325 N 
ATOM     36  H   UNL     1     -10.007   2.121   6.557  0.00  0.00    +0.145 HD
ATOM     37  H   UNL     1      -8.571   1.975   5.313  0.00  0.00    +0.145 HD
ENDBRANCH  30  33
ENDBRANCH  25  27
ENDBRANCH  22  23
ENDBRANCH  21  22
ENDBRANCH   1  21
TORSDOF 8
