REMARK  Name = ZINC20891428
REMARK  6 active torsions:
REMARK  status: ('A' for Active; 'I' for Inactive)
REMARK    1  A    between atoms: C_1  and  C_2
REMARK    2  A    between atoms: C_4  and  C_35
REMARK    3  A    between atoms: C_11  and  C_13
REMARK    4  A    between atoms: C_20  and  C_27
REMARK    5  A    between atoms: C_30  and  O_33
REMARK    6  A    between atoms: O_33  and  C_34
REMARK                            x       y       z     vdW  Elec       q    Type
REMARK                         _______ _______ _______ _____ _____    ______ ____
ROOT
ATOM      1  C   UNL     1       2.578  10.354   4.254  0.00  0.00    +0.066 C 
ATOM      2  C   UNL     1       1.554  10.452   3.152  0.00  0.00    +0.044 A 
ATOM      3  C   UNL     1       1.045  11.684   2.774  0.00  0.00    +0.046 A 
ATOM      4  C   UNL     1       0.106  11.728   1.755  0.00  0.00    +0.044 A 
ATOM      5  N   UNL     1      -0.273  10.600   1.179  0.00  0.00    -0.216 NA
ATOM      6  C   UNL     1       0.233   9.439   1.564  0.00  0.00    +0.253 A 
ATOM      7  N   UNL     1       1.128   9.361   2.537  0.00  0.00    -0.216 NA
ATOM      8  N   UNL     1      -0.190   8.270   0.935  0.00  0.00    -0.183 N 
ATOM      9  C   UNL     1      -1.022   8.201  -0.165  0.00  0.00    +0.137 A 
ATOM     10  C   UNL     1      -1.181   6.896  -0.461  0.00  0.00    +0.038 A 
ATOM     11  C   UNL     1      -0.435   6.142   0.485  0.00  0.00    +0.100 A 
ATOM     12  N   UNL     1       0.154   6.972   1.309  0.00  0.00    -0.162 NA
ATOM     13  C   UNL     1      -1.974   6.241  -1.549  0.00  0.00    +0.112 C 
ATOM     14  S   UNL     1      -3.480   7.125  -1.961  0.00  0.00    -0.138 S 
ATOM     15  C   UNL     1      -2.957   8.674  -2.710  0.00  0.00    +0.166 C 
ATOM     16  C   UNL     1      -2.314   9.591  -1.745  0.00  0.00    +0.228 C 
ATOM     17  O   UNL     1      -2.584  10.764  -1.898  0.00  0.00    -0.275 OA
ATOM     18  N   UNL     1      -1.511   9.341  -0.756  0.00  0.00    -0.269 N 
ATOM     19  C   UNL     1      -0.475  13.045   1.310  0.00  0.00    +0.066 C 
ATOM     20  H   UNL     1      -1.213  10.329  -0.375  0.00  0.00    +0.156 HD
ENDROOT
BRANCH  11  21
ATOM     21  C   UNL     1      -0.334   4.662   0.528  0.00  0.00    +0.003 A 
ATOM     22  C   UNL     1      -0.668   3.972   1.691  0.00  0.00    +0.011 A 
ATOM     23  C   UNL     1      -0.573   2.596   1.726  0.00  0.00    +0.020 A 
ATOM     24  C   UNL     1      -0.147   1.900   0.607  0.00  0.00    +0.041 A 
ATOM     25  C   UNL     1       0.191   2.582  -0.550  0.00  0.00    +0.020 A 
ATOM     26  C   UNL     1       0.094   3.958  -0.596  0.00  0.00    +0.011 A 
ATOM     27 CL   UNL     1      -0.030   0.169   0.657  0.00  0.00    -0.084 Cl
ENDBRANCH  11  21
BRANCH  13  28
ATOM     28  C   UNL     1      -2.337   4.846  -1.110  0.00  0.00    -0.030 A 
ATOM     29  C   UNL     1      -2.948   4.644   0.114  0.00  0.00    +0.008 A 
ATOM     30  C   UNL     1      -3.287   3.367   0.516  0.00  0.00    +0.046 A 
ATOM     31  C   UNL     1      -3.003   2.284  -0.305  0.00  0.00    +0.120 A 
ATOM     32  C   UNL     1      -2.385   2.489  -1.530  0.00  0.00    +0.046 A 
ATOM     33  C   UNL     1      -2.054   3.769  -1.930  0.00  0.00    +0.008 A 
BRANCH  31  34
ATOM     34  O   UNL     1      -3.329   1.026   0.091  0.00  0.00    -0.495 OA
ATOM     35  C   UNL     1      -3.964   0.891   1.365  0.00  0.00    +0.277 C 
ENDBRANCH  31  34
ENDBRANCH  13  28
TORSDOF 3
