REMARK  Name = ZINC14544153
REMARK  8 active torsions:
REMARK  status: ('A' for Active; 'I' for Inactive)
REMARK    1  A    between atoms: C_1  and  C_2
REMARK    2  A    between atoms: C_4  and  C_40
REMARK    3  A    between atoms: C_6  and  N_8
REMARK    4  A    between atoms: N_8  and  S_9
REMARK    5  A    between atoms: S_9  and  C_12
REMARK    6  A    between atoms: C_25  and  C_28
REMARK    7  A    between atoms: C_37  and  O_38
REMARK    8  A    between atoms: O_38  and  C_39
REMARK                            x       y       z     vdW  Elec       q    Type
REMARK                         _______ _______ _______ _____ _____    ______ ____
ROOT
ATOM      1  C   UNL     1      -2.279   3.236  -1.464  0.00  0.00    +0.109 A 
ATOM      2  C   UNL     1      -3.273   2.308  -1.211  0.00  0.00    +0.030 A 
ATOM      3  C   UNL     1      -3.406   1.761   0.049  0.00  0.00    +0.025 A 
ATOM      4  C   UNL     1      -2.543   2.137   1.071  0.00  0.00    +0.031 A 
ATOM      5  C   UNL     1      -1.530   3.064   0.804  0.00  0.00    -0.018 A 
ATOM      6  C   UNL     1      -1.411   3.611  -0.456  0.00  0.00    +0.034 A 
ATOM      7  C   UNL     1      -0.603   3.399   1.906  0.00  0.00    +0.049 C 
ATOM      8  C   UNL     1       0.099   4.706   1.976  0.00  0.00    -0.023 C 
ATOM      9  C   UNL     1       0.288   5.017   3.252  0.00  0.00    -0.030 C 
ATOM     10  C   UNL     1      -0.316   3.935   4.150  0.00  0.00    +0.033 C 
ATOM     11  C   UNL     1      -1.411   3.379   3.241  0.00  0.00    +0.029 C 
ATOM     12  C   UNL     1      -1.794   1.926   3.457  0.00  0.00    +0.109 C 
ATOM     13  N   UNL     1      -2.708   1.581   2.346  0.00  0.00    -0.336 N 
ATOM     14  H   UNL     1      -3.434   0.958   2.503  0.00  0.00    +0.147 HD
ENDROOT
BRANCH  12  15
ATOM     15  C   UNL     1      -0.567   1.052   3.411  0.00  0.00    +0.022 A 
ATOM     16  C   UNL     1       0.237   0.903   4.553  0.00  0.00    -0.009 A 
ATOM     17  C   UNL     1      -0.078   1.557   5.757  0.00  0.00    +0.009 A 
ATOM     18  C   UNL     1       0.723   1.389   6.844  0.00  0.00    +0.001 A 
ATOM     19  C   UNL     1       1.855   0.578   6.783  0.00  0.00    +0.001 A 
ATOM     20  C   UNL     1       2.191  -0.070   5.635  0.00  0.00    +0.008 A 
ATOM     21  C   UNL     1       1.388   0.078   4.491  0.00  0.00    -0.017 A 
ATOM     22  C   UNL     1       1.705  -0.577   3.288  0.00  0.00    +0.012 A 
ATOM     23  C   UNL     1       0.903  -0.417   2.202  0.00  0.00    +0.046 A 
ATOM     24  C   UNL     1      -0.229   0.401   2.258  0.00  0.00    +0.126 A 
BRANCH  24  25
ATOM     25  O   UNL     1      -1.008   0.546   1.154  0.00  0.00    -0.495 OA
ATOM     26  C   UNL     1      -0.604  -0.159  -0.021  0.00  0.00    +0.277 C 
ENDBRANCH  24  25
ENDBRANCH  12  15
BRANCH   1  27
ATOM     27  S   UNL     1      -2.119   3.939  -3.072  0.00  0.00    +0.072 S 
ATOM     28  O   UNL     1      -3.419   3.942  -3.645  0.00  0.00    -0.150 OA
ATOM     29  O   UNL     1      -1.350   5.124  -2.922  0.00  0.00    -0.150 OA
BRANCH  27  30
ATOM     30  N   UNL     1      -1.206   2.893  -3.975  0.00  0.00    -0.216 N 
ATOM     31  H   UNL     1      -0.328   3.163  -4.289  0.00  0.00    +0.174 HD
BRANCH  30  37
ATOM     32  C   UNL     1      -4.243   0.060  -6.602  0.00  0.00    +0.044 C 
ATOM     33  C   UNL     1      -3.172   0.220  -5.554  0.00  0.00    -0.048 A 
ATOM     34  C   UNL     1      -2.677  -0.891  -4.897  0.00  0.00    +0.006 A 
ATOM     35  C   UNL     1      -1.694  -0.749  -3.934  0.00  0.00    -0.048 A 
ATOM     36  C   UNL     1      -1.204   0.505  -3.626  0.00  0.00    +0.028 A 
ATOM     37  C   UNL     1      -1.699   1.624  -4.284  0.00  0.00    +0.049 A 
ATOM     38  C   UNL     1      -2.690   1.477  -5.247  0.00  0.00    +0.028 A 
ATOM     39  C   UNL     1      -1.158  -1.963  -3.220  0.00  0.00    +0.044 C 
ENDBRANCH  30  37
ENDBRANCH  27  30
ENDBRANCH   1  27
TORSDOF 5
