REMARK  Name = ZINC17046173
REMARK  13 active torsions:
REMARK  status: ('A' for Active; 'I' for Inactive)
REMARK    1  A    between atoms: C_1  and  C_2
REMARK    2  A    between atoms: C_2  and  N_63
REMARK    3  A    between atoms: C_3  and  C_4
REMARK    4  A    between atoms: C_3  and  N_63
REMARK    5  A    between atoms: C_5  and  C_6
REMARK    6  A    between atoms: C_5  and  N_63
REMARK    7  A    between atoms: C_6  and  C_7
REMARK    8  A    between atoms: C_7  and  C_8
REMARK    9  A    between atoms: C_8  and  C_10
REMARK   10  A    between atoms: C_8  and  N_11
REMARK   11  A    between atoms: N_11  and  C_12
REMARK   12  A    between atoms: C_22  and  O_31
REMARK   13  A    between atoms: C_29  and  O_30
REMARK                            x       y       z     vdW  Elec       q    Type
REMARK                         _______ _______ _______ _____ _____    ______ ____
ROOT
ATOM      1  C   UNL     1       1.956  -0.092   3.218  0.00  0.00    +0.039 A 
ATOM      2  C   UNL     1       3.123   0.568   3.595  0.00  0.00    +0.024 A 
ATOM      3  C   UNL     1       4.150  -0.123   4.205  0.00  0.00    +0.003 A 
ATOM      4  C   UNL     1       4.041  -1.484   4.441  0.00  0.00    +0.012 A 
ATOM      5  C   UNL     1       2.887  -2.167   4.068  0.00  0.00    +0.035 A 
ATOM      6  C   UNL     1       1.832  -1.468   3.450  0.00  0.00    +0.054 A 
ATOM      7  C   UNL     1       0.605  -2.179   3.049  0.00  0.00    +0.200 C 
ATOM      8  O   UNL     1      -0.399  -1.556   2.753  0.00  0.00    -0.286 OA
ATOM      9  C   UNL     1       0.606  -3.648   3.011  0.00  0.00    +0.079 A 
ATOM     10  C   UNL     1       1.703  -4.378   3.655  0.00  0.00    +0.079 A 
ATOM     11  C   UNL     1       1.721  -5.765   3.629  0.00  0.00    +0.136 A 
ATOM     12  C   UNL     1       0.677  -6.468   2.977  0.00  0.00    +0.028 A 
ATOM     13  C   UNL     1       0.685  -7.870   2.941  0.00  0.00    +0.012 A 
ATOM     14  C   UNL     1      -0.323  -8.539   2.310  0.00  0.00    +0.001 A 
ATOM     15  C   UNL     1      -1.363  -7.847   1.699  0.00  0.00    +0.001 A 
ATOM     16  C   UNL     1      -1.401  -6.483   1.716  0.00  0.00    +0.012 A 
ATOM     17  C   UNL     1      -0.380  -5.765   2.356  0.00  0.00    +0.028 A 
ATOM     18  C   UNL     1      -0.410  -4.348   2.377  0.00  0.00    +0.136 A 
ATOM     19  C   UNL     1       2.772  -3.619   4.320  0.00  0.00    +0.198 C 
ATOM     20  O   UNL     1       3.551  -4.179   5.068  0.00  0.00    -0.286 OA
ENDROOT
BRANCH   1  21
ATOM     21  N   UNL     1       0.924   0.608   2.611  0.00  0.00    -0.341 N 
ATOM     22  H   UNL     1       0.084   0.163   2.417  0.00  0.00    +0.146 HD
BRANCH  21  23
ATOM     23  C   UNL     1       1.102   2.020   2.262  0.00  0.00    +0.067 C 
ATOM     24  C   UNL     1       0.781   2.890   3.478  0.00  0.00    +0.028 C 
BRANCH  23  25
ATOM     25  C   UNL     1       0.162   2.384   1.111  0.00  0.00    +0.020 C 
BRANCH  25  26
ATOM     26  C   UNL     1       0.563   1.603  -0.142  0.00  0.00    -0.017 C 
BRANCH  26  27
ATOM     27  C   UNL     1      -0.377   1.967  -1.293  0.00  0.00    -0.079 C 
BRANCH  27  28
ATOM     28  N   UNL     1       0.036   1.222  -2.500  0.00  0.00    +0.379 N 
ATOM     29  H   UNL     1       1.040   1.373  -2.658  0.00  0.00    -0.082 HD
BRANCH  28  31
ATOM     30  C   UNL     1      -1.692  -0.486  -2.048  0.00  0.00    -0.017 C 
ATOM     31  C   UNL     1      -0.208  -0.223  -2.310  0.00  0.00    -0.082 C 
ENDBRANCH  28  31
BRANCH  28  32
ATOM     32  C   UNL     1      -0.714   1.711  -3.677  0.00  0.00    -0.082 C 
ATOM     33  C   UNL     1      -0.026   1.200  -4.944  0.00  0.00    -0.017 C 
ENDBRANCH  28  32
ENDBRANCH  27  28
ENDBRANCH  26  27
ENDBRANCH  25  26
ENDBRANCH  23  25
ENDBRANCH  21  23
ENDBRANCH   1  21
BRANCH  18  34
ATOM     34  O   UNL     1      -1.427  -3.680   1.783  0.00  0.00    -0.505 OA
ATOM     35  H   UNL     1      -1.266  -3.465   0.854  0.00  0.00    +0.292 HD
ENDBRANCH  18  34
BRANCH  11  36
ATOM     36  O   UNL     1       2.730  -6.444   4.223  0.00  0.00    -0.505 OA
ATOM     37  H   UNL     1       3.481  -6.621   3.641  0.00  0.00    +0.292 HD
ENDBRANCH  11  36
TORSDOF 10
