REMARK  Name = ZINC02636790
REMARK  15 active torsions:
REMARK  status: ('A' for Active; 'I' for Inactive)
REMARK    1  A    between atoms: C_1  and  C_2
REMARK    2  A    between atoms: C_2  and  C_3
REMARK    3  A    between atoms: C_2  and  C_4
REMARK    4  A    between atoms: C_2  and  C_5
REMARK    5  A    between atoms: C_5  and  C_6
REMARK    6  A    between atoms: C_6  and  C_7
REMARK    7  A    between atoms: C_6  and  C_8
REMARK    8  A    between atoms: C_6  and  N_9
REMARK    9  A    between atoms: N_9  and  C_10
REMARK   10  A    between atoms: C_10  and  N_12
REMARK   11  A    between atoms: N_12  and  N_13
REMARK   12  A    between atoms: C_14  and  C_16
REMARK   13  A    between atoms: C_21  and  N_22
REMARK   14  A    between atoms: N_22  and  S_23
REMARK   15  A    between atoms: S_23  and  C_26
REMARK                            x       y       z     vdW  Elec       q    Type
REMARK                         _______ _______ _______ _____ _____    ______ ____
ROOT
ATOM      1  N   UNL     1       0.198   1.802  -0.062  0.00  0.00    -0.231 N 
ATOM      2  C   UNL     1      -0.877   2.502   0.352  0.00  0.00    +0.262 C 
ATOM      3  O   UNL     1      -0.883   3.715   0.267  0.00  0.00    -0.269 OA
ATOM      4  H   UNL     1       0.202   0.835   0.006  0.00  0.00    +0.173 HD
ENDROOT
BRANCH   2   5
ATOM      5  C   UNL     1      -2.045   1.796   0.910  0.00  0.00    +0.060 A 
ATOM      6  C   UNL     1      -2.043   0.403   1.011  0.00  0.00    +0.015 A 
ATOM      7  C   UNL     1      -3.138  -0.250   1.532  0.00  0.00    +0.001 A 
ATOM      8  C   UNL     1      -4.244   0.468   1.959  0.00  0.00    +0.002 A 
ATOM      9  C   UNL     1      -4.262   1.844   1.867  0.00  0.00    +0.025 A 
ATOM     10  C   UNL     1      -3.164   2.521   1.348  0.00  0.00    +0.060 A 
BRANCH  10  11
ATOM     11  N   UNL     1      -3.178   3.907   1.259  0.00  0.00    -0.215 N 
ATOM     12  H   UNL     1      -2.768   4.348   0.499  0.00  0.00    +0.174 HD
BRANCH  11  13
ATOM     13  S   UNL     1      -3.892   4.807   2.452  0.00  0.00    +0.079 S 
ATOM     14  O   UNL     1      -3.542   6.161   2.204  0.00  0.00    -0.149 OA
ATOM     15  O   UNL     1      -5.242   4.372   2.535  0.00  0.00    -0.149 OA
BRANCH  13  16
ATOM     16  C   UNL     1      -3.124   4.359   3.973  0.00  0.00    +0.146 A 
ATOM     17  C   UNL     1      -2.033   4.899   4.570  0.00  0.00    +0.036 A 
ATOM     18  C   UNL     1      -1.604   4.380   5.778  0.00  0.00    +0.010 A 
ATOM     19  C   UNL     1      -2.287   3.348   6.329  0.00  0.00    +0.047 A 
ATOM     20  S   UNL     1      -3.585   3.082   5.133  0.00  0.00    -0.077 S 
ENDBRANCH  13  16
ENDBRANCH  11  13
ENDBRANCH  10  11
ENDBRANCH   2   5
BRANCH   1  21
ATOM     21  N   UNL     1       1.306   2.472  -0.597  0.00  0.00    -0.246 N 
ATOM     22  H   UNL     1       1.301   3.439  -0.666  0.00  0.00    +0.172 HD
BRANCH  21  23
ATOM     23  C   UNL     1       2.378   1.772  -1.017  0.00  0.00    +0.147 C 
ATOM     24  S   UNL     1       3.732   2.590  -1.671  0.00  0.00    -0.017 S 
BRANCH  23  25
ATOM     25  N   UNL     1       2.385   0.427  -0.922  0.00  0.00    -0.320 N 
ATOM     26  H   UNL     1       1.637  -0.033  -0.511  0.00  0.00    +0.148 HD
BRANCH  25  27
ATOM     27  C   UNL     1       3.522  -0.338  -1.440  0.00  0.00    +0.029 C 
ATOM     28  C   UNL     1       3.704  -0.036  -2.929  0.00  0.00    +0.031 C 
ATOM     29  C   UNL     1       4.790   0.056  -0.680  0.00  0.00    +0.031 C 
BRANCH  27  30
ATOM     30  C   UNL     1       3.258  -1.833  -1.252  0.00  0.00    +0.031 C 
BRANCH  30  32
ATOM     31  C   UNL     1       5.492  -2.582  -0.421  0.00  0.00    +0.010 C 
ATOM     32  C   UNL     1       4.521  -2.622  -1.603  0.00  0.00    -0.036 C 
ATOM     33  C   UNL     1       4.147  -4.074  -1.907  0.00  0.00    +0.010 C 
ATOM     34  C   UNL     1       5.186  -1.999  -2.831  0.00  0.00    +0.010 C 
ENDBRANCH  30  32
ENDBRANCH  27  30
ENDBRANCH  25  27
ENDBRANCH  23  25
ENDBRANCH  21  23
ENDBRANCH   1  21
TORSDOF 10
