REMARK  Name = ZINC39666845
REMARK  10 active torsions:
REMARK  status: ('A' for Active; 'I' for Inactive)
REMARK    1  A    between atoms: C_1  and  C_2
REMARK    2  A    between atoms: C_2  and  C_3
REMARK    3  A    between atoms: C_3  and  C_4
REMARK    4  A    between atoms: C_3  and  C_6
REMARK    5  A    between atoms: C_4  and  C_5
REMARK    6  A    between atoms: C_6  and  N_7
REMARK    7  A    between atoms: C_8  and  C_10
REMARK    8  A    between atoms: C_21  and  C_23
REMARK    9  A    between atoms: C_28  and  O_29
REMARK   10  A    between atoms: O_29  and  C_30
REMARK                            x       y       z     vdW  Elec       q    Type
REMARK                         _______ _______ _______ _____ _____    ______ ____
ROOT
ATOM      1  C   UNL     1      -3.083  -4.132  -2.794  0.00  0.00    +0.100 C 
ATOM      2  C   UNL     1      -3.794  -3.745  -1.478  0.00  0.00    +0.121 C 
ATOM      3  N   UNL     1      -4.623  -4.925  -1.139  0.00  0.00    -0.296 N 
ATOM      4  C   UNL     1      -3.772  -6.087  -1.491  0.00  0.00    +0.115 C 
ATOM      5  C   UNL     1      -3.070  -5.670  -2.798  0.00  0.00    -0.004 C 
ATOM      6  C   UNL     1      -1.634  -6.186  -2.813  0.00  0.00    -0.010 C 
ATOM      7  C   UNL     1      -1.647  -7.715  -2.876  0.00  0.00    -0.082 C 
ATOM      8  N   UNL     1      -2.357  -8.151  -4.085  0.00  0.00    +0.379 N 
ATOM      9  C   UNL     1      -3.762  -7.731  -4.019  0.00  0.00    -0.082 C 
ATOM     10  C   UNL     1      -3.839  -6.201  -4.004  0.00  0.00    -0.010 C 
ATOM     11  C   UNL     1      -5.870  -4.940  -0.628  0.00  0.00    +0.252 C 
ATOM     12  O   UNL     1      -6.385  -5.995  -0.310  0.00  0.00    -0.270 OA
ATOM     13  H   UNL     1      -1.922  -7.739  -4.896  0.00  0.00    -0.086 HD
ATOM     14  H   UNL     1      -2.311  -9.157  -4.156  0.00  0.00    -0.086 HD
ENDROOT
BRANCH  11  15
ATOM     15  C   UNL     1      -6.611  -3.676  -0.454  0.00  0.00    +0.099 A 
ATOM     16  C   UNL     1      -5.944  -2.507  -0.068  0.00  0.00    +0.020 A 
ATOM     17  C   UNL     1      -6.684  -1.347   0.081  0.00  0.00    +0.021 A 
ATOM     18  C   UNL     1      -8.048  -1.376  -0.152  0.00  0.00    +0.114 A 
ATOM     19  N   UNL     1      -8.656  -2.488  -0.514  0.00  0.00    -0.220 NA
ATOM     20  C   UNL     1      -7.995  -3.622  -0.677  0.00  0.00    +0.233 A 
BRANCH  20  21
ATOM     21  O   UNL     1      -8.659  -4.740  -1.055  0.00  0.00    -0.437 OA
BRANCH  21  22
ATOM     22  C   UNL     1      -9.977  -4.625  -1.366  0.00  0.00    +0.130 A 
ATOM     23  C   UNL     1     -10.358  -4.069  -2.579  0.00  0.00    +0.048 A 
ATOM     24  C   UNL     1     -11.698  -3.952  -2.894  0.00  0.00    +0.023 A 
ATOM     25  C   UNL     1     -12.660  -4.389  -2.000  0.00  0.00    +0.041 A 
ATOM     26  C   UNL     1     -12.282  -4.944  -0.790  0.00  0.00    +0.023 A 
ATOM     27  C   UNL     1     -10.943  -5.067  -0.474  0.00  0.00    +0.048 A 
ATOM     28 CL   UNL     1     -14.344  -4.242  -2.398  0.00  0.00    -0.084 Cl
ENDBRANCH  21  22
ENDBRANCH  20  21
ENDBRANCH  11  15
BRANCH   1  30
ATOM     29  N   UNL     1      -1.090  -3.267  -3.976  0.00  0.00    -0.315 N 
ATOM     30  C   UNL     1      -1.675  -3.595  -2.807  0.00  0.00    +0.218 C 
ATOM     31  O   UNL     1      -1.069  -3.457  -1.766  0.00  0.00    -0.275 OA
ATOM     32  H   UNL     1      -1.575  -3.377  -4.809  0.00  0.00    +0.149 HD
BRANCH  29  33
ATOM     33  C   UNL     1       0.279  -2.745  -3.989  0.00  0.00    +0.107 C 
BRANCH  33  34
ATOM     34  C   UNL     1       0.701  -2.455  -5.431  0.00  0.00    +0.006 C 
BRANCH  34  36
ATOM     35  C   UNL     1       0.159  -1.136  -7.482  0.00  0.00    +0.004 C 
ATOM     36  C   UNL     1      -0.166  -1.331  -6.000  0.00  0.00    +0.002 C 
ENDBRANCH  34  36
BRANCH  34  37
ATOM     37  C   UNL     1       2.170  -2.029  -5.456  0.00  0.00    +0.002 C 
ATOM     38  C   UNL     1       3.049  -3.201  -5.015  0.00  0.00    +0.004 C 
ENDBRANCH  34  37
ENDBRANCH  33  34
ENDBRANCH  29  33
ENDBRANCH   1  30
TORSDOF 8
