REMARK  Name = ZINC14667654
REMARK  11 active torsions:
REMARK  status: ('A' for Active; 'I' for Inactive)
REMARK    1  A    between atoms: C_1  and  C_2
REMARK    2  A    between atoms: C_6  and  C_32
REMARK    3  A    between atoms: C_7  and  N_8
REMARK    4  A    between atoms: N_8  and  S_9
REMARK    5  A    between atoms: S_9  and  C_12
REMARK    6  A    between atoms: C_15  and  N_18
REMARK    7  A    between atoms: C_19  and  C_21
REMARK    8  A    between atoms: C_26  and  O_27
REMARK    9  A    between atoms: O_27  and  C_28
REMARK   10  A    between atoms: C_28  and  C_29
REMARK   11  A    between atoms: C_28  and  C_30
REMARK                            x       y       z     vdW  Elec       q    Type
REMARK                         _______ _______ _______ _____ _____    ______ ____
ROOT
ATOM      1  C   UNL     1       3.377   1.142  -1.348  0.00  0.00    +0.109 A 
ATOM      2  C   UNL     1       2.547   0.058  -1.564  0.00  0.00    +0.030 A 
ATOM      3  C   UNL     1       1.189   0.248  -1.727  0.00  0.00    +0.025 A 
ATOM      4  C   UNL     1       0.657   1.530  -1.673  0.00  0.00    +0.034 A 
ATOM      5  C   UNL     1       1.495   2.617  -1.457  0.00  0.00    +0.025 A 
ATOM      6  C   UNL     1       2.852   2.420  -1.295  0.00  0.00    +0.030 A 
ENDROOT
BRANCH   4   7
ATOM      7  N   UNL     1      -0.717   1.727  -1.844  0.00  0.00    -0.281 N 
ATOM      8  C   UNL     1      -1.351   2.691  -1.148  0.00  0.00    +0.252 C 
ATOM      9  O   UNL     1      -0.715   3.445  -0.436  0.00  0.00    -0.270 OA
ATOM     10  H   UNL     1      -1.214   1.169  -2.463  0.00  0.00    +0.155 HD
BRANCH   8  11
ATOM     11  C   UNL     1      -2.815   2.833  -1.250  0.00  0.00    +0.080 A 
ATOM     12  C   UNL     1      -3.549   1.973  -2.071  0.00  0.00    +0.032 A 
ATOM     13  C   UNL     1      -4.918   2.107  -2.158  0.00  0.00    +0.019 A 
ATOM     14  C   UNL     1      -5.570   3.099  -1.442  0.00  0.00    +0.019 A 
ATOM     15  C   UNL     1      -4.856   3.958  -0.630  0.00  0.00    +0.047 A 
ATOM     16  C   UNL     1      -3.478   3.834  -0.527  0.00  0.00    +0.133 A 
ATOM     17 BR   UNL     1      -5.911   0.938  -3.264  0.00  0.00    -0.050 Br
BRANCH  16  18
ATOM     18  O   UNL     1      -2.776   4.678   0.269  0.00  0.00    -0.489 OA
BRANCH  18  19
ATOM     19  C   UNL     1      -3.517   5.687   0.958  0.00  0.00    +0.167 C 
ATOM     20  C   UNL     1      -4.092   5.105   2.251  0.00  0.00    +0.051 C 
ATOM     21  C   UNL     1      -2.592   6.859   1.294  0.00  0.00    +0.051 C 
ENDBRANCH  18  19
ENDBRANCH  16  18
ENDBRANCH   8  11
ENDBRANCH   4   7
BRANCH   1  22
ATOM     22  S   UNL     1       5.110   0.894  -1.140  0.00  0.00    +0.072 S 
ATOM     23  O   UNL     1       5.575   1.953  -0.314  0.00  0.00    -0.150 OA
ATOM     24  O   UNL     1       5.287  -0.473  -0.798  0.00  0.00    -0.150 OA
BRANCH  22  25
ATOM     25  N   UNL     1       5.816   1.107  -2.623  0.00  0.00    -0.216 N 
ATOM     26  H   UNL     1       6.223   0.353  -3.079  0.00  0.00    +0.174 HD
BRANCH  25  33
ATOM     27  C   UNL     1       4.018   1.591  -4.774  0.00  0.00    +0.046 C 
ATOM     28  C   UNL     1       4.964   2.650  -4.271  0.00  0.00    -0.028 A 
ATOM     29  C   UNL     1       4.972   3.903  -4.854  0.00  0.00    +0.005 A 
ATOM     30  C   UNL     1       5.844   4.874  -4.396  0.00  0.00    +0.001 A 
ATOM     31  C   UNL     1       6.706   4.597  -3.352  0.00  0.00    +0.005 A 
ATOM     32  C   UNL     1       6.699   3.348  -2.761  0.00  0.00    -0.028 A 
ATOM     33  C   UNL     1       5.825   2.370  -3.218  0.00  0.00    +0.054 A 
ATOM     34  C   UNL     1       7.639   3.048  -1.622  0.00  0.00    +0.046 C 
ENDBRANCH  25  33
ENDBRANCH  22  25
ENDBRANCH   1  22
TORSDOF 7
