REMARK  Name = ZINC39252368
REMARK  6 active torsions:
REMARK  status: ('A' for Active; 'I' for Inactive)
REMARK    1  A    between atoms: C_6  and  C_11
REMARK    2  A    between atoms: C_11  and  C_12
REMARK    3  A    between atoms: C_12  and  N_13
REMARK    4  A    between atoms: C_15  and  C_20
REMARK    5  A    between atoms: N_22  and  C_23
REMARK    6  A    between atoms: C_27  and  C_30
REMARK                            x       y       z     vdW  Elec       q    Type
REMARK                         _______ _______ _______ _____ _____    ______ ____
ROOT
ATOM      1  N   UNL     1      -6.894  -0.309  -1.370  0.00  0.00    -0.300 N 
ATOM      2  C   UNL     1      -7.913  -1.361  -1.466  0.00  0.00    +0.121 C 
ATOM      3  C   UNL     1      -9.222  -0.633  -1.846  0.00  0.00    +0.101 C 
ATOM      4  C   UNL     1      -8.964   0.788  -1.294  0.00  0.00    +0.110 C 
ATOM      5  C   UNL     1      -7.456   0.907  -1.261  0.00  0.00    +0.216 C 
ATOM      6  O   UNL     1      -6.844   1.949  -1.155  0.00  0.00    -0.276 OA
ENDROOT
BRANCH   3   7
ATOM      7  C   UNL     1     -10.409  -1.268  -1.168  0.00  0.00    +0.220 C 
ATOM      8  O   UNL     1     -10.250  -2.224  -0.438  0.00  0.00    -0.275 OA
ATOM      9  N   UNL     1     -11.646  -0.775  -1.373  0.00  0.00    -0.290 N 
ATOM     10  H   UNL     1     -11.773  -0.011  -1.957  0.00  0.00    +0.151 HD
BRANCH   9  11
ATOM     11  C   UNL     1     -12.799  -1.393  -0.715  0.00  0.00    +0.217 C 
ATOM     12  N   UNL     1     -14.003  -0.536  -0.841  0.00  0.00    -0.226 NA
ATOM     13  N   UNL     1     -15.162  -1.170  -1.436  0.00  0.00    -0.233 NA
ATOM     14  C   UNL     1     -14.786  -2.190  -2.462  0.00  0.00    +0.234 C 
ATOM     15  S   UNL     1     -13.322  -2.924  -1.600  0.00  0.00    -0.093 S 
ATOM     16  H   UNL     1     -14.238  -0.109   0.042  0.00  0.00    +0.143 HD
ATOM     17  H   UNL     1     -15.757  -1.572  -0.727  0.00  0.00    +0.142 HD
BRANCH  14  18
ATOM     18  C   UNL     1     -15.897  -3.222  -2.663  0.00  0.00    +0.415 C 
ATOM     19  F   UNL     1     -17.062  -2.576  -3.088  0.00  0.00    -0.168 F 
ATOM     20  F   UNL     1     -15.500  -4.153  -3.629  0.00  0.00    -0.168 F 
ATOM     21  F   UNL     1     -16.144  -3.882  -1.454  0.00  0.00    -0.168 F 
ENDBRANCH  14  18
ENDBRANCH   9  11
ENDBRANCH   3   7
BRANCH   1  22
ATOM     22  C   UNL     1      -5.450  -0.554  -1.385  0.00  0.00    +0.112 C 
BRANCH  22  23
ATOM     23  C   UNL     1      -4.954  -0.771   0.046  0.00  0.00    +0.056 C 
BRANCH  23  29
ATOM     24  C   UNL     1      -0.017   1.373   0.010  0.00  0.00    +0.022 A 
ATOM     25  C   UNL     1       0.002  -0.004   0.002  0.00  0.00    +0.027 A 
ATOM     26  C   UNL     1      -1.196  -0.712   0.010  0.00  0.00    +0.047 A 
ATOM     27  N   UNL     1      -1.504  -2.054   0.005  0.00  0.00    -0.360 N 
ATOM     28  C   UNL     1      -2.862  -2.220   0.018  0.00  0.00    +0.087 A 
ATOM     29  C   UNL     1      -3.469  -1.022   0.030  0.00  0.00    -0.021 A 
ATOM     30  C   UNL     1      -2.413  -0.007   0.026  0.00  0.00    +0.004 A 
ATOM     31  C   UNL     1      -2.410   1.389   0.033  0.00  0.00    +0.030 A 
ATOM     32  C   UNL     1      -1.221   2.065   0.031  0.00  0.00    +0.042 A 
ATOM     33 CL   UNL     1      -1.217   3.801   0.040  0.00  0.00    -0.084 Cl
ATOM     34  H   UNL     1      -0.855  -2.775  -0.005  0.00  0.00    +0.165 HD
ENDBRANCH  23  29
ENDBRANCH  22  23
ENDBRANCH   1  22
TORSDOF 6
