REMARK  Name = ZINC39688234
REMARK  6 active torsions:
REMARK  status: ('A' for Active; 'I' for Inactive)
REMARK    1  A    between atoms: C_3  and  C_9
REMARK    2  A    between atoms: C_13  and  C_22
REMARK    3  A    between atoms: N_24  and  C_25
REMARK    4  A    between atoms: C_25  and  C_26
REMARK    5  A    between atoms: C_26  and  O_27
REMARK    6  A    between atoms: O_27  and  C_28
REMARK                            x       y       z     vdW  Elec       q    Type
REMARK                         _______ _______ _______ _____ _____    ______ ____
ROOT
ATOM      1  C   UNL     1       3.460   2.112   0.056  0.00  0.00    +0.248 C 
ATOM      2  O   UNL     1       4.499   1.481   0.065  0.00  0.00    -0.270 OA
ATOM      3  N   UNL     1       3.486   3.452  -0.091  0.00  0.00    -0.296 N 
ATOM      4  C   UNL     1       2.346   4.395  -0.023  0.00  0.00    +0.121 C 
ATOM      5  C   UNL     1       2.902   5.627   0.727  0.00  0.00    +0.100 C 
ATOM      6  C   UNL     1       4.423   5.569   0.502  0.00  0.00    -0.004 C 
ATOM      7  C   UNL     1       4.664   4.314  -0.350  0.00  0.00    +0.115 C 
ATOM      8  C   UNL     1       5.149   5.439   1.838  0.00  0.00    -0.010 C 
ATOM      9  C   UNL     1       6.661   5.441   1.593  0.00  0.00    -0.082 C 
ATOM     10  N   UNL     1       7.048   6.687   0.921  0.00  0.00    +0.379 N 
ATOM     11  C   UNL     1       6.417   6.760  -0.402  0.00  0.00    -0.082 C 
ATOM     12  C   UNL     1       4.895   6.814  -0.242  0.00  0.00    -0.010 C 
ATOM     13  H   UNL     1       6.750   7.474   1.478  0.00  0.00    -0.086 HD
ATOM     14  H   UNL     1       8.051   6.713   0.816  0.00  0.00    -0.086 HD
ENDROOT
BRANCH   1  17
ATOM     15  C   UNL     1      -0.161   1.199  -0.346  0.00  0.00    +0.002 A 
ATOM     16  C   UNL     1       1.043   1.859  -0.489  0.00  0.00    +0.014 A 
ATOM     17  C   UNL     1       2.168   1.410   0.205  0.00  0.00    +0.057 A 
ATOM     18  C   UNL     1       2.068   0.295   1.040  0.00  0.00    +0.071 A 
ATOM     19  C   UNL     1       0.856  -0.357   1.173  0.00  0.00    +0.060 A 
ATOM     20  C   UNL     1      -0.255   0.095   0.482  0.00  0.00    +0.021 A 
ATOM     21 CL   UNL     1       0.727  -1.744   2.210  0.00  0.00    -0.082 Cl
ATOM     22 CL   UNL     1       3.461  -0.272   1.907  0.00  0.00    -0.081 Cl
ENDBRANCH   1  17
BRANCH   5  23
ATOM     23  C   UNL     1       2.332   6.896   0.147  0.00  0.00    +0.218 C 
ATOM     24  O   UNL     1       2.039   6.947  -1.029  0.00  0.00    -0.275 OA
ATOM     25  N   UNL     1       2.148   7.973   0.935  0.00  0.00    -0.312 N 
ATOM     26  H   UNL     1       2.382   7.932   1.875  0.00  0.00    +0.149 HD
BRANCH  25  27
ATOM     27  C   UNL     1       1.594   9.207   0.371  0.00  0.00    +0.145 C 
BRANCH  27  28
ATOM     28  C   UNL     1       1.488  10.267   1.470  0.00  0.00    +0.247 C 
BRANCH  28  29
ATOM     29  O   UNL     1       2.798  10.614   1.924  0.00  0.00    -0.490 OA
BRANCH  29  30
ATOM     30  C   UNL     1       2.882  11.550   2.906  0.00  0.00    +0.121 A 
ATOM     31  C   UNL     1       1.728  12.118   3.425  0.00  0.00    +0.048 A 
ATOM     32  C   UNL     1       1.815  13.069   4.423  0.00  0.00    +0.042 A 
ATOM     33  C   UNL     1       3.054  13.456   4.905  0.00  0.00    +0.124 A 
ATOM     34  C   UNL     1       4.207  12.890   4.388  0.00  0.00    +0.042 A 
ATOM     35  C   UNL     1       4.122  11.934   3.394  0.00  0.00    +0.048 A 
ATOM     36  F   UNL     1       3.138  14.386   5.881  0.00  0.00    -0.205 F 
ENDBRANCH  29  30
ENDBRANCH  28  29
ENDBRANCH  27  28
ENDBRANCH  25  27
ENDBRANCH   5  23
TORSDOF 6
