REMARK  Name = ZINC00648474
REMARK  17 active torsions:
REMARK  status: ('A' for Active; 'I' for Inactive)
REMARK    1  A    between atoms: C_1  and  C_2
REMARK    2  A    between atoms: C_3  and  C_35
REMARK    3  A    between atoms: C_4  and  C_25
REMARK    4  A    between atoms: C_10  and  C_15
REMARK    5  A    between atoms: C_18  and  O_23
REMARK    6  A    between atoms: C_19  and  O_21
REMARK    7  A    between atoms: O_21  and  C_22
REMARK    8  A    between atoms: O_23  and  C_24
REMARK    9  A    between atoms: C_30  and  O_31
REMARK   10  A    between atoms: O_31  and  C_32
REMARK   11  A    between atoms: C_32  and  C_33
REMARK   12  A    between atoms: C_32  and  C_34
REMARK   13  A    between atoms: C_35  and  O_37
REMARK   14  A    between atoms: O_37  and  C_38
REMARK   15  A    between atoms: C_38  and  C_39
REMARK   16  A    between atoms: C_39  and  C_40
REMARK   17  A    between atoms: C_39  and  C_41
REMARK                            x       y       z     vdW  Elec       q    Type
REMARK                         _______ _______ _______ _____ _____    ______ ____
ROOT
ATOM      1  C   UNL     1       1.562  -3.625  -9.190  0.00  0.00    +0.061 C 
ATOM      2  C   UNL     1       2.684  -3.359  -8.220  0.00  0.00    +0.016 C 
ATOM      3  C   UNL     1       3.932  -3.759  -8.517  0.00  0.00    +0.065 C 
ATOM      4  C   UNL     1       5.075  -3.506  -7.578  0.00  0.00    +0.096 C 
ATOM      5  C   UNL     1       4.575  -3.187  -6.191  0.00  0.00    +0.024 C 
ATOM      6  C   UNL     1       3.296  -2.802  -5.991  0.00  0.00    +0.016 C 
ATOM      7  N   UNL     1       2.425  -2.714  -7.043  0.00  0.00    -0.321 N 
ATOM      8  C   UNL     1       2.794  -2.463  -4.609  0.00  0.00    +0.059 C 
ATOM      9  C   UNL     1       3.548  -3.297  -3.570  0.00  0.00    +0.032 C 
ATOM     10  C   UNL     1       5.047  -3.009  -3.705  0.00  0.00    +0.088 C 
ATOM     11  C   UNL     1       5.476  -3.297  -5.118  0.00  0.00    +0.162 C 
ATOM     12  O   UNL     1       6.623  -3.635  -5.334  0.00  0.00    -0.292 OA
ATOM     13  H   UNL     1       1.508  -2.116  -6.934  0.00  0.00    +0.152 HD
ENDROOT
BRANCH   9  14
ATOM     14  C   UNL     1       3.082  -2.922  -2.187  0.00  0.00    -0.040 A 
ATOM     15  C   UNL     1       3.219  -1.620  -1.742  0.00  0.00    +0.008 A 
ATOM     16  C   UNL     1       2.788  -1.271  -0.476  0.00  0.00    +0.049 A 
ATOM     17  C   UNL     1       2.229  -2.228   0.355  0.00  0.00    +0.161 A 
ATOM     18  C   UNL     1       2.091  -3.539  -0.093  0.00  0.00    +0.162 A 
ATOM     19  C   UNL     1       2.519  -3.881  -1.366  0.00  0.00    +0.053 A 
BRANCH  18  20
ATOM     20  O   UNL     1       1.537  -4.481   0.716  0.00  0.00    -0.491 OA
ATOM     21  C   UNL     1       1.427  -5.805   0.190  0.00  0.00    +0.277 C 
ENDBRANCH  18  20
BRANCH  17  22
ATOM     22  O   UNL     1       1.810  -1.887   1.603  0.00  0.00    -0.491 OA
ATOM     23  C   UNL     1       1.982  -0.524   1.995  0.00  0.00    +0.277 C 
ENDBRANCH  17  22
ENDBRANCH   9  14
BRANCH   4  24
ATOM     24  C   UNL     1       5.889  -2.346  -8.090  0.00  0.00    +0.006 A 
ATOM     25  C   UNL     1       5.289  -1.119  -8.299  0.00  0.00    +0.008 A 
ATOM     26  C   UNL     1       6.036  -0.053  -8.764  0.00  0.00    +0.001 A 
ATOM     27  C   UNL     1       7.383  -0.215  -9.031  0.00  0.00    +0.004 A 
ATOM     28  C   UNL     1       7.987  -1.441  -8.829  0.00  0.00    +0.046 A 
ATOM     29  C   UNL     1       7.240  -2.511  -8.357  0.00  0.00    +0.125 A 
BRANCH  29  30
ATOM     30  O   UNL     1       7.832  -3.718  -8.157  0.00  0.00    -0.489 OA
BRANCH  30  31
ATOM     31  C   UNL     1       9.247  -3.784  -8.338  0.00  0.00    +0.167 C 
ATOM     32  C   UNL     1       9.812  -4.945  -7.516  0.00  0.00    +0.051 C 
ATOM     33  C   UNL     1       9.563  -4.006  -9.818  0.00  0.00    +0.051 C 
ENDBRANCH  30  31
ENDBRANCH  29  30
ENDBRANCH   4  24
BRANCH   3  34
ATOM     34  C   UNL     1       4.173  -4.431  -9.738  0.00  0.00    +0.338 C 
ATOM     35  O   UNL     1       4.242  -5.646  -9.760  0.00  0.00    -0.245 OA
BRANCH  34  36
ATOM     36  O   UNL     1       4.326  -3.726 -10.878  0.00  0.00    -0.461 OA
BRANCH  36  37
ATOM     37  C   UNL     1       4.455  -4.471 -12.090  0.00  0.00    +0.235 C 
BRANCH  37  38
ATOM     38  C   UNL     1       4.739  -3.514 -13.250  0.00  0.00    +0.020 C 
ATOM     39  C   UNL     1       5.018  -4.321 -14.520  0.00  0.00    +0.010 C 
ATOM     40  C   UNL     1       3.525  -2.612 -13.475  0.00  0.00    +0.010 C 
ENDBRANCH  37  38
ENDBRANCH  36  37
ENDBRANCH  34  36
ENDBRANCH   3  34
TORSDOF 10
