REMARK  Name = ZINC21581326
REMARK  10 active torsions:
REMARK  status: ('A' for Active; 'I' for Inactive)
REMARK    1  A    between atoms: C_1  and  C_2
REMARK    2  A    between atoms: C_2  and  C_23
REMARK    3  A    between atoms: N_5  and  N_9
REMARK    4  A    between atoms: C_10  and  C_12
REMARK    5  A    between atoms: C_12  and  N_13
REMARK    6  A    between atoms: N_13  and  C_14
REMARK    7  A    between atoms: N_13  and  C_15
REMARK    8  A    between atoms: C_15  and  C_16
REMARK    9  A    between atoms: C_23  and  C_24
REMARK   10  A    between atoms: C_24  and  C_25
REMARK                            x       y       z     vdW  Elec       q    Type
REMARK                         _______ _______ _______ _____ _____    ______ ____
ROOT
ATOM      1  C   UNL     1      -3.654  -0.303  -6.328  0.00  0.00    +0.041 C 
ATOM      2  C   UNL     1      -4.567  -0.331  -5.101  0.00  0.00    +0.112 C 
ATOM      3  C   UNL     1      -3.929  -1.124  -3.978  0.00  0.00    +0.263 C 
ATOM      4  O   UNL     1      -3.622  -2.297  -3.993  0.00  0.00    -0.271 OA
ATOM      5  N   UNL     1      -3.774  -0.255  -2.960  0.00  0.00    -0.137 N 
ATOM      6  C   UNL     1      -4.226   0.963  -3.278  0.00  0.00    +0.326 C 
ATOM      7  O   UNL     1      -4.197   1.913  -2.521  0.00  0.00    -0.251 OA
ATOM      8  N   UNL     1      -4.712   1.020  -4.531  0.00  0.00    -0.284 N 
ATOM      9  H   UNL     1      -5.153   1.827  -5.135  0.00  0.00    +0.151 HD
ENDROOT
BRANCH   5  10
ATOM     10  N   UNL     1      -3.214  -0.588  -1.719  0.00  0.00    -0.225 N 
ATOM     11  C   UNL     1      -1.962  -0.191  -1.417  0.00  0.00    +0.213 C 
ATOM     12  O   UNL     1      -1.320   0.454  -2.219  0.00  0.00    -0.276 OA
ATOM     13  H   UNL     1      -3.796  -1.173  -0.992  0.00  0.00    +0.173 HD
BRANCH  11  14
ATOM     14  C   UNL     1      -1.360  -0.549  -0.083  0.00  0.00    +0.020 C 
BRANCH  14  15
ATOM     15  N   UNL     1       0.002  -0.004   0.002  0.00  0.00    +0.386 N 
ATOM     16  C   UNL     1      -0.018   1.465   0.010  0.00  0.00    -0.095 C 
ATOM     17  H   UNL     1       0.552  -0.330  -0.893  0.00  0.00    -0.081 HD
BRANCH  15  18
ATOM     18  C   UNL     1       0.706  -0.527   1.180  0.00  0.00    -0.043 C 
BRANCH  18  19
ATOM     19  C   UNL     1       2.163  -0.149   1.104  0.00  0.00    -0.064 A 
ATOM     20  C   UNL     1       3.065  -0.993   0.484  0.00  0.00    +0.003 A 
ATOM     21  C   UNL     1       4.400  -0.644   0.410  0.00  0.00    +0.015 A 
ATOM     22  C   UNL     1       4.836   0.546   0.966  0.00  0.00    +0.018 A 
ATOM     23  C   UNL     1       3.933   1.388   1.591  0.00  0.00    +0.015 A 
ATOM     24  C   UNL     1       2.598   1.040   1.660  0.00  0.00    +0.003 A 
ATOM     25 BR   UNL     1       6.663   1.021   0.871  0.00  0.00    -0.050 Br
ENDBRANCH  18  19
ENDBRANCH  15  18
ENDBRANCH  14  15
ENDBRANCH  11  14
ENDBRANCH   5  10
BRANCH   2  26
ATOM     26  C   UNL     1      -5.936  -0.913  -5.460  0.00  0.00    +0.040 C 
BRANCH  26  27
ATOM     27  C   UNL     1      -6.557  -0.094  -6.593  0.00  0.00    +0.038 C 
BRANCH  27  28
ATOM     28  C   UNL     1      -7.905  -0.667  -6.947  0.00  0.00    -0.047 A 
ATOM     29  C   UNL     1      -8.007  -1.647  -7.917  0.00  0.00    +0.003 A 
ATOM     30  C   UNL     1      -9.243  -2.176  -8.239  0.00  0.00    +0.000 A 
ATOM     31  C   UNL     1     -10.378  -1.718  -7.597  0.00  0.00    +0.000 A 
ATOM     32  C   UNL     1     -10.277  -0.735  -6.630  0.00  0.00    +0.000 A 
ATOM     33  C   UNL     1      -9.041  -0.209  -6.306  0.00  0.00    +0.003 A 
ENDBRANCH  27  28
ENDBRANCH  26  27
ENDBRANCH   2  26
TORSDOF 8
