REMARK  Name = ZINC34859701
REMARK  9 active torsions:
REMARK  status: ('A' for Active; 'I' for Inactive)
REMARK    1  A    between atoms: C_1  and  C_2
REMARK    2  A    between atoms: C_7  and  N_12
REMARK    3  A    between atoms: C_9  and  C_11
REMARK    4  A    between atoms: C_13  and  C_15
REMARK    5  A    between atoms: C_23  and  C_36
REMARK    6  A    between atoms: N_29  and  C_30
REMARK    7  A    between atoms: N_38  and  C_39
REMARK    8  A    between atoms: C_42  and  O_45
REMARK    9  A    between atoms: O_45  and  C_46
REMARK                            x       y       z     vdW  Elec       q    Type
REMARK                         _______ _______ _______ _____ _____    ______ ____
ROOT
ATOM      1  C   UNL     1      -1.960  -3.898   2.051  0.00  0.00    +0.199 C 
ATOM      2  C   UNL     1      -2.868  -3.500   3.173  0.00  0.00    +0.127 C 
ATOM      3  C   UNL     1      -2.192  -3.566   4.530  0.00  0.00    +0.009 C 
ATOM      4  C   UNL     1      -3.107  -3.182   5.407  0.00  0.00    +0.004 C 
ATOM      5  C   UNL     1      -4.375  -2.939   4.578  0.00  0.00    +0.155 C 
ATOM      6  O   UNL     1      -3.795  -2.448   3.298  0.00  0.00    -0.358 OA
ATOM      7  C   UNL     1      -4.823  -4.409   4.219  0.00  0.00    +0.123 C 
ATOM      8  C   UNL     1      -3.880  -4.710   3.054  0.00  0.00    +0.128 C 
ATOM      9  C   UNL     1      -2.933  -5.835   2.952  0.00  0.00    +0.224 C 
ATOM     10  O   UNL     1      -3.091  -6.954   3.392  0.00  0.00    -0.275 OA
ATOM     11  N   UNL     1      -1.837  -5.375   2.261  0.00  0.00    -0.283 N 
ENDROOT
BRANCH  11  12
ATOM     12  C   UNL     1      -0.720  -6.203   1.800  0.00  0.00    +0.077 C 
ATOM     13  C   UNL     1      -1.241  -7.277   0.844  0.00  0.00    +0.022 C 
ATOM     14  C   UNL     1      -0.074  -8.142   0.363  0.00  0.00    +0.002 C 
ATOM     15  C   UNL     1       0.595  -8.810   1.566  0.00  0.00    +0.000 C 
ATOM     16  C   UNL     1       1.116  -7.736   2.522  0.00  0.00    +0.002 C 
ATOM     17  C   UNL     1      -0.051  -6.872   3.003  0.00  0.00    +0.022 C 
ENDBRANCH  11  12
BRANCH   1  19
ATOM     18  N   UNL     1      -0.452  -1.965   1.723  0.00  0.00    -0.311 N 
ATOM     19  C   UNL     1      -0.619  -3.222   2.178  0.00  0.00    +0.237 C 
ATOM     20  O   UNL     1       0.310  -3.810   2.690  0.00  0.00    -0.274 OA
ATOM     21  H   UNL     1      -1.195  -1.495   1.314  0.00  0.00    +0.149 HD
BRANCH  18  27
ATOM     22  C   UNL     1      -0.206   2.169   0.575  0.00  0.00    +0.008 C 
ATOM     23  C   UNL     1      -0.013   0.651   0.560  0.00  0.00    -0.009 C 
ATOM     24  C   UNL     1       0.869   0.261  -0.628  0.00  0.00    +0.003 C 
ATOM     25  C   UNL     1       1.062  -1.257  -0.643  0.00  0.00    +0.002 C 
ATOM     26  C   UNL     1       1.734  -1.699   0.659  0.00  0.00    +0.022 C 
ATOM     27  C   UNL     1       0.852  -1.308   1.847  0.00  0.00    +0.076 C 
ATOM     28  C   UNL     1       0.659   0.209   1.861  0.00  0.00    +0.009 C 
ATOM     29  C   UNL     1      -0.223   0.600   3.049  0.00  0.00    +0.009 C 
ENDBRANCH  18  27
ENDBRANCH   1  19
BRANCH   7  30
ATOM     30  C   UNL     1      -4.595  -5.343   5.380  0.00  0.00    +0.224 C 
ATOM     31  O   UNL     1      -3.837  -6.282   5.262  0.00  0.00    -0.275 OA
ATOM     32  N   UNL     1      -5.234  -5.134   6.548  0.00  0.00    -0.285 N 
ATOM     33  H   UNL     1      -5.780  -4.342   6.667  0.00  0.00    +0.155 HD
BRANCH  32  34
ATOM     34  C   UNL     1      -5.109  -6.062   7.590  0.00  0.00    +0.034 A 
ATOM     35  C   UNL     1      -5.129  -5.632   8.910  0.00  0.00    +0.027 A 
ATOM     36  C   UNL     1      -5.006  -6.547   9.937  0.00  0.00    +0.047 A 
ATOM     37  C   UNL     1      -4.862  -7.896   9.650  0.00  0.00    +0.120 A 
ATOM     38  C   UNL     1      -4.842  -8.328   8.331  0.00  0.00    +0.047 A 
ATOM     39  C   UNL     1      -4.971  -7.414   7.304  0.00  0.00    +0.027 A 
BRANCH  37  40
ATOM     40  O   UNL     1      -4.741  -8.797  10.661  0.00  0.00    -0.495 OA
ATOM     41  C   UNL     1      -4.596 -10.170  10.293  0.00  0.00    +0.277 C 
ENDBRANCH  37  40
ENDBRANCH  32  34
ENDBRANCH   7  30
TORSDOF 6
