REMARK  Name = ZINC39675231
REMARK  11 active torsions:
REMARK  status: ('A' for Active; 'I' for Inactive)
REMARK    1  A    between atoms: C_1  and  C_2
REMARK    2  A    between atoms: C_2  and  C_4
REMARK    3  A    between atoms: C_2  and  N_14
REMARK    4  A    between atoms: C_4  and  C_5
REMARK    5  A    between atoms: C_5  and  C_6
REMARK    6  A    between atoms: C_9  and  O_12
REMARK    7  A    between atoms: O_12  and  C_13
REMARK    8  A    between atoms: C_15  and  C_17
REMARK    9  A    between atoms: C_28  and  C_30
REMARK   10  A    between atoms: C_30  and  C_31
REMARK   11  A    between atoms: C_31  and  C_32
REMARK                            x       y       z     vdW  Elec       q    Type
REMARK                         _______ _______ _______ _____ _____    ______ ____
ROOT
ATOM      1  C   UNL     1       2.783  -1.099   2.395  0.00  0.00    +0.100 C 
ATOM      2  C   UNL     1       2.678  -0.070   3.542  0.00  0.00    +0.121 C 
ATOM      3  N   UNL     1       3.999  -0.120   4.212  0.00  0.00    -0.300 N 
ATOM      4  C   UNL     1       4.971  -0.257   3.101  0.00  0.00    +0.115 C 
ATOM      5  C   UNL     1       4.289  -1.219   2.107  0.00  0.00    -0.004 C 
ATOM      6  C   UNL     1       4.589  -0.794   0.673  0.00  0.00    -0.010 C 
ATOM      7  C   UNL     1       6.083  -0.977   0.393  0.00  0.00    -0.082 C 
ATOM      8  N   UNL     1       6.452  -2.383   0.596  0.00  0.00    +0.379 N 
ATOM      9  C   UNL     1       6.248  -2.757   2.001  0.00  0.00    -0.082 C 
ATOM     10  C   UNL     1       4.761  -2.649   2.349  0.00  0.00    -0.010 C 
ATOM     11  C   UNL     1       4.258  -0.057   5.533  0.00  0.00    +0.216 C 
ATOM     12  O   UNL     1       5.402  -0.111   5.930  0.00  0.00    -0.276 OA
ATOM     13  H   UNL     1       5.879  -2.968   0.007  0.00  0.00    -0.086 HD
ATOM     14  H   UNL     1       7.423  -2.513   0.352  0.00  0.00    -0.086 HD
ENDROOT
BRANCH   1  16
ATOM     15  N   UNL     1       1.507  -1.478   0.309  0.00  0.00    -0.312 N 
ATOM     16  C   UNL     1       2.054  -0.600   1.174  0.00  0.00    +0.218 C 
ATOM     17  O   UNL     1       1.959   0.592   0.969  0.00  0.00    -0.275 OA
ATOM     18  H   UNL     1       1.583  -2.431   0.473  0.00  0.00    +0.149 HD
BRANCH  15  20
ATOM     19  C   UNL     1      -0.652  -0.674  -0.511  0.00  0.00    +0.028 C 
ATOM     20  C   UNL     1       0.799  -0.992  -0.878  0.00  0.00    +0.070 C 
BRANCH  20  21
ATOM     21  C   UNL     1       0.826  -2.069  -1.964  0.00  0.00    +0.026 C 
BRANCH  21  22
ATOM     22  C   UNL     1       2.269  -2.298  -2.419  0.00  0.00    +0.037 C 
BRANCH  22  23
ATOM     23  C   UNL     1       2.296  -3.359  -3.489  0.00  0.00    -0.047 A 
ATOM     24  C   UNL     1       2.433  -4.689  -3.139  0.00  0.00    +0.007 A 
ATOM     25  C   UNL     1       2.459  -5.664  -4.117  0.00  0.00    +0.046 A 
ATOM     26  C   UNL     1       2.345  -5.307  -5.453  0.00  0.00    +0.120 A 
ATOM     27  C   UNL     1       2.207  -3.971  -5.802  0.00  0.00    +0.046 A 
ATOM     28  C   UNL     1       2.177  -3.001  -4.819  0.00  0.00    +0.007 A 
BRANCH  26  29
ATOM     29  O   UNL     1       2.370  -6.263  -6.418  0.00  0.00    -0.495 OA
ATOM     30  C   UNL     1       2.249  -5.823  -7.772  0.00  0.00    +0.277 C 
ENDBRANCH  26  29
ENDBRANCH  22  23
ENDBRANCH  21  22
ENDBRANCH  20  21
ENDBRANCH  15  20
ENDBRANCH   1  16
BRANCH  11  31
ATOM     31  C   UNL     1       3.125   0.083   6.517  0.00  0.00    +0.096 C 
BRANCH  31  32
ATOM     32  C   UNL     1       3.688   0.131   7.939  0.00  0.00    +0.013 C 
BRANCH  32  33
ATOM     33  C   UNL     1       2.538   0.273   8.938  0.00  0.00    -0.011 C 
ATOM     34  C   UNL     1       1.874   1.657   8.788  0.00  0.00    +0.003 C 
ATOM     35  C   UNL     1       1.514   2.065  10.238  0.00  0.00    +0.000 C 
ATOM     36  C   UNL     1       2.723   1.539  11.052  0.00  0.00    +0.000 C 
ATOM     37  C   UNL     1       3.078   0.198  10.377  0.00  0.00    +0.003 C 
ENDBRANCH  32  33
ENDBRANCH  31  32
ENDBRANCH  11  31
TORSDOF 9
