REMARK  Name = ZINC09439860
REMARK  6 active torsions:
REMARK  status: ('A' for Active; 'I' for Inactive)
REMARK    1  A    between atoms: C_1  and  C_2
REMARK    2  A    between atoms: C_7  and  S_8
REMARK    3  A    between atoms: S_8  and  N_11
REMARK    4  A    between atoms: C_14  and  C_17
REMARK    5  A    between atoms: C_14  and  N_62
REMARK    6  A    between atoms: N_28  and  C_29
REMARK                            x       y       z     vdW  Elec       q    Type
REMARK                         _______ _______ _______ _____ _____    ______ ____
ROOT
ATOM      1  N   UNL     1      -3.628  -2.262   0.479  0.00  0.00    -0.177 NA
ATOM      2  C   UNL     1      -2.778  -2.799  -0.592  0.00  0.00    +0.108 C 
ATOM      3  C   UNL     1      -1.334  -2.349  -0.347  0.00  0.00    +0.014 C 
ATOM      4  C   UNL     1      -1.294  -0.824  -0.217  0.00  0.00    +0.015 C 
ATOM      5  C   UNL     1      -2.145  -0.390   0.978  0.00  0.00    +0.014 C 
ATOM      6  C   UNL     1      -3.598  -0.818   0.749  0.00  0.00    +0.108 C 
ENDROOT
BRANCH   4  12
ATOM      7  C   UNL     1       0.185   1.079   0.010  0.00  0.00    -0.077 C 
ATOM      8  C   UNL     1       1.655   1.499   0.075  0.00  0.00    -0.019 C 
ATOM      9  C   UNL     1       2.295   0.907   1.334  0.00  0.00    -0.004 C 
ATOM     10  C   UNL     1       2.143  -0.616   1.306  0.00  0.00    -0.019 C 
ATOM     11  C   UNL     1       0.659  -0.975   1.205  0.00  0.00    -0.077 C 
ATOM     12  N   UNL     1       0.109  -0.397  -0.040  0.00  0.00    +0.389 N 
ATOM     13  H   UNL     1       0.663  -0.732  -0.836  0.00  0.00    -0.080 HD
ENDBRANCH   4  12
BRANCH   4  14
ATOM     14  C   UNL     1      -1.840  -0.199  -1.475  0.00  0.00    +0.200 C 
ATOM     15  O   UNL     1      -2.984   0.203  -1.505  0.00  0.00    -0.278 OA
ATOM     16  N   UNL     1      -1.057  -0.086  -2.566  0.00  0.00    -0.330 N 
ATOM     17  H   UNL     1      -0.167  -0.471  -2.567  0.00  0.00    +0.145 HD
ATOM     18  H   UNL     1      -1.383   0.382  -3.351  0.00  0.00    +0.145 HD
ENDBRANCH   4  14
BRANCH   1  19
ATOM     19  S   UNL     1      -4.604  -3.265   1.365  0.00  0.00    +0.061 S 
ATOM     20  O   UNL     1      -5.729  -2.492   1.759  0.00  0.00    -0.153 OA
ATOM     21  O   UNL     1      -4.729  -4.470   0.622  0.00  0.00    -0.153 OA
BRANCH  19  28
ATOM     22  C   UNL     1      -2.116  -4.981   1.446  0.00  0.00    +0.046 C 
ATOM     23  C   UNL     1      -2.600  -4.465   2.777  0.00  0.00    -0.022 A 
ATOM     24  C   UNL     1      -1.915  -4.788   3.932  0.00  0.00    +0.032 A 
ATOM     25  C   UNL     1      -2.355  -4.314   5.163  0.00  0.00    +0.072 A 
ATOM     26  C   UNL     1      -3.490  -3.513   5.224  0.00  0.00    +0.143 A 
ATOM     27  C   UNL     1      -4.172  -3.192   4.059  0.00  0.00    +0.076 A 
ATOM     28  C   UNL     1      -3.730  -3.672   2.840  0.00  0.00    +0.112 A 
ATOM     29  O   UNL     1      -3.950  -3.024   6.408  0.00  0.00    -0.488 OA
ATOM     30  C   UNL     1      -3.429  -3.626   7.598  0.00  0.00    +0.248 C 
ATOM     31  C   UNL     1      -1.910  -3.759   7.433  0.00  0.00    +0.146 C 
ATOM     32  N   UNL     1      -1.638  -4.666   6.311  0.00  0.00    -0.327 N 
ATOM     33  C   UNL     1      -0.198  -4.739   6.030  0.00  0.00    +0.129 C 
ENDBRANCH  19  28
ENDBRANCH   1  19
TORSDOF 4
