REMARK  Name = ZINC66233087
REMARK  6 active torsions:
REMARK  status: ('A' for Active; 'I' for Inactive)
REMARK    1  A    between atoms: C_1  and  N_2
REMARK    2  A    between atoms: C_6  and  C_7
REMARK    3  A    between atoms: C_7  and  C_8
REMARK    4  A    between atoms: C_8  and  N_9
REMARK    5  A    between atoms: N_12  and  N_13
REMARK    6  A    between atoms: C_14  and  C_16
REMARK                            x       y       z     vdW  Elec       q    Type
REMARK                         _______ _______ _______ _____ _____    ______ ____
ROOT
ATOM      1  N   UNL     1       1.477   0.145   4.428  0.00  0.00    -0.298 N 
ATOM      2  C   UNL     1       2.645   0.268   5.090  0.00  0.00    +0.316 C 
ATOM      3  O   UNL     1       3.692   0.012   4.529  0.00  0.00    -0.251 OA
ATOM      4  N   UNL     1       2.651   0.677   6.375  0.00  0.00    -0.218 N 
ATOM      5  H   UNL     1       0.642   0.350   4.875  0.00  0.00    +0.150 HD
ATOM      6  H   UNL     1       3.490   0.766   6.851  0.00  0.00    +0.174 HD
ENDROOT
BRANCH   4   7
ATOM      7  N   UNL     1       1.443   0.973   7.021  0.00  0.00    -0.229 N 
ATOM      8  C   UNL     1       1.449   1.381   8.305  0.00  0.00    +0.267 C 
ATOM      9  O   UNL     1       2.503   1.493   8.904  0.00  0.00    -0.268 OA
ATOM     10  H   UNL     1       0.603   0.884   6.544  0.00  0.00    +0.173 HD
BRANCH   8  11
ATOM     11  C   UNL     1       0.187   1.691   8.981  0.00  0.00    +0.076 A 
ATOM     12  C   UNL     1      -0.025   2.126  10.281  0.00  0.00    +0.022 A 
ATOM     13  C   UNL     1      -1.335   2.335  10.635  0.00  0.00    +0.024 A 
ATOM     14  C   UNL     1      -2.310   2.109   9.717  0.00  0.00    +0.056 A 
ATOM     15  S   UNL     1      -1.477   1.613   8.345  0.00  0.00    -0.077 S 
ATOM     16 BR   UNL     1      -4.178   2.312   9.932  0.00  0.00    -0.043 Br
ENDBRANCH   8  11
ENDBRANCH   4   7
BRANCH   1  17
ATOM     17  C   UNL     1       1.471  -0.299   3.032  0.00  0.00    +0.113 C 
BRANCH  17  18
ATOM     18  C   UNL     1       0.030  -0.354   2.521  0.00  0.00    +0.091 C 
BRANCH  18  24
ATOM     19  C   UNL     1      -0.018   1.461   0.010  0.00  0.00    +0.150 C 
ATOM     20  N   UNL     1       0.002  -0.004   0.002  0.00  0.00    -0.339 N 
ATOM     21  C   UNL     1       0.009  -0.810  -1.104  0.00  0.00    +0.104 A 
ATOM     22  C   UNL     1       0.029  -2.081  -0.660  0.00  0.00    +0.101 A 
ATOM     23  N   UNL     1       0.034  -2.052   0.681  0.00  0.00    -0.350 N 
ATOM     24  C   UNL     1       0.023  -0.811   1.085  0.00  0.00    +0.088 A 
ATOM     25  H   UNL     1       0.048  -2.831   1.260  0.00  0.00    +0.166 HD
ENDBRANCH  18  24
ENDBRANCH  17  18
ENDBRANCH   1  17
TORSDOF 5
