REMARK  Name = ZINC39630883
REMARK  10 active torsions:
REMARK  status: ('A' for Active; 'I' for Inactive)
REMARK    1  A    between atoms: C_1  and  C_2
REMARK    2  A    between atoms: C_2  and  C_3
REMARK    3  A    between atoms: C_2  and  C_4
REMARK    4  A    between atoms: C_2  and  C_29
REMARK    5  A    between atoms: C_4  and  N_5
REMARK    6  A    between atoms: C_6  and  C_8
REMARK    7  A    between atoms: C_19  and  C_21
REMARK    8  A    between atoms: C_29  and  N_30
REMARK    9  A    between atoms: N_30  and  C_31
REMARK   10  A    between atoms: N_30  and  C_32
REMARK                            x       y       z     vdW  Elec       q    Type
REMARK                         _______ _______ _______ _____ _____    ______ ____
ROOT
ATOM      1  C   UNL     1      -2.772   0.512   3.719  0.00  0.00    +0.100 C 
ATOM      2  C   UNL     1      -2.843   2.044   3.906  0.00  0.00    +0.121 C 
ATOM      3  N   UNL     1      -4.291   2.358   3.883  0.00  0.00    -0.296 N 
ATOM      4  C   UNL     1      -4.921   1.246   4.635  0.00  0.00    +0.115 C 
ATOM      5  C   UNL     1      -4.136  -0.008   4.202  0.00  0.00    -0.004 C 
ATOM      6  C   UNL     1      -3.953  -0.952   5.387  0.00  0.00    -0.010 C 
ATOM      7  C   UNL     1      -5.318  -1.501   5.811  0.00  0.00    -0.082 C 
ATOM      8  N   UNL     1      -5.934  -2.212   4.685  0.00  0.00    +0.379 N 
ATOM      9  C   UNL     1      -6.192  -1.277   3.583  0.00  0.00    -0.082 C 
ATOM     10  C   UNL     1      -4.864  -0.718   3.064  0.00  0.00    -0.010 C 
ATOM     11  C   UNL     1      -4.898   3.415   3.308  0.00  0.00    +0.249 C 
ATOM     12  O   UNL     1      -6.111   3.488   3.299  0.00  0.00    -0.270 OA
ATOM     13  H   UNL     1      -5.311  -2.940   4.367  0.00  0.00    -0.086 HD
ATOM     14  H   UNL     1      -6.804  -2.625   4.984  0.00  0.00    -0.086 HD
ENDROOT
BRANCH  11  15
ATOM     15  C   UNL     1      -4.089   4.485   2.690  0.00  0.00    +0.073 A 
ATOM     16  C   UNL     1      -2.794   4.739   3.147  0.00  0.00    +0.036 A 
ATOM     17  C   UNL     1      -2.043   5.739   2.564  0.00  0.00    +0.042 A 
ATOM     18  C   UNL     1      -2.571   6.492   1.527  0.00  0.00    +0.023 A 
ATOM     19  C   UNL     1      -3.851   6.248   1.069  0.00  0.00    +0.040 A 
ATOM     20  C   UNL     1      -4.614   5.244   1.639  0.00  0.00    +0.136 A 
ATOM     21  F   UNL     1      -5.863   5.002   1.187  0.00  0.00    -0.205 F 
ATOM     22 CL   UNL     1      -0.434   6.056   3.132  0.00  0.00    -0.084 Cl
ENDBRANCH  11  15
BRANCH   1  24
ATOM     23  N   UNL     1      -2.062  -1.032   1.922  0.00  0.00    -0.315 N 
ATOM     24  C   UNL     1      -2.564   0.170   2.266  0.00  0.00    +0.218 C 
ATOM     25  O   UNL     1      -2.849   0.977   1.407  0.00  0.00    -0.275 OA
ATOM     26  H   UNL     1      -1.834  -1.677   2.610  0.00  0.00    +0.149 HD
BRANCH  23  27
ATOM     27  C   UNL     1      -1.860  -1.365   0.510  0.00  0.00    +0.108 C 
BRANCH  27  29
ATOM     28  C   UNL     1       0.057  -2.842   1.132  0.00  0.00    +0.010 C 
ATOM     29  C   UNL     1      -1.283  -2.777   0.396  0.00  0.00    -0.034 C 
ATOM     30  C   UNL     1      -2.257  -3.778   1.021  0.00  0.00    +0.010 C 
BRANCH  29  31
ATOM     31  C   UNL     1      -1.072  -3.124  -1.079  0.00  0.00    -0.072 C 
BRANCH  31  32
ATOM     32  N   UNL     1      -0.633  -4.522  -1.196  0.00  0.00    +0.376 N 
ATOM     33  C   UNL     1      -1.808  -5.402  -1.239  0.00  0.00    -0.097 C 
ATOM     34  C   UNL     1       0.149  -4.688  -2.428  0.00  0.00    -0.097 C 
ATOM     35  H   UNL     1      -0.062  -4.762  -0.399  0.00  0.00    -0.083 HD
ENDBRANCH  31  32
ENDBRANCH  29  31
ENDBRANCH  27  29
ENDBRANCH  23  27
ENDBRANCH   1  24
TORSDOF 6
