REMARK  Name = ZINC08970614
REMARK  8 active torsions:
REMARK  status: ('A' for Active; 'I' for Inactive)
REMARK    1  A    between atoms: C_1  and  C_2
REMARK    2  A    between atoms: C_5  and  N_8
REMARK    3  A    between atoms: C_16  and  C_35
REMARK    4  A    between atoms: C_19  and  C_25
REMARK    5  A    between atoms: C_25  and  C_27
REMARK    6  A    between atoms: C_30  and  O_33
REMARK    7  A    between atoms: O_33  and  C_34
REMARK    8  A    between atoms: C_35  and  C_37
REMARK                            x       y       z     vdW  Elec       q    Type
REMARK                         _______ _______ _______ _____ _____    ______ ____
ROOT
ATOM      1  N   UNL     1      -3.732   0.152  -2.208  0.00  0.00    -0.210 N 
ATOM      2  C   UNL     1      -2.966  -0.049  -1.085  0.00  0.00    +0.232 C 
ATOM      3  O   UNL     1      -2.808  -1.082  -0.471  0.00  0.00    -0.274 OA
ATOM      4  C   UNL     1      -2.390   1.245  -0.801  0.00  0.00    +0.113 C 
ATOM      5  C   UNL     1      -1.321   1.855  -0.003  0.00  0.00    +0.093 C 
ATOM      6  C   UNL     1      -0.012   1.091  -0.018  0.00  0.00    +0.006 C 
ATOM      7  C   UNL     1       1.142   1.789   0.005  0.00  0.00    +0.021 C 
ATOM      8  C   UNL     1       1.164   3.264  -0.004  0.00  0.00    +0.025 C 
ATOM      9  C   UNL     1       0.050   3.938  -0.367  0.00  0.00    +0.054 C 
ATOM     10  C   UNL     1      -1.972   3.285  -1.838  0.00  0.00    +0.141 C 
ATOM     11  C   UNL     1      -2.178   1.827  -2.250  0.00  0.00    +0.116 C 
ATOM     12  C   UNL     1      -3.477   1.350  -2.816  0.00  0.00    +0.232 C 
ATOM     13  O   UNL     1      -4.163   1.911  -3.643  0.00  0.00    -0.274 OA
ATOM     14  N   UNL     1      -1.292   3.215  -0.493  0.00  0.00    -0.384 NA
ATOM     15  H   UNL     1      -1.911   3.732   0.142  0.00  0.00    +0.127 HD
ENDROOT
BRANCH   1  20
ATOM     16  C   UNL     1      -7.548  -3.590  -4.119  0.00  0.00    +0.044 C 
ATOM     17  C   UNL     1      -6.535  -2.596  -3.611  0.00  0.00    -0.050 A 
ATOM     18  C   UNL     1      -6.338  -1.406  -4.286  0.00  0.00    +0.005 A 
ATOM     19  C   UNL     1      -5.410  -0.493  -3.824  0.00  0.00    +0.024 A 
ATOM     20  C   UNL     1      -4.675  -0.772  -2.680  0.00  0.00    +0.044 A 
ATOM     21  C   UNL     1      -4.872  -1.971  -2.007  0.00  0.00    +0.024 A 
ATOM     22  C   UNL     1      -5.805  -2.877  -2.471  0.00  0.00    +0.005 A 
ENDBRANCH   1  20
BRANCH  10  23
ATOM     23  C   UNL     1      -3.266   3.904  -1.376  0.00  0.00    +0.183 C 
ATOM     24  O   UNL     1      -3.511   3.985  -0.191  0.00  0.00    -0.290 OA
BRANCH  23  25
ATOM     25  C   UNL     1      -4.231   4.410  -2.362  0.00  0.00    +0.019 A 
ATOM     26  C   UNL     1      -3.948   4.323  -3.730  0.00  0.00    +0.015 A 
ATOM     27  C   UNL     1      -4.854   4.792  -4.646  0.00  0.00    +0.046 A 
ATOM     28  C   UNL     1      -6.048   5.363  -4.218  0.00  0.00    +0.120 A 
ATOM     29  C   UNL     1      -6.331   5.456  -2.859  0.00  0.00    +0.046 A 
ATOM     30  C   UNL     1      -5.434   4.986  -1.935  0.00  0.00    +0.015 A 
BRANCH  28  31
ATOM     31  O   UNL     1      -6.939   5.830  -5.128  0.00  0.00    -0.495 OA
ATOM     32  C   UNL     1      -6.585   5.702  -6.507  0.00  0.00    +0.277 C 
ENDBRANCH  28  31
ENDBRANCH  23  25
ENDBRANCH  10  23
BRANCH   7  33
ATOM     33  C   UNL     1       2.423   1.054   0.041  0.00  0.00    +0.193 C 
ATOM     34  O   UNL     1       2.716   0.391   1.018  0.00  0.00    -0.287 OA
BRANCH  33  35
ATOM     35  C   UNL     1       3.348   1.123  -1.109  0.00  0.00    +0.022 A 
ATOM     36  C   UNL     1       3.056   1.953  -2.194  0.00  0.00    +0.012 A 
ATOM     37  C   UNL     1       3.927   2.018  -3.262  0.00  0.00    +0.001 A 
ATOM     38  C   UNL     1       5.081   1.254  -3.265  0.00  0.00    +0.000 A 
ATOM     39  C   UNL     1       5.373   0.426  -2.195  0.00  0.00    +0.001 A 
ATOM     40  C   UNL     1       4.515   0.356  -1.118  0.00  0.00    +0.012 A 
ENDBRANCH  33  35
ENDBRANCH   7  33
TORSDOF 6
