REMARK  Name = ZINC44866069
REMARK  7 active torsions:
REMARK  status: ('A' for Active; 'I' for Inactive)
REMARK    1  A    between atoms: C_1  and  C_2
REMARK    2  A    between atoms: C_2  and  C_3
REMARK    3  A    between atoms: C_2  and  C_4
REMARK    4  A    between atoms: C_4  and  C_6
REMARK    5  A    between atoms: C_4  and  C_10
REMARK    6  A    between atoms: N_7  and  O_8
REMARK    7  A    between atoms: N_12  and  C_13
REMARK                            x       y       z     vdW  Elec       q    Type
REMARK                         _______ _______ _______ _____ _____    ______ ____
ROOT
ATOM      1  C   UNL     1      -1.375  -0.338   0.025  0.00  0.00    +0.144 C 
ENDROOT
BRANCH   1   2
ATOM      2  C   UNL     1      -2.445   0.100  -0.940  0.00  0.00    +0.144 C 
ATOM      3  N   UNL     1      -2.162   0.261  -2.190  0.00  0.00    -0.076 NA
ATOM      4  N   UNL     1      -3.727   0.330  -0.490  0.00  0.00    -0.343 N 
ATOM      5  H   UNL     1      -3.940   0.209   0.449  0.00  0.00    +0.144 HD
ATOM      6  H   UNL     1      -4.416   0.612  -1.111  0.00  0.00    +0.144 HD
BRANCH   3   7
ATOM      7  O   UNL     1      -3.168   0.673  -3.098  0.00  0.00    -0.408 OA
ATOM      8  H   UNL     1      -2.861   0.766  -4.010  0.00  0.00    +0.328 HD
ENDBRANCH   3   7
ENDBRANCH   1   2
BRANCH   1   9
ATOM      9  C   UNL     1      -1.430  -1.835   0.191  0.00  0.00    +0.224 C 
ATOM     10  O   UNL     1      -1.874  -2.527  -0.700  0.00  0.00    -0.275 OA
ATOM     11  N   UNL     1      -0.985  -2.404   1.329  0.00  0.00    -0.312 N 
ATOM     12  H   UNL     1      -0.556  -1.860   2.008  0.00  0.00    +0.149 HD
BRANCH  11  13
ATOM     13  C   UNL     1      -1.148  -3.844   1.540  0.00  0.00    +0.073 C 
ATOM     14  C   UNL     1      -2.577  -4.115   2.053  0.00  0.00    +0.022 C 
ATOM     15  C   UNL     1      -2.915  -5.557   1.787  0.00  0.00    +0.002 C 
ATOM     16  C   UNL     1      -2.616  -6.465   2.995  0.00  0.00    +0.000 C 
ATOM     17  C   UNL     1      -1.282  -6.122   3.685  0.00  0.00    +0.000 C 
ATOM     18  C   UNL     1      -0.183  -5.827   2.700  0.00  0.00    +0.002 C 
ATOM     19  C   UNL     1      -0.127  -4.303   2.471  0.00  0.00    +0.022 C 
ENDBRANCH  11  13
ENDBRANCH   1   9
BRANCH   1  21
ATOM     20  C   UNL     1       0.036   1.579  -0.735  0.00  0.00    +0.008 C 
ATOM     21  C   UNL     1      -0.002   0.065  -0.518  0.00  0.00    +0.002 C 
ATOM     22  C   UNL     1       1.081  -0.334   0.486  0.00  0.00    +0.008 C 
ENDBRANCH   1  21
TORSDOF 5
