REMARK  Name = ZINC14442968
REMARK  4 active torsions:
REMARK  status: ('A' for Active; 'I' for Inactive)
REMARK    1  A    between atoms: C_1  and  C_2
REMARK    2  A    between atoms: C_13  and  O_15
REMARK    3  A    between atoms: O_15  and  P_16
REMARK    4  A    between atoms: C_26  and  C_27
REMARK                            x       y       z     vdW  Elec       q    Type
REMARK                         _______ _______ _______ _____ _____    ______ ____
ROOT
ATOM      1  C   UNL     1       2.489   5.479   1.587  0.00  0.00    +0.014 C 
ATOM      2  C   UNL     1       2.646   4.195   0.770  0.00  0.00    -0.002 C 
ATOM      3  C   UNL     1       3.657   3.298   1.448  0.00  0.00    +0.010 C 
ATOM      4  C   UNL     1       3.769   1.967   0.711  0.00  0.00    +0.005 C 
ATOM      5  C   UNL     1       2.401   1.268   0.724  0.00  0.00    +0.002 C 
ATOM      6  C   UNL     1       1.380   2.128   0.000  0.00  0.00    -0.003 C 
ATOM      7  C   UNL     1       1.271   3.527   0.621  0.00  0.00    +0.001 C 
ATOM      8  C   UNL     1       0.598   4.431  -0.455  0.00  0.00    +0.007 C 
ATOM      9  C   UNL     1       1.742   4.741  -1.445  0.00  0.00    +0.033 C 
ATOM     10  C   UNL     1       3.058   4.581  -0.657  0.00  0.00    +0.137 C 
ATOM     11  C   UNL     1      -0.019   1.517   0.010  0.00  0.00    +0.008 C 
ATOM     12  C   UNL     1       0.002  -0.004   0.002  0.00  0.00    +0.032 C 
ATOM     13  C   UNL     1       1.285  -0.483  -0.631  0.00  0.00    -0.060 C 
ATOM     14  C   UNL     1       1.259  -1.241  -1.722  0.00  0.00    +0.046 C 
ATOM     15  C   UNL     1       2.498  -1.701  -2.349  0.00  0.00    +0.156 C 
ATOM     16  O   UNL     1       2.453  -2.411  -3.332  0.00  0.00    -0.293 OA
ATOM     17  C   UNL     1       3.830  -1.292  -1.773  0.00  0.00    +0.080 C 
ATOM     18  C   UNL     1       3.670   0.054  -1.058  0.00  0.00    +0.019 C 
ATOM     19  C   UNL     1       2.584  -0.080   0.012  0.00  0.00    -0.007 C 
ATOM     20  C   UNL     1       3.001  -1.142   1.031  0.00  0.00    +0.016 C 
ENDROOT
BRANCH  10  21
ATOM     21  O   UNL     1       3.857   3.547  -1.236  0.00  0.00    -0.280 OA
BRANCH  21  22
ATOM     22  P   UNL     1       5.367   3.785  -1.742  0.00  0.00    +0.532 P 
ATOM     23  O   UNL     1       6.175   4.347  -0.636  0.00  0.00    -0.222 OA
ATOM     24  O   UNL     1       6.002   2.383  -2.212  0.00  0.00    -0.115 OA
ATOM     25  O   UNL     1       5.361   4.814  -2.980  0.00  0.00    -0.115 OA
ENDBRANCH  21  22
ENDBRANCH  10  21
TORSDOF 2
