REMARK  Name = ZINC36543356
REMARK  16 active torsions:
REMARK  status: ('A' for Active; 'I' for Inactive)
REMARK    1  A    between atoms: C_1  and  C_2
REMARK    2  A    between atoms: C_3  and  C_4
REMARK    3  A    between atoms: C_4  and  C_6
REMARK    4  A    between atoms: C_4  and  N_17
REMARK    5  A    between atoms: N_8  and  C_9
REMARK    6  A    between atoms: C_9  and  C_10
REMARK    7  A    between atoms: C_9  and  C_11
REMARK    8  A    between atoms: C_9  and  C_12
REMARK    9  A    between atoms: C_12  and  C_13
REMARK   10  A    between atoms: C_13  and  C_14
REMARK   11  A    between atoms: C_13  and  C_15
REMARK   12  A    between atoms: C_13  and  C_16
REMARK   13  A    between atoms: N_17  and  C_18
REMARK   14  A    between atoms: C_25  and  C_27
REMARK   15  A    between atoms: C_29  and  N_36
REMARK   16  A    between atoms: C_31  and  N_33
REMARK                            x       y       z     vdW  Elec       q    Type
REMARK                         _______ _______ _______ _____ _____    ______ ____
ROOT
ATOM      1  N   UNL     1      -2.475  -0.113  -0.577  0.00  0.00    -0.251 N 
ATOM      2  C   UNL     1      -1.711   0.607   0.269  0.00  0.00    +0.252 C 
ATOM      3  O   UNL     1      -1.194   0.069   1.228  0.00  0.00    -0.270 OA
ENDROOT
BRANCH   1   4
ATOM      4  C   UNL     1      -3.007   0.489  -1.723  0.00  0.00    +0.056 A 
ATOM      5  C   UNL     1      -2.437   0.245  -2.965  0.00  0.00    +0.025 A 
ATOM      6  C   UNL     1      -2.965   0.841  -4.094  0.00  0.00    +0.002 A 
ATOM      7  C   UNL     1      -4.060   1.678  -3.989  0.00  0.00    +0.002 A 
ATOM      8  C   UNL     1      -4.631   1.923  -2.754  0.00  0.00    +0.022 A 
ATOM      9  C   UNL     1      -4.112   1.326  -1.620  0.00  0.00    +0.062 A 
ATOM     10 CL   UNL     1      -4.833   1.628  -0.070  0.00  0.00    -0.082 Cl
ENDBRANCH   1   4
BRANCH   2  11
ATOM     11  C   UNL     1      -1.502   2.051   0.029  0.00  0.00    +0.042 A 
ATOM     12  C   UNL     1      -1.440   2.938   1.105  0.00  0.00    +0.046 A 
ATOM     13  C   UNL     1      -1.244   4.284   0.875  0.00  0.00    +0.129 A 
ATOM     14  C   UNL     1      -1.110   4.755  -0.419  0.00  0.00    +0.065 A 
ATOM     15  C   UNL     1      -1.171   3.881  -1.490  0.00  0.00    +0.129 A 
ATOM     16  C   UNL     1      -1.361   2.532  -1.273  0.00  0.00    +0.046 A 
BRANCH  15  17
ATOM     17  N   UNL     1      -1.027   4.394  -2.871  0.00  0.00    +0.057 N 
ATOM     18  O   UNL     1      -0.856   5.576  -3.062  0.00  0.00    -0.126 OA
ATOM     19  O   UNL     1      -1.081   3.632  -3.808  0.00  0.00    -0.126 OA
ENDBRANCH  15  17
BRANCH  13  20
ATOM     20  N   UNL     1      -1.178   5.226   2.014  0.00  0.00    +0.057 N 
ATOM     21  O   UNL     1      -1.296   4.816   3.146  0.00  0.00    -0.126 OA
ATOM     22  O   UNL     1      -1.007   6.406   1.814  0.00  0.00    -0.126 OA
ENDBRANCH  13  20
ENDBRANCH   2  11
BRANCH   1  23
ATOM     23  C   UNL     1      -2.748  -1.525  -0.297  0.00  0.00    +0.190 C 
BRANCH  23  24
ATOM     24  C   UNL     1      -4.222  -1.712  -0.048  0.00  0.00    +0.238 C 
ATOM     25  O   UNL     1      -4.971  -0.760  -0.100  0.00  0.00    -0.273 OA
ATOM     26  N   UNL     1      -4.708  -2.937   0.232  0.00  0.00    -0.308 N 
ATOM     27  H   UNL     1      -4.109  -3.699   0.273  0.00  0.00    +0.149 HD
BRANCH  26  28
ATOM     28  C   UNL     1      -6.141  -3.119   0.474  0.00  0.00    +0.030 C 
ATOM     29  C   UNL     1      -6.510  -2.514   1.830  0.00  0.00    +0.031 C 
ATOM     30  C   UNL     1      -6.938  -2.421  -0.630  0.00  0.00    +0.031 C 
BRANCH  28  31
ATOM     31  C   UNL     1      -6.473  -4.613   0.475  0.00  0.00    +0.031 C 
BRANCH  31  32
ATOM     32  C   UNL     1      -5.439  -5.365  -0.366  0.00  0.00    -0.036 C 
ATOM     33  C   UNL     1      -4.148  -5.528   0.438  0.00  0.00    +0.010 C 
ATOM     34  C   UNL     1      -5.988  -6.745  -0.735  0.00  0.00    +0.010 C 
ATOM     35  C   UNL     1      -5.148  -4.574  -1.643  0.00  0.00    +0.010 C 
ENDBRANCH  31  32
ENDBRANCH  28  31
ENDBRANCH  26  28
ENDBRANCH  23  24
BRANCH  23  38
ATOM     36  C   UNL     1      -0.912  -3.636   0.050  0.00  0.00    +0.035 C 
ATOM     37  C   UNL     1      -1.438  -3.311  -1.325  0.00  0.00    -0.032 C 
ATOM     38  C   UNL     1      -2.327  -2.361  -1.478  0.00  0.00    +0.000 C 
ENDBRANCH  23  38
ENDBRANCH   1  23
TORSDOF 10
