REMARK  Name = ZINC63994096
REMARK  11 active torsions:
REMARK  status: ('A' for Active; 'I' for Inactive)
REMARK    1  A    between atoms: C_1  and  C_2
REMARK    2  A    between atoms: N_4  and  C_5
REMARK    3  A    between atoms: C_9  and  N_31
REMARK    4  A    between atoms: N_13  and  C_20
REMARK    5  A    between atoms: C_14  and  C_16
REMARK    6  A    between atoms: C_16  and  O_18
REMARK    7  A    between atoms: O_18  and  C_19
REMARK    8  A    between atoms: C_20  and  C_21
REMARK    9  A    between atoms: C_21  and  C_22
REMARK   10  A    between atoms: N_31  and  C_32
REMARK   11  A    between atoms: C_38  and  C_40
REMARK                            x       y       z     vdW  Elec       q    Type
REMARK                         _______ _______ _______ _____ _____    ______ ____
ROOT
ATOM      1  C   UNL     1      -1.072  -2.136   0.013  0.00  0.00    +0.138 C 
ATOM      2  C   UNL     1      -1.042  -2.659  -1.404  0.00  0.00    +0.015 A 
ATOM      3  C   UNL     1      -0.117  -2.493  -2.417  0.00  0.00    +0.033 A 
ATOM      4  C   UNL     1      -0.359  -3.107  -3.645  0.00  0.00    +0.044 A 
ATOM      5  C   UNL     1      -1.516  -3.855  -3.800  0.00  0.00    +0.107 A 
ATOM      6  N   UNL     1      -2.375  -3.990  -2.810  0.00  0.00    -0.348 N 
ATOM      7  C   UNL     1      -2.181  -3.420  -1.621  0.00  0.00    +0.105 A 
ATOM      8  N   UNL     1      -2.988  -3.468  -0.485  0.00  0.00    -0.301 N 
ATOM      9  C   UNL     1      -2.379  -2.692   0.602  0.00  0.00    +0.208 C 
ATOM     10  H   UNL     1      -3.174  -4.520  -2.952  0.00  0.00    +0.167 HD
ENDROOT
BRANCH   1  14
ATOM     11  C   UNL     1       0.046   1.526   0.006  0.00  0.00    +0.109 C 
ATOM     12  C   UNL     1       0.066   0.019   0.001  0.00  0.00    +0.210 C 
ATOM     13  O   UNL     1       1.124  -0.574  -0.018  0.00  0.00    -0.276 OA
ATOM     14  N   UNL     1      -1.092  -0.671   0.018  0.00  0.00    -0.306 N 
ATOM     15  H   UNL     1      -1.938  -0.197   0.033  0.00  0.00    +0.149 HD
ENDBRANCH   1  14
BRANCH   9  16
ATOM     16  C   UNL     1      -3.289  -1.564   1.014  0.00  0.00    +0.330 C 
ATOM     17  O   UNL     1      -4.202  -1.231   0.295  0.00  0.00    -0.249 OA
BRANCH  16  18
ATOM     18  O   UNL     1      -3.087  -0.928   2.178  0.00  0.00    -0.467 OA
ATOM     19  C   UNL     1      -3.988   0.132   2.504  0.00  0.00    +0.280 C 
ENDBRANCH  16  18
ENDBRANCH   9  16
BRANCH   4  20
ATOM     20  N   UNL     1       0.548  -2.969  -4.703  0.00  0.00    -0.340 N 
ATOM     21  H   UNL     1       1.354  -2.443  -4.585  0.00  0.00    +0.146 HD
BRANCH  20  22
ATOM     22  C   UNL     1       0.279  -3.619  -5.988  0.00  0.00    +0.073 C 
ATOM     23  C   UNL     1       0.777  -5.066  -5.941  0.00  0.00    +0.041 C 
ATOM     24  C   UNL     1       0.463  -5.753  -7.274  0.00  0.00    +0.109 C 
ATOM     25  N   UNL     1       1.036  -4.953  -8.364  0.00  0.00    -0.302 N 
ATOM     26  C   UNL     1       0.694  -3.526  -8.449  0.00  0.00    +0.109 C 
ATOM     27  C   UNL     1       1.005  -2.864  -7.103  0.00  0.00    +0.041 C 
ATOM     28  C   UNL     1       1.859  -5.517  -9.270  0.00  0.00    +0.212 C 
ATOM     29  O   UNL     1       2.254  -4.869 -10.217  0.00  0.00    -0.276 OA
ATOM     30  C   UNL     1       2.290  -6.952  -9.107  0.00  0.00    +0.109 C 
ENDBRANCH  20  22
ENDBRANCH   4  20
BRANCH   8  31
ATOM     31  C   UNL     1      -4.259  -4.189  -0.390  0.00  0.00    +0.112 C 
BRANCH  31  32
ATOM     32  C   UNL     1      -4.001  -5.617   0.093  0.00  0.00    +0.052 C 
BRANCH  32  33
ATOM     33  C   UNL     1      -5.309  -6.359   0.191  0.00  0.00    -0.040 C 
ATOM     34  C   UNL     1      -5.858  -7.166  -0.746  0.00  0.00    -0.001 A 
ATOM     35  C   UNL     1      -5.420  -7.578  -2.085  0.00  0.00    +0.010 A 
ATOM     36  C   UNL     1      -6.203  -8.414  -2.803  0.00  0.00    +0.001 A 
ATOM     37  C   UNL     1      -7.420  -8.897  -2.302  0.00  0.00    +0.002 A 
ATOM     38  C   UNL     1      -7.889  -8.564  -1.081  0.00  0.00    +0.026 A 
ATOM     39  C   UNL     1      -7.147  -7.690  -0.239  0.00  0.00    +0.043 A 
ATOM     40  N   UNL     1      -7.385  -7.225   0.963  0.00  0.00    -0.380 N 
ATOM     41  C   UNL     1      -6.270  -6.357   1.358  0.00  0.00    +0.144 C 
ATOM     42  H   UNL     1      -8.166  -7.424   1.503  0.00  0.00    +0.160 HD
ENDBRANCH  32  33
ENDBRANCH  31  32
ENDBRANCH   8  31
TORSDOF 8
