REMARK  Name = ZINC39597639
REMARK  5 active torsions:
REMARK  status: ('A' for Active; 'I' for Inactive)
REMARK    1  A    between atoms: C_7  and  C_10
REMARK    2  A    between atoms: C_10  and  C_11
REMARK    3  A    between atoms: C_11  and  N_12
REMARK    4  A    between atoms: C_13  and  C_15
REMARK    5  A    between atoms: C_26  and  C_28
REMARK                            x       y       z     vdW  Elec       q    Type
REMARK                         _______ _______ _______ _____ _____    ______ ____
ROOT
ATOM      1  C   UNL     1      -5.925   7.709  -2.243  0.00  0.00    +0.100 C 
ATOM      2  C   UNL     1      -4.786   8.360  -1.427  0.00  0.00    +0.121 C 
ATOM      3  N   UNL     1      -3.867   8.919  -2.446  0.00  0.00    -0.296 N 
ATOM      4  C   UNL     1      -4.765   9.469  -3.490  0.00  0.00    +0.115 C 
ATOM      5  C   UNL     1      -5.911   8.442  -3.595  0.00  0.00    -0.004 C 
ATOM      6  C   UNL     1      -7.240   9.156  -3.824  0.00  0.00    -0.010 C 
ATOM      7  C   UNL     1      -7.223   9.828  -5.200  0.00  0.00    -0.082 C 
ATOM      8  N   UNL     1      -7.003   8.815  -6.239  0.00  0.00    +0.379 N 
ATOM      9  C   UNL     1      -5.682   8.199  -6.066  0.00  0.00    -0.082 C 
ATOM     10  C   UNL     1      -5.633   7.458  -4.727  0.00  0.00    -0.010 C 
ATOM     11  C   UNL     1      -2.520   8.928  -2.428  0.00  0.00    +0.247 C 
ATOM     12  O   UNL     1      -1.920   8.324  -1.559  0.00  0.00    -0.270 OA
ATOM     13  H   UNL     1      -7.715   8.104  -6.170  0.00  0.00    -0.086 HD
ATOM     14  H   UNL     1      -7.053   9.251  -7.147  0.00  0.00    -0.086 HD
ENDROOT
BRANCH  11  15
ATOM     15  C   UNL     1      -1.771   9.670  -3.463  0.00  0.00    +0.040 A 
ATOM     16  C   UNL     1      -2.394  10.693  -4.180  0.00  0.00    +0.033 A 
ATOM     17  C   UNL     1      -1.689  11.383  -5.147  0.00  0.00    +0.043 A 
ATOM     18  C   UNL     1      -0.367  11.063  -5.405  0.00  0.00    +0.040 A 
ATOM     19  C   UNL     1       0.256  10.049  -4.697  0.00  0.00    +0.043 A 
ATOM     20  C   UNL     1      -0.436   9.356  -3.724  0.00  0.00    +0.033 A 
ATOM     21 CL   UNL     1       1.914   9.654  -5.028  0.00  0.00    -0.083 Cl
ATOM     22 CL   UNL     1      -2.462  12.655  -6.040  0.00  0.00    -0.083 Cl
ENDBRANCH  11  15
BRANCH   1  24
ATOM     23  N   UNL     1      -6.678   5.394  -2.683  0.00  0.00    -0.315 N 
ATOM     24  C   UNL     1      -5.656   6.240  -2.440  0.00  0.00    +0.218 C 
ATOM     25  O   UNL     1      -4.521   5.818  -2.381  0.00  0.00    -0.275 OA
ATOM     26  H   UNL     1      -7.586   5.732  -2.730  0.00  0.00    +0.149 HD
BRANCH  23  27
ATOM     27  C   UNL     1      -6.416   3.966  -2.874  0.00  0.00    +0.109 C 
BRANCH  27  28
ATOM     28  C   UNL     1      -7.736   3.236  -3.132  0.00  0.00    +0.056 C 
BRANCH  28  35
ATOM     29  C   UNL     1      -7.239  -0.360  -0.165  0.00  0.00    +0.001 A 
ATOM     30  C   UNL     1      -6.995  -1.564  -0.811  0.00  0.00    +0.002 A 
ATOM     31  C   UNL     1      -6.921  -1.622  -2.186  0.00  0.00    +0.026 A 
ATOM     32  C   UNL     1      -7.091  -0.463  -2.936  0.00  0.00    +0.047 A 
ATOM     33  N   UNL     1      -7.074  -0.197  -4.287  0.00  0.00    -0.360 N 
ATOM     34  C   UNL     1      -7.300   1.135  -4.502  0.00  0.00    +0.087 A 
ATOM     35  C   UNL     1      -7.467   1.766  -3.329  0.00  0.00    -0.021 A 
ATOM     36  C   UNL     1      -7.338   0.755  -2.276  0.00  0.00    +0.003 A 
ATOM     37  C   UNL     1      -7.414   0.790  -0.883  0.00  0.00    +0.010 A 
ATOM     38  H   UNL     1      -6.924  -0.856  -4.983  0.00  0.00    +0.165 HD
ENDBRANCH  28  35
ENDBRANCH  27  28
ENDBRANCH  23  27
ENDBRANCH   1  24
TORSDOF 5
