REMARK  Name = ZINC58954613
REMARK  15 active torsions:
REMARK  status: ('A' for Active; 'I' for Inactive)
REMARK    1  A    between atoms: C_1  and  C_2
REMARK    2  A    between atoms: C_2  and  C_3
REMARK    3  A    between atoms: C_3  and  C_4
REMARK    4  A    between atoms: C_4  and  C_6
REMARK    5  A    between atoms: C_4  and  N_22
REMARK    6  A    between atoms: N_8  and  C_9
REMARK    7  A    between atoms: C_9  and  C_10
REMARK    8  A    between atoms: C_10  and  C_12
REMARK    9  A    between atoms: C_10  and  N_17
REMARK   10  A    between atoms: N_17  and  C_18
REMARK   11  A    between atoms: N_17  and  C_20
REMARK   12  A    between atoms: C_18  and  C_19
REMARK   13  A    between atoms: C_20  and  C_21
REMARK   14  A    between atoms: N_25  and  C_26
REMARK   15  A    between atoms: C_26  and  C_27
REMARK                            x       y       z     vdW  Elec       q    Type
REMARK                         _______ _______ _______ _____ _____    ______ ____
ROOT
ATOM      1  C   UNL     1       0.463  -2.274   1.805  0.00  0.00    +0.160 C 
ENDROOT
BRANCH   1   2
ATOM      2  N   UNL     1      -0.777  -3.053   1.776  0.00  0.00    -0.288 N 
ATOM      3  C   UNL     1      -1.673  -2.855   0.788  0.00  0.00    +0.300 C 
ATOM      4  O   UNL     1      -1.452  -2.031  -0.078  0.00  0.00    -0.253 OA
ATOM      5  N   UNL     1      -2.815  -3.571   0.761  0.00  0.00    -0.295 N 
ATOM      6  H   UNL     1      -0.954  -3.710   2.466  0.00  0.00    +0.151 HD
ATOM      7  H   UNL     1      -2.991  -4.229   1.452  0.00  0.00    +0.151 HD
BRANCH   5   8
ATOM      8  C   UNL     1      -3.789  -3.357  -0.312  0.00  0.00    +0.141 C 
BRANCH   8   9
ATOM      9  C   UNL     1      -4.967  -4.275  -0.112  0.00  0.00    -0.030 A 
ATOM     10  C   UNL     1      -4.962  -5.537  -0.676  0.00  0.00    +0.008 A 
ATOM     11  C   UNL     1      -6.041  -6.381  -0.493  0.00  0.00    +0.038 A 
ATOM     12  C   UNL     1      -7.128  -5.961   0.255  0.00  0.00    +0.123 A 
ATOM     13  C   UNL     1      -7.132  -4.697   0.819  0.00  0.00    +0.038 A 
ATOM     14  C   UNL     1      -6.049  -3.857   0.639  0.00  0.00    +0.008 A 
ATOM     15  F   UNL     1      -8.184  -6.784   0.434  0.00  0.00    -0.205 F 
ENDBRANCH   8   9
ENDBRANCH   5   8
ENDBRANCH   1   2
BRANCH   1  16
ATOM     16  C   UNL     1       1.520  -3.041   2.559  0.00  0.00    +0.233 C 
ATOM     17  O   UNL     1       1.262  -4.130   3.025  0.00  0.00    -0.274 OA
ATOM     18  N   UNL     1       2.751  -2.516   2.714  0.00  0.00    -0.315 N 
ATOM     19  H   UNL     1       2.958  -1.645   2.341  0.00  0.00    +0.149 HD
BRANCH  18  20
ATOM     20  C   UNL     1       3.778  -3.261   3.446  0.00  0.00    +0.093 C 
BRANCH  20  21
ATOM     21  C   UNL     1       5.109  -2.512   3.363  0.00  0.00    -0.020 C 
BRANCH  21  22
ATOM     22  C   UNL     1       6.125  -3.193   4.243  0.00  0.00    -0.052 A 
ATOM     23  C   UNL     1       6.411  -2.694   5.500  0.00  0.00    +0.009 A 
ATOM     24  C   UNL     1       7.330  -3.330   6.267  0.00  0.00    +0.045 A 
ATOM     25  S   UNL     1       7.824  -4.679   5.207  0.00  0.00    -0.105 S 
ATOM     26  C   UNL     1       6.769  -4.307   3.816  0.00  0.00    +0.047 A 
ENDBRANCH  21  22
BRANCH  21  27
ATOM     27  N   UNL     1       5.586  -2.514   1.973  0.00  0.00    +0.385 N 
ATOM     28  H   UNL     1       5.614  -3.462   1.629  0.00  0.00    -0.081 HD
BRANCH  27  29
ATOM     29  C   UNL     1       4.673  -1.718   1.141  0.00  0.00    -0.081 C 
ATOM     30  C   UNL     1       4.563  -0.304   1.715  0.00  0.00    -0.017 C 
ENDBRANCH  27  29
BRANCH  27  31
ATOM     31  C   UNL     1       6.933  -1.932   1.917  0.00  0.00    -0.081 C 
ATOM     32  C   UNL     1       7.476  -2.039   0.490  0.00  0.00    -0.017 C 
ENDBRANCH  27  31
ENDBRANCH  21  27
ENDBRANCH  20  21
ENDBRANCH  18  20
ENDBRANCH   1  16
BRANCH   1  33
ATOM     33  C   UNL     1       0.209  -0.936   2.503  0.00  0.00    +0.031 C 
BRANCH  33  35
ATOM     34  C   UNL     1      -1.024   1.232   2.369  0.00  0.00    +0.004 C 
ATOM     35  C   UNL     1      -0.770  -0.105   1.671  0.00  0.00    -0.001 C 
ENDBRANCH  33  35
ENDBRANCH   1  33
TORSDOF 12
