REMARK  Name = ZINC18017163
REMARK  13 active torsions:
REMARK  status: ('A' for Active; 'I' for Inactive)
REMARK    1  A    between atoms: C_1  and  C_2
REMARK    2  A    between atoms: C_2  and  C_3
REMARK    3  A    between atoms: C_6  and  C_9
REMARK    4  A    between atoms: C_9  and  C_11
REMARK    5  A    between atoms: C_9  and  N_63
REMARK    6  A    between atoms: C_11  and  N_12
REMARK    7  A    between atoms: C_13  and  C_15
REMARK    8  A    between atoms: C_18  and  N_21
REMARK    9  A    between atoms: N_21  and  S_22
REMARK   10  A    between atoms: S_22  and  C_25
REMARK   11  A    between atoms: C_29  and  N_31
REMARK   12  A    between atoms: C_34  and  N_63
REMARK   13  A    between atoms: C_35  and  N_63
REMARK                            x       y       z     vdW  Elec       q    Type
REMARK                         _______ _______ _______ _____ _____    ______ ____
ROOT
ATOM      1  C   UNL     1      -3.027   4.354  -2.841  0.00  0.00    +0.037 A 
ATOM      2  C   UNL     1      -2.445   5.518  -2.330  0.00  0.00    +0.015 A 
ATOM      3  C   UNL     1      -1.377   5.429  -1.466  0.00  0.00    +0.025 A 
ATOM      4  C   UNL     1      -0.876   4.183  -1.102  0.00  0.00    +0.048 A 
ATOM      5  C   UNL     1      -1.450   3.022  -1.614  0.00  0.00    +0.025 A 
ATOM      6  C   UNL     1      -2.522   3.104  -2.474  0.00  0.00    +0.015 A 
ENDROOT
BRANCH   1   8
ATOM      7  N   UNL     1      -4.732   3.323  -4.259  0.00  0.00    -0.313 N 
ATOM      8  C   UNL     1      -4.172   4.446  -3.767  0.00  0.00    +0.244 C 
ATOM      9  O   UNL     1      -4.611   5.535  -4.085  0.00  0.00    -0.270 OA
ATOM     10  H   UNL     1      -4.382   2.455  -4.005  0.00  0.00    +0.149 HD
BRANCH   7  11
ATOM     11  C   UNL     1      -5.869   3.414  -5.178  0.00  0.00    +0.094 C 
BRANCH  11  12
ATOM     12  C   UNL     1      -6.311   2.007  -5.584  0.00  0.00    -0.021 C 
BRANCH  12  16
ATOM     13  C   UNL     1      -9.394   2.275  -8.528  0.00  0.00    -0.048 A 
ATOM     14  C   UNL     1      -8.267   3.067  -8.634  0.00  0.00    +0.004 A 
ATOM     15  C   UNL     1      -7.269   2.981  -7.682  0.00  0.00    +0.002 A 
ATOM     16  C   UNL     1      -7.399   2.102  -6.623  0.00  0.00    -0.059 A 
ATOM     17  C   UNL     1      -8.524   1.305  -6.519  0.00  0.00    +0.002 A 
ATOM     18  C   UNL     1      -9.524   1.396  -7.469  0.00  0.00    +0.004 A 
BRANCH  13  20
ATOM     19  C   UNL     1     -10.200   1.371 -10.693  0.00  0.00    +0.009 C 
ATOM     20  C   UNL     1     -10.482   2.369  -9.567  0.00  0.00    +0.032 C 
ENDBRANCH  13  20
ENDBRANCH  12  16
BRANCH  12  23
ATOM     21  C   UNL     1      -5.441  -0.166  -6.206  0.00  0.00    -0.096 C 
ATOM     22  C   UNL     1      -4.796   1.802  -7.462  0.00  0.00    -0.096 C 
ATOM     23  N   UNL     1      -5.142   1.280  -6.123  0.00  0.00    +0.382 N 
ATOM     24  H   UNL     1      -4.343   1.419  -5.494  0.00  0.00    -0.082 HD
ENDBRANCH  12  23
ENDBRANCH  11  12
ENDBRANCH   7  11
ENDBRANCH   1   8
BRANCH   4  25
ATOM     25  N   UNL     1       0.203   4.096  -0.230  0.00  0.00    -0.216 N 
ATOM     26  H   UNL     1       1.081   3.858  -0.566  0.00  0.00    +0.174 HD
BRANCH  25  27
ATOM     27  S   UNL     1      -0.011   4.399   1.385  0.00  0.00    +0.072 S 
ATOM     28  O   UNL     1      -0.689   5.645   1.478  0.00  0.00    -0.150 OA
ATOM     29  O   UNL     1       1.242   4.165   2.011  0.00  0.00    -0.150 OA
BRANCH  27  30
ATOM     30  C   UNL     1      -1.119   3.176   2.002  0.00  0.00    +0.111 A 
ATOM     31  C   UNL     1      -0.638   1.938   2.385  0.00  0.00    +0.029 A 
ATOM     32  C   UNL     1      -1.508   0.978   2.869  0.00  0.00    +0.004 A 
ATOM     33  C   UNL     1      -2.858   1.256   2.969  0.00  0.00    +0.033 A 
ATOM     34  C   UNL     1      -3.340   2.492   2.581  0.00  0.00    +0.128 A 
ATOM     35  C   UNL     1      -2.470   3.454   2.102  0.00  0.00    +0.061 A 
BRANCH  34  36
ATOM     36  N   UNL     1      -4.787   2.788   2.682  0.00  0.00    +0.056 N 
ATOM     37  O   UNL     1      -5.553   1.942   3.108  0.00  0.00    -0.126 OA
ATOM     38  O   UNL     1      -5.211   3.877   2.340  0.00  0.00    -0.126 OA
ENDBRANCH  34  36
ENDBRANCH  27  30
ENDBRANCH  25  27
ENDBRANCH   4  25
TORSDOF 10
