REMARK  Name = ZINC22429289
REMARK  10 active torsions:
REMARK  status: ('A' for Active; 'I' for Inactive)
REMARK    1  A    between atoms: C_1  and  C_2
REMARK    2  A    between atoms: C_7  and  N_8
REMARK    3  A    between atoms: N_8  and  C_9
REMARK    4  A    between atoms: N_8  and  S_26
REMARK    5  A    between atoms: C_9  and  C_10
REMARK    6  A    between atoms: N_12  and  C_13
REMARK    7  A    between atoms: C_13  and  C_14
REMARK    8  A    between atoms: C_17  and  N_20
REMARK    9  A    between atoms: C_24  and  C_25
REMARK   10  A    between atoms: S_26  and  C_29
REMARK                            x       y       z     vdW  Elec       q    Type
REMARK                         _______ _______ _______ _____ _____    ______ ____
ROOT
ATOM      1  C   UNL     1       5.013  -0.367  -1.742  0.00  0.00    +0.227 C 
ENDROOT
BRANCH   1   2
ATOM      2  C   UNL     1       6.399  -0.892  -1.472  0.00  0.00    +0.232 C 
ATOM      3  O   UNL     1       6.545  -1.956  -0.908  0.00  0.00    -0.274 OA
ATOM      4  N   UNL     1       7.476  -0.180  -1.856  0.00  0.00    -0.310 N 
ATOM      5  H   UNL     1       7.344   0.785  -2.368  0.00  0.00    +0.149 HD
BRANCH   4   6
ATOM      6  C   UNL     1       8.824  -0.691  -1.593  0.00  0.00    +0.139 C 
BRANCH   6   7
ATOM      7  C   UNL     1       9.843   0.287  -2.118  0.00  0.00    -0.030 A 
ATOM      8  C   UNL     1      10.308   0.170  -3.415  0.00  0.00    +0.007 A 
ATOM      9  C   UNL     1      11.239   1.068  -3.901  0.00  0.00    +0.026 A 
ATOM     10  C   UNL     1      11.715   2.082  -3.082  0.00  0.00    +0.048 A 
ATOM     11  C   UNL     1      11.251   2.195  -1.779  0.00  0.00    +0.026 A 
ATOM     12  C   UNL     1      10.316   1.297  -1.300  0.00  0.00    +0.007 A 
BRANCH  10  13
ATOM     13  N   UNL     1      12.664   2.992  -3.571  0.00  0.00    -0.305 N 
ATOM     14  C   UNL     1      12.597   4.360  -3.494  0.00  0.00    +0.110 A 
ATOM     15  C   UNL     1      13.709   4.838  -4.083  0.00  0.00    +0.102 A 
ATOM     16  N   UNL     1      14.438   3.797  -4.510  0.00  0.00    -0.350 N 
ATOM     17  C   UNL     1      13.825   2.686  -4.204  0.00  0.00    +0.088 A 
ATOM     18  C   UNL     1      14.322   1.296  -4.507  0.00  0.00    +0.084 C 
ATOM     19  H   UNL     1      15.393   3.970  -5.028  0.00  0.00    +0.166 HD
ENDBRANCH  10  13
ENDBRANCH   6   7
ENDBRANCH   4   6
ENDBRANCH   1   2
BRANCH   1  20
ATOM     20  N   UNL     1       4.022  -1.318  -1.232  0.00  0.00    -0.194 N 
BRANCH  20  27
ATOM     21  C   UNL     1       1.748  -0.986  -2.909  0.00  0.00    +0.046 C 
ATOM     22  C   UNL     1       2.516  -2.281  -2.853  0.00  0.00    -0.026 A 
ATOM     23  C   UNL     1       2.126  -3.351  -3.636  0.00  0.00    +0.025 A 
ATOM     24  C   UNL     1       2.826  -4.542  -3.581  0.00  0.00    +0.041 A 
ATOM     25  C   UNL     1       3.924  -4.665  -2.747  0.00  0.00    +0.022 A 
ATOM     26  C   UNL     1       4.323  -3.597  -1.967  0.00  0.00    +0.026 A 
ATOM     27  C   UNL     1       3.621  -2.400  -2.020  0.00  0.00    +0.055 A 
ATOM     28 CL   UNL     1       2.328  -5.886  -4.560  0.00  0.00    -0.084 Cl
ENDBRANCH  20  27
BRANCH  20  29
ATOM     29  S   UNL     1       3.377  -1.110   0.279  0.00  0.00    +0.075 S 
ATOM     30  O   UNL     1       4.239  -0.216   0.969  0.00  0.00    -0.150 OA
ATOM     31  O   UNL     1       3.073  -2.408   0.773  0.00  0.00    -0.150 OA
BRANCH  29  32
ATOM     32  C   UNL     1       1.839  -0.274   0.079  0.00  0.00    +0.109 A 
ATOM     33  C   UNL     1       0.658  -0.992   0.067  0.00  0.00    +0.029 A 
ATOM     34  C   UNL     1      -0.548  -0.336  -0.090  0.00  0.00    +0.002 A 
ATOM     35  C   UNL     1      -0.574   1.039  -0.234  0.00  0.00    +0.000 A 
ATOM     36  C   UNL     1       0.608   1.757  -0.221  0.00  0.00    +0.002 A 
ATOM     37  C   UNL     1       1.814   1.101  -0.064  0.00  0.00    +0.029 A 
ENDBRANCH  29  32
ENDBRANCH  20  29
ENDBRANCH   1  20
TORSDOF 8
