REMARK  Name = ZINC09120187
REMARK  13 active torsions:
REMARK  status: ('A' for Active; 'I' for Inactive)
REMARK    1  A    between atoms: C_1  and  C_2
REMARK    2  A    between atoms: C_2  and  C_3
REMARK    3  A    between atoms: C_2  and  C_4
REMARK    4  A    between atoms: C_4  and  N_5
REMARK    5  A    between atoms: N_5  and  S_6
REMARK    6  A    between atoms: S_6  and  C_9
REMARK    7  A    between atoms: C_11  and  C_17
REMARK    8  A    between atoms: N_19  and  C_20
REMARK    9  A    between atoms: C_20  and  C_21
REMARK   10  A    between atoms: C_21  and  C_23
REMARK   11  A    between atoms: C_21  and  N_57
REMARK   12  A    between atoms: C_29  and  N_57
REMARK   13  A    between atoms: C_30  and  N_57
REMARK                            x       y       z     vdW  Elec       q    Type
REMARK                         _______ _______ _______ _____ _____    ______ ____
ROOT
ATOM      1  C   UNL     1      -1.417   1.851  -0.916  0.00  0.00    +0.124 A 
ATOM      2  C   UNL     1      -2.453   1.812  -1.825  0.00  0.00    +0.044 A 
ATOM      3  C   UNL     1      -2.762   2.948  -2.577  0.00  0.00    +0.057 A 
ATOM      4  C   UNL     1      -2.010   4.115  -2.410  0.00  0.00    +0.055 A 
ATOM      5  C   UNL     1      -0.972   4.139  -1.500  0.00  0.00    +0.042 A 
ATOM      6  C   UNL     1      -0.675   3.010  -0.755  0.00  0.00    +0.069 A 
ATOM      7 CL   UNL     1       0.631   3.047   0.387  0.00  0.00    -0.081 Cl
ATOM      8 CL   UNL     1      -2.381   5.530  -3.344  0.00  0.00    -0.083 Cl
ENDROOT
BRANCH   3   9
ATOM      9  C   UNL     1      -3.874   2.915  -3.548  0.00  0.00    +0.246 C 
ATOM     10  O   UNL     1      -4.138   3.904  -4.204  0.00  0.00    -0.270 OA
ATOM     11  N   UNL     1      -4.597   1.788  -3.707  0.00  0.00    -0.313 N 
ATOM     12  H   UNL     1      -4.386   0.999  -3.183  0.00  0.00    +0.149 HD
BRANCH  11  13
ATOM     13  C   UNL     1      -5.701   1.756  -4.670  0.00  0.00    +0.094 C 
BRANCH  13  14
ATOM     14  C   UNL     1      -6.351   0.371  -4.654  0.00  0.00    -0.021 C 
BRANCH  14  15
ATOM     15  C   UNL     1      -7.404   0.298  -5.729  0.00  0.00    -0.059 A 
ATOM     16  C   UNL     1      -8.662  -0.192  -5.432  0.00  0.00    +0.002 A 
ATOM     17  C   UNL     1      -9.630  -0.255  -6.417  0.00  0.00    +0.000 A 
ATOM     18  C   UNL     1      -9.336   0.163  -7.701  0.00  0.00    +0.000 A 
ATOM     19  C   UNL     1      -8.077   0.649  -8.000  0.00  0.00    +0.000 A 
ATOM     20  C   UNL     1      -7.111   0.716  -7.013  0.00  0.00    +0.002 A 
ENDBRANCH  14  15
BRANCH  14  23
ATOM     21  C   UNL     1      -5.876  -2.003  -4.712  0.00  0.00    -0.096 C 
ATOM     22  C   UNL     1      -4.746  -0.504  -6.242  0.00  0.00    -0.096 C 
ATOM     23  N   UNL     1      -5.306  -0.650  -4.882  0.00  0.00    +0.382 N 
ATOM     24  H   UNL     1      -4.554  -0.516  -4.196  0.00  0.00    -0.082 HD
ENDBRANCH  14  23
ENDBRANCH  13  14
ENDBRANCH  11  13
ENDBRANCH   3   9
BRANCH   1  25
ATOM     25  S   UNL     1      -1.031   0.421   0.038  0.00  0.00    +0.060 S 
ATOM     26  O   UNL     1      -1.938  -0.595  -0.369  0.00  0.00    -0.153 OA
ATOM     27  O   UNL     1      -0.924   0.850   1.388  0.00  0.00    -0.153 OA
BRANCH  25  28
ATOM     28  N   UNL     1       0.478  -0.081  -0.421  0.00  0.00    -0.190 NA
ATOM     29  H   UNL     1       0.592  -0.938  -0.861  0.00  0.00    +0.148 HD
BRANCH  28  30
ATOM     30  C   UNL     1       1.642   0.772  -0.168  0.00  0.00    +0.109 C 
BRANCH  30  32
ATOM     31  C   UNL     1       3.054  -0.490  -1.798  0.00  0.00    +0.008 C 
ATOM     32  C   UNL     1       2.923  -0.048  -0.339  0.00  0.00    -0.002 C 
ATOM     33  C   UNL     1       4.131   0.808   0.046  0.00  0.00    +0.008 C 
ENDBRANCH  30  32
ENDBRANCH  28  30
ENDBRANCH  25  28
ENDBRANCH   1  25
TORSDOF 9
