REMARK  Name = ZINC02389850
REMARK  8 active torsions:
REMARK  status: ('A' for Active; 'I' for Inactive)
REMARK    1  A    between atoms: C_1  and  N_46
REMARK    2  A    between atoms: C_2  and  N_46
REMARK    3  A    between atoms: C_3  and  C_4
REMARK    4  A    between atoms: C_3  and  N_46
REMARK    5  A    between atoms: C_5  and  C_15
REMARK    6  A    between atoms: N_17  and  N_18
REMARK    7  A    between atoms: C_19  and  C_20
REMARK    8  A    between atoms: C_23  and  C_26
REMARK                            x       y       z     vdW  Elec       q    Type
REMARK                         _______ _______ _______ _____ _____    ______ ____
ROOT
ATOM      1  C   UNL     1      -0.497   5.389   0.046  0.00  0.00    +0.063 A 
ATOM      2  C   UNL     1       0.764   5.914   0.054  0.00  0.00    +0.170 A 
ATOM      3  N   UNL     1       1.647   4.901   0.042  0.00  0.00    -0.124 NA
ATOM      4  N   UNL     1       1.016   3.778   0.032  0.00  0.00    -0.058 NA
ATOM      5  N   UNL     1      -0.360   4.045   0.038  0.00  0.00    -0.194 N 
ATOM      6  C   UNL     1      -1.393   3.100   0.031  0.00  0.00    +0.240 A 
ATOM      7  C   UNL     1      -1.224   1.645   0.017  0.00  0.00    +0.206 A 
ATOM      8  N   UNL     1      -2.408   1.094   0.020  0.00  0.00    -0.032 NA
ATOM      9  O   UNL     1      -3.369   2.134   0.030  0.00  0.00    -0.239 OA
ATOM     10  N   UNL     1      -2.669   3.366   0.034  0.00  0.00    -0.027 NA
ATOM     11  N   UNL     1      -0.011   0.966   0.007  0.00  0.00    -0.337 N 
ATOM     12  H   UNL     1       0.002  -0.004   0.002  0.00  0.00    +0.144 HD
ATOM     13  H   UNL     1       0.822   1.462   0.002  0.00  0.00    +0.144 HD
ENDROOT
BRANCH   2  14
ATOM     14  C   UNL     1       1.100   7.350   0.067  0.00  0.00    +0.285 C 
ATOM     15  O   UNL     1       0.213   8.182   0.078  0.00  0.00    -0.267 OA
ATOM     16  N   UNL     1       2.390   7.740   0.068  0.00  0.00    -0.202 N 
ATOM     17  H   UNL     1       3.097   7.077   0.060  0.00  0.00    +0.178 HD
BRANCH  16  18
ATOM     18  N   UNL     1       2.709   9.105   0.081  0.00  0.00    -0.187 NA
ATOM     19  C   UNL     1       3.951   9.480   0.081  0.00  0.00    +0.138 C 
BRANCH  19  20
ATOM     20  C   UNL     1       4.287  10.916   0.094  0.00  0.00    -0.005 A 
ATOM     21  C   UNL     1       3.271  11.875   0.100  0.00  0.00    +0.010 A 
ATOM     22  C   UNL     1       3.592  13.216   0.117  0.00  0.00    +0.013 A 
ATOM     23  C   UNL     1       4.918  13.613   0.118  0.00  0.00    +0.055 A 
ATOM     24  C   UNL     1       5.930  12.669   0.107  0.00  0.00    +0.013 A 
ATOM     25  C   UNL     1       5.623  11.325   0.095  0.00  0.00    +0.010 A 
BRANCH  23  26
ATOM     26  C   UNL     1       5.261  15.080   0.131  0.00  0.00    +0.417 C 
ATOM     27  F   UNL     1       5.364  15.547  -1.184  0.00  0.00    -0.166 F 
ATOM     28  F   UNL     1       4.257  15.788   0.800  0.00  0.00    -0.166 F 
ATOM     29  F   UNL     1       6.481  15.268   0.790  0.00  0.00    -0.166 F 
ENDBRANCH  23  26
ENDBRANCH  19  20
ENDBRANCH  16  18
ENDBRANCH   2  14
BRANCH   1  30
ATOM     30  C   UNL     1      -1.792   6.161   0.050  0.00  0.00    -0.021 C 
BRANCH  30  33
ATOM     31  C   UNL     1      -1.273   7.296   2.124  0.00  0.00    -0.096 C 
ATOM     32  C   UNL     1      -3.581   6.940   1.483  0.00  0.00    -0.096 C 
ATOM     33  N   UNL     1      -2.214   6.378   1.449  0.00  0.00    +0.380 N 
ATOM     34  H   UNL     1      -2.212   5.477   1.942  0.00  0.00    -0.082 HD
ENDBRANCH  30  33
ENDBRANCH   1  30
TORSDOF 6
