REMARK  Name = ZINC49765417
REMARK  6 active torsions:
REMARK  status: ('A' for Active; 'I' for Inactive)
REMARK    1  A    between atoms: C_1  and  C_2
REMARK    2  A    between atoms: N_11  and  C_15
REMARK    3  A    between atoms: C_15  and  C_16
REMARK    4  A    between atoms: C_16  and  N_18
REMARK    5  A    between atoms: N_25  and  C_28
REMARK    6  A    between atoms: C_28  and  C_29
REMARK                            x       y       z     vdW  Elec       q    Type
REMARK                         _______ _______ _______ _____ _____    ______ ____
ROOT
ATOM      1  N   UNL     1       4.425   3.708   2.515  0.00  0.00    -0.155 NA
ATOM      2  C   UNL     1       4.415   4.943   2.008  0.00  0.00    +0.163 A 
ATOM      3  N   UNL     1       3.475   5.523   1.216  0.00  0.00    -0.339 N 
ATOM      4  C   UNL     1       3.648   6.813   0.796  0.00  0.00    +0.024 A 
ATOM      5  C   UNL     1       4.775   7.408   1.221  0.00  0.00    -0.004 A 
ATOM      6  S   UNL     1       5.560   6.162   2.201  0.00  0.00    -0.059 S 
ATOM      7  C   UNL     1       5.222   8.799   0.915  0.00  0.00    -0.033 C 
ATOM      8  N   UNL     1       4.430   9.302  -0.224  0.00  0.00    +0.386 N 
ATOM      9  C   UNL     1       3.002   9.074   0.035  0.00  0.00    -0.072 C 
ATOM     10  C   UNL     1       2.674   7.582  -0.087  0.00  0.00    +0.035 C 
ATOM     11  H   UNL     1       2.686   5.026   0.950  0.00  0.00    +0.167 HD
ATOM     12  H   UNL     1       4.702   8.814  -1.064  0.00  0.00    -0.081 HD
ENDROOT
BRANCH   1  13
ATOM     13  C   UNL     1       3.425   2.876   2.253  0.00  0.00    +0.256 C 
ATOM     14  O   UNL     1       2.500   3.238   1.552  0.00  0.00    -0.272 OA
BRANCH  13  15
ATOM     15  C   UNL     1       3.436   1.482   2.825  0.00  0.00    +0.215 C 
BRANCH  15  25
ATOM     16  C   UNL     1      -0.019   1.526   0.010  0.00  0.00    +0.010 C 
ATOM     17  C   UNL     1       0.002  -0.004   0.002  0.00  0.00    +0.018 C 
ATOM     18  C   UNL     1      -1.434  -0.534   0.012  0.00  0.00    +0.006 C 
ATOM     19  C   UNL     1      -1.412  -2.064   0.024  0.00  0.00    +0.000 C 
ATOM     20  C   UNL     1      -0.687  -2.556   1.279  0.00  0.00    +0.003 C 
ATOM     21  C   UNL     1       0.752  -2.033   1.273  0.00  0.00    +0.035 C 
ATOM     22  C   UNL     1       0.740  -0.509   1.237  0.00  0.00    +0.115 C 
ATOM     23  C   UNL     1       2.151   0.030   1.266  0.00  0.00    +0.247 C 
ATOM     24  O   UNL     1       3.026  -0.158   0.448  0.00  0.00    -0.273 OA
ATOM     25  N   UNL     1       2.233   0.767   2.394  0.00  0.00    -0.215 N 
ATOM     26  C   UNL     1       1.077   0.763   3.069  0.00  0.00    +0.310 C 
ATOM     27  O   UNL     1       0.904   1.356   4.116  0.00  0.00    -0.252 OA
ATOM     28  N   UNL     1       0.127   0.030   2.458  0.00  0.00    -0.285 N 
ATOM     29  H   UNL     1      -0.782  -0.114   2.764  0.00  0.00    +0.151 HD
ENDBRANCH  15  25
ENDBRANCH  13  15
ENDBRANCH   1  13
BRANCH   8  30
ATOM     30  C   UNL     1       4.674  10.741  -0.392  0.00  0.00    -0.043 C 
BRANCH  30  31
ATOM     31  C   UNL     1       6.113  10.965  -0.778  0.00  0.00    -0.064 A 
ATOM     32  C   UNL     1       7.071  11.147   0.202  0.00  0.00    +0.002 A 
ATOM     33  C   UNL     1       8.392  11.353  -0.152  0.00  0.00    +0.000 A 
ATOM     34  C   UNL     1       8.754  11.375  -1.485  0.00  0.00    +0.000 A 
ATOM     35  C   UNL     1       7.797  11.192  -2.465  0.00  0.00    +0.000 A 
ATOM     36  C   UNL     1       6.477  10.982  -2.111  0.00  0.00    +0.002 A 
ENDBRANCH  30  31
ENDBRANCH   8  30
TORSDOF 5
