REMARK  Name = ZINC38143730
REMARK  18 active torsions:
REMARK  status: ('A' for Active; 'I' for Inactive)
REMARK    1  A    between atoms: C_1  and  C_2
REMARK    2  A    between atoms: C_4  and  O_43
REMARK    3  A    between atoms: C_6  and  C_32
REMARK    4  A    between atoms: C_8  and  C_31
REMARK    5  A    between atoms: C_12  and  C_30
REMARK    6  A    between atoms: C_21  and  O_29
REMARK    7  A    between atoms: C_23  and  O_28
REMARK    8  A    between atoms: C_25  and  C_26
REMARK    9  A    between atoms: C_25  and  C_27
REMARK   10  A    between atoms: C_32  and  C_33
REMARK   11  A    between atoms: C_32  and  C_34
REMARK   12  A    between atoms: C_32  and  O_42
REMARK   13  A    between atoms: C_34  and  C_36
REMARK   14  A    between atoms: C_36  and  C_37
REMARK   15  A    between atoms: C_37  and  C_38
REMARK   16  A    between atoms: C_38  and  C_39
REMARK   17  A    between atoms: C_38  and  C_40
REMARK   18  A    between atoms: C_38  and  O_41
REMARK                            x       y       z     vdW  Elec       q    Type
REMARK                         _______ _______ _______ _____ _____    ______ ____
ROOT
ATOM      1  C   UNL     1       0.308   1.191  -1.585  0.00  0.00    +0.012 C 
ATOM      2  C   UNL     1       0.680  -0.261  -1.980  0.00  0.00    -0.020 C 
ATOM      3  C   UNL     1       1.611  -0.158  -3.199  0.00  0.00    +0.039 C 
ATOM      4  C   UNL     1       2.943   0.339  -2.574  0.00  0.00    +0.122 C 
ATOM      5  C   UNL     1       2.916  -0.077  -1.084  0.00  0.00    +0.063 C 
ATOM      6  C   UNL     1       1.610  -0.866  -0.915  0.00  0.00    -0.011 C 
ATOM      7  C   UNL     1       0.952  -0.853   0.438  0.00  0.00    +0.082 C 
ATOM      8  C   UNL     1      -0.512  -1.266   0.338  0.00  0.00    +0.141 C 
ATOM      9  O   UNL     1      -1.220  -1.182   1.332  0.00  0.00    -0.297 OA
ATOM     10  C   UNL     1      -1.091  -1.784  -0.947  0.00  0.00    +0.036 C 
ATOM     11  C   UNL     1      -0.612  -0.972  -2.143  0.00  0.00    +0.013 C 
ATOM     12  C   UNL     1      -0.874  -1.744  -3.425  0.00  0.00    +0.032 C 
ATOM     13  C   UNL     1      -2.360  -2.042  -3.438  0.00  0.00    -0.026 C 
ATOM     14  C   UNL     1      -3.112  -1.983  -2.385  0.00  0.00    -0.061 C 
ATOM     15  C   UNL     1      -2.620  -1.697  -0.978  0.00  0.00    +0.031 C 
ATOM     16  C   UNL     1      -3.167  -0.350  -0.539  0.00  0.00    +0.042 C 
ATOM     17  C   UNL     1      -4.652  -0.263  -0.911  0.00  0.00    +0.144 C 
ATOM     18  C   UNL     1      -5.234  -1.642  -1.207  0.00  0.00    +0.153 C 
ATOM     19  C   UNL     1      -4.609  -2.232  -2.482  0.00  0.00    +0.015 C 
ATOM     20  C   UNL     1      -5.197  -1.545  -3.715  0.00  0.00    +0.018 C 
ATOM     21  C   UNL     1      -4.883  -3.737  -2.544  0.00  0.00    +0.018 C 
ATOM     22  C   UNL     1      -0.797  -3.282  -1.079  0.00  0.00    +0.020 C 
ATOM     23  C   UNL     1       2.016  -2.309  -1.287  0.00  0.00    +0.012 C 
ENDROOT
BRANCH  18  24
ATOM     24  O   UNL     1      -6.649  -1.531  -1.386  0.00  0.00    -0.388 OA
ATOM     25  H   UNL     1      -7.116  -1.183  -0.615  0.00  0.00    +0.210 HD
ENDBRANCH  18  24
BRANCH  17  26
ATOM     26  O   UNL     1      -5.365   0.318   0.185  0.00  0.00    -0.389 OA
ATOM     27  H   UNL     1      -5.069   1.208   0.419  0.00  0.00    +0.210 HD
ENDBRANCH  17  26
BRANCH   5  28
ATOM     28  C   UNL     1       3.073   1.103  -0.147  0.00  0.00    +0.126 C 
ATOM     29  C   UNL     1       4.378   1.836  -0.463  0.00  0.00    +0.050 C 
BRANCH  28  30
ATOM     30  C   UNL     1       3.105   0.613   1.278  0.00  0.00    +0.165 C 
ATOM     31  O   UNL     1       3.537  -0.487   1.528  0.00  0.00    -0.294 OA
BRANCH  30  32
ATOM     32  C   UNL     1       2.597   1.494   2.389  0.00  0.00    +0.080 C 
BRANCH  32  33
ATOM     33  C   UNL     1       2.741   0.763   3.726  0.00  0.00    +0.042 C 
BRANCH  33  34
ATOM     34  C   UNL     1       2.225   1.657   4.855  0.00  0.00    +0.061 C 
ATOM     35  C   UNL     1       2.483   0.979   6.202  0.00  0.00    +0.041 C 
ATOM     36  C   UNL     1       2.954   3.002   4.813  0.00  0.00    +0.041 C 
BRANCH  34  37
ATOM     37  O   UNL     1       0.822   1.871   4.690  0.00  0.00    -0.389 OA
ATOM     38  H   UNL     1       0.296   1.060   4.706  0.00  0.00    +0.210 HD
ENDBRANCH  34  37
ENDBRANCH  33  34
ENDBRANCH  32  33
ENDBRANCH  30  32
ENDBRANCH  28  30
BRANCH  28  39
ATOM     39  O   UNL     1       1.971   1.997  -0.318  0.00  0.00    -0.381 OA
ATOM     40  H   UNL     1       1.217   1.807   0.257  0.00  0.00    +0.211 HD
ENDBRANCH  28  39
ENDBRANCH   5  28
BRANCH   4  41
ATOM     41  O   UNL     1       3.069   1.753  -2.704  0.00  0.00    -0.391 OA
ATOM     42  H   UNL     1       3.086   2.064  -3.620  0.00  0.00    +0.210 HD
ENDBRANCH   4  41
TORSDOF 10
