REMARK  Name = ZINC15231388
REMARK  7 active torsions:
REMARK  status: ('A' for Active; 'I' for Inactive)
REMARK    1  A    between atoms: C_6  and  C_7
REMARK    2  A    between atoms: C_7  and  C_8
REMARK    3  A    between atoms: N_10  and  C_15
REMARK    4  A    between atoms: N_13  and  N_14
REMARK    5  A    between atoms: C_15  and  C_16
REMARK    6  A    between atoms: N_18  and  N_19
REMARK    7  A    between atoms: C_20  and  C_21
REMARK                            x       y       z     vdW  Elec       q    Type
REMARK                         _______ _______ _______ _____ _____    ______ ____
ROOT
ATOM      1  C   UNL     1       0.661  -2.057   0.347  0.00  0.00    +0.156 A 
ATOM      2  N   UNL     1       0.996  -0.825   0.553  0.00  0.00    -0.151 NA
ATOM      3  N   UNL     1       0.002  -0.004   0.002  0.00  0.00    -0.203 N 
ATOM      4  C   UNL     1      -0.936  -0.814  -0.532  0.00  0.00    +0.364 A 
ATOM      5  O   UNL     1      -1.956  -0.461  -1.097  0.00  0.00    -0.243 OA
ATOM      6  N   UNL     1      -0.535  -2.085  -0.329  0.00  0.00    -0.201 N 
ENDROOT
BRANCH   6   7
ATOM      7  N   UNL     1      -1.205  -3.208  -0.723  0.00  0.00    -0.293 N 
ATOM      8  H   UNL     1      -2.060  -2.969  -1.203  0.00  0.00    +0.163 HD
ATOM      9  H   UNL     1      -0.620  -3.795  -1.298  0.00  0.00    +0.163 HD
ENDBRANCH   6   7
BRANCH   1  10
ATOM     10  C   UNL     1       1.452  -3.265   0.779  0.00  0.00    +0.113 C 
BRANCH  10  16
ATOM     11  C   UNL     1       3.866  -2.605   0.777  0.00  0.00    +0.005 A 
ATOM     12  C   UNL     1       5.012  -2.190   1.429  0.00  0.00    +0.020 A 
ATOM     13  C   UNL     1       4.997  -1.998   2.799  0.00  0.00    +0.041 A 
ATOM     14  C   UNL     1       3.833  -2.216   3.515  0.00  0.00    +0.020 A 
ATOM     15  C   UNL     1       2.686  -2.626   2.861  0.00  0.00    +0.005 A 
ATOM     16  C   UNL     1       2.702  -2.818   1.492  0.00  0.00    -0.040 A 
ATOM     17 CL   UNL     1       6.437  -1.482   3.620  0.00  0.00    -0.084 Cl
ENDBRANCH  10  16
ENDBRANCH   1  10
BRANCH   3  18
ATOM     18  C   UNL     1      -0.018   1.461   0.010  0.00  0.00    +0.246 C 
BRANCH  18  19
ATOM     19  C   UNL     1      -0.723   1.947   1.250  0.00  0.00    +0.254 C 
ATOM     20  O   UNL     1      -1.166   1.148   2.049  0.00  0.00    -0.272 OA
ATOM     21  N   UNL     1      -0.862   3.269   1.472  0.00  0.00    -0.205 N 
ATOM     22  H   UNL     1      -0.508   3.908   0.833  0.00  0.00    +0.177 HD
BRANCH  21  23
ATOM     23  N   UNL     1      -1.518   3.721   2.624  0.00  0.00    -0.188 NA
ATOM     24  C   UNL     1      -1.652   4.994   2.838  0.00  0.00    +0.139 C 
BRANCH  24  25
ATOM     25  C   UNL     1      -2.342   5.469   4.051  0.00  0.00    +0.013 A 
ATOM     26  C   UNL     1      -2.488   6.839   4.284  0.00  0.00    +0.012 A 
ATOM     27  C   UNL     1      -3.134   7.277   5.420  0.00  0.00    +0.021 A 
ATOM     28  C   UNL     1      -3.638   6.363   6.331  0.00  0.00    +0.042 A 
ATOM     29  C   UNL     1      -3.498   5.004   6.107  0.00  0.00    +0.040 A 
ATOM     30  C   UNL     1      -2.858   4.551   4.970  0.00  0.00    +0.051 A 
ATOM     31 CL   UNL     1      -2.689   2.847   4.687  0.00  0.00    -0.083 Cl
ATOM     32 CL   UNL     1      -4.451   6.924   7.759  0.00  0.00    -0.083 Cl
ENDBRANCH  24  25
ENDBRANCH  21  23
ENDBRANCH  18  19
ENDBRANCH   3  18
TORSDOF 7
