REMARK  Name = ZINC00781327
REMARK  12 active torsions:
REMARK  status: ('A' for Active; 'I' for Inactive)
REMARK    1  A    between atoms: C_1  and  C_2
REMARK    2  A    between atoms: C_2  and  O_3
REMARK    3  A    between atoms: O_3  and  C_4
REMARK    4  A    between atoms: C_4  and  C_6
REMARK    5  A    between atoms: C_7  and  C_39
REMARK    6  A    between atoms: C_11  and  C_13
REMARK    7  A    between atoms: C_17  and  N_19
REMARK    8  A    between atoms: C_26  and  C_29
REMARK    9  A    between atoms: C_32  and  O_37
REMARK   10  A    between atoms: C_33  and  O_35
REMARK   11  A    between atoms: O_35  and  C_36
REMARK   12  A    between atoms: O_37  and  C_38
REMARK                            x       y       z     vdW  Elec       q    Type
REMARK                         _______ _______ _______ _____ _____    ______ ____
ROOT
ATOM      1  C   UNL     1       1.471   1.687   0.023  0.00  0.00    +0.065 C 
ATOM      2  C   UNL     1       1.741   2.709   0.853  0.00  0.00    +0.016 C 
ATOM      3  N   UNL     1       0.761   3.231   1.651  0.00  0.00    -0.321 N 
ATOM      4  C   UNL     1      -0.369   2.509   1.929  0.00  0.00    +0.016 C 
ATOM      5  C   UNL     1      -0.733   1.476   1.141  0.00  0.00    +0.024 C 
ATOM      6  C   UNL     1       0.094   1.096  -0.061  0.00  0.00    +0.092 C 
ATOM      7  C   UNL     1      -1.892   0.728   1.413  0.00  0.00    +0.162 C 
ATOM      8  O   UNL     1      -2.184  -0.204   0.690  0.00  0.00    -0.292 OA
ATOM      9  C   UNL     1      -2.776   1.061   2.583  0.00  0.00    +0.088 C 
ATOM     10  C   UNL     1      -2.662   2.559   2.884  0.00  0.00    +0.032 C 
ATOM     11  C   UNL     1      -1.190   2.892   3.136  0.00  0.00    +0.059 C 
ATOM     12  C   UNL     1       3.133   3.284   0.905  0.00  0.00    +0.061 C 
ATOM     13  H   UNL     1       0.876   4.239   2.076  0.00  0.00    +0.152 HD
ENDROOT
BRANCH   6  14
ATOM     14  C   UNL     1      -0.586   1.600  -1.308  0.00  0.00    -0.033 A 
ATOM     15  C   UNL     1      -0.803   2.955  -1.477  0.00  0.00    +0.006 A 
ATOM     16  C   UNL     1      -1.426   3.418  -2.620  0.00  0.00    +0.022 A 
ATOM     17  C   UNL     1      -1.833   2.525  -3.596  0.00  0.00    +0.071 A 
ATOM     18  C   UNL     1      -1.616   1.169  -3.426  0.00  0.00    +0.145 A 
ATOM     19  C   UNL     1      -0.987   0.708  -2.285  0.00  0.00    +0.038 A 
ATOM     20 CL   UNL     1      -2.617   3.106  -5.032  0.00  0.00    -0.081 Cl
BRANCH  18  21
ATOM     21  N   UNL     1      -2.051   0.214  -4.469  0.00  0.00    +0.058 N 
ATOM     22  O   UNL     1      -1.860  -0.980  -4.320  0.00  0.00    -0.126 OA
ATOM     23  O   UNL     1      -2.601   0.621  -5.477  0.00  0.00    -0.126 OA
ENDBRANCH  18  21
ENDBRANCH   6  14
BRANCH  10  24
ATOM     24  C   UNL     1      -3.474   2.893   4.109  0.00  0.00    -0.040 A 
ATOM     25  C   UNL     1      -3.193   2.273   5.312  0.00  0.00    +0.008 A 
ATOM     26  C   UNL     1      -3.935   2.576   6.439  0.00  0.00    +0.049 A 
ATOM     27  C   UNL     1      -4.962   3.503   6.363  0.00  0.00    +0.161 A 
ATOM     28  C   UNL     1      -5.244   4.128   5.152  0.00  0.00    +0.162 A 
ATOM     29  C   UNL     1      -4.493   3.823   4.028  0.00  0.00    +0.053 A 
BRANCH  28  30
ATOM     30  O   UNL     1      -6.251   5.038   5.072  0.00  0.00    -0.491 OA
ATOM     31  C   UNL     1      -6.484   5.639   3.797  0.00  0.00    +0.277 C 
ENDBRANCH  28  30
BRANCH  27  32
ATOM     32  O   UNL     1      -5.693   3.803   7.470  0.00  0.00    -0.491 OA
ATOM     33  C   UNL     1      -5.348   3.123   8.679  0.00  0.00    +0.277 C 
ENDBRANCH  27  32
ENDBRANCH  10  24
BRANCH   1  34
ATOM     34  C   UNL     1       2.503   1.160  -0.787  0.00  0.00    +0.338 C 
ATOM     35  O   UNL     1       3.595   1.697  -0.807  0.00  0.00    -0.245 OA
BRANCH  34  36
ATOM     36  O   UNL     1       2.278   0.060  -1.536  0.00  0.00    -0.462 OA
BRANCH  36  38
ATOM     37  C   UNL     1       2.925  -1.661  -3.104  0.00  0.00    +0.048 C 
ATOM     38  C   UNL     1       3.366  -0.418  -2.330  0.00  0.00    +0.229 C 
ENDBRANCH  36  38
ENDBRANCH  34  36
ENDBRANCH   1  34
TORSDOF 8
