REMARK  Name = ZINC08589993
REMARK  7 active torsions:
REMARK  status: ('A' for Active; 'I' for Inactive)
REMARK    1  A    between atoms: C_1  and  C_2
REMARK    2  A    between atoms: C_2  and  O_3
REMARK    3  A    between atoms: O_3  and  C_4
REMARK    4  A    between atoms: C_8  and  C_11
REMARK    5  A    between atoms: C_9  and  O_10
REMARK    6  A    between atoms: C_22  and  N_46
REMARK    7  A    between atoms: C_23  and  O_25
REMARK                            x       y       z     vdW  Elec       q    Type
REMARK                         _______ _______ _______ _____ _____    ______ ____
ROOT
ATOM      1  C   UNL     1       1.170   2.148   0.002  0.00  0.00    +0.227 C 
ATOM      2  N   UNL     1       2.326   1.472   0.621  0.00  0.00    -0.313 N 
ATOM      3  C   UNL     1       2.431   0.120   0.403  0.00  0.00    +0.080 A 
ATOM      4  C   UNL     1       1.322  -0.679   0.096  0.00  0.00    +0.067 A 
ATOM      5  C   UNL     1       1.595  -2.091  -0.098  0.00  0.00    -0.027 A 
ATOM      6  C   UNL     1       2.891  -2.462   0.037  0.00  0.00    -0.021 A 
ATOM      7  S   UNL     1       3.756  -0.963   0.419  0.00  0.00    -0.080 S 
ATOM      8  C   UNL     1       3.441  -3.845  -0.109  0.00  0.00    -0.036 C 
ATOM      9  C   UNL     1       1.246  -4.374  -0.987  0.00  0.00    -0.074 C 
ATOM     10  C   UNL     1       0.537  -3.134  -0.436  0.00  0.00    +0.018 C 
ATOM     11  C   UNL     1       2.764  -6.160  -0.377  0.00  0.00    -0.096 C 
ATOM     12  C   UNL     1       0.002  -0.004   0.002  0.00  0.00    +0.220 C 
ATOM     13  N   UNL     1      -0.016   1.300   0.009  0.00  0.00    -0.223 NA
ATOM     14  H   UNL     1       2.977   1.957   1.153  0.00  0.00    +0.149 HD
ATOM     15  N   UNL     1       2.303  -4.795  -0.045  0.00  0.00    +0.381 N 
ATOM     16  H   UNL     1       1.920  -4.794   0.908  0.00  0.00    -0.082 HD
ENDROOT
BRANCH   1  21
ATOM     17  C   UNL     1       0.820   3.027  -3.663  0.00  0.00    +0.163 A 
ATOM     18  C   UNL     1       2.148   3.155  -4.039  0.00  0.00    +0.064 A 
ATOM     19  C   UNL     1       3.152   2.957  -3.109  0.00  0.00    +0.022 A 
ATOM     20  C   UNL     1       2.835   2.631  -1.803  0.00  0.00    +0.026 A 
ATOM     21  C   UNL     1       1.512   2.503  -1.422  0.00  0.00    +0.041 A 
ATOM     22  C   UNL     1       0.502   2.695  -2.350  0.00  0.00    +0.165 A 
ATOM     23 BR   UNL     1       4.963   3.133  -3.625  0.00  0.00    -0.050 Br
BRANCH  22  24
ATOM     24  O   UNL     1      -0.800   2.563  -1.977  0.00  0.00    -0.503 OA
ATOM     25  H   UNL     1      -1.203   3.383  -1.662  0.00  0.00    +0.292 HD
ENDBRANCH  22  24
BRANCH  17  26
ATOM     26  O   UNL     1      -0.169   3.221  -4.576  0.00  0.00    -0.489 OA
BRANCH  26  28
ATOM     27  C   UNL     1      -1.008   3.734  -6.783  0.00  0.00    +0.048 C 
ATOM     28  C   UNL     1       0.233   3.555  -5.906  0.00  0.00    +0.226 C 
ENDBRANCH  26  28
ENDBRANCH  17  26
ENDBRANCH   1  21
BRANCH  12  29
ATOM     29  O   UNL     1      -1.144  -0.718  -0.088  0.00  0.00    -0.492 OA
ATOM     30  H   UNL     1      -1.942  -0.175  -0.144  0.00  0.00    +0.294 HD
ENDBRANCH  12  29
TORSDOF 5
