REMARK  Name = ZINC41585943
REMARK  7 active torsions:
REMARK  status: ('A' for Active; 'I' for Inactive)
REMARK    1  A    between atoms: C_1  and  C_2
REMARK    2  A    between atoms: C_6  and  O_34
REMARK    3  A    between atoms: C_7  and  C_21
REMARK    4  A    between atoms: C_12  and  C_13
REMARK    5  A    between atoms: C_16  and  O_19
REMARK    6  A    between atoms: O_19  and  C_20
REMARK    7  A    between atoms: C_21  and  N_22
REMARK                            x       y       z     vdW  Elec       q    Type
REMARK                         _______ _______ _______ _____ _____    ______ ____
ROOT
ATOM      1  C   UNL     1       0.024   1.501  -0.021  0.00  0.00    +0.045 C 
ATOM      2  C   UNL     1       0.029  -0.006  -0.018  0.00  0.00    -0.025 A 
ATOM      3  C   UNL     1      -1.186  -0.738  -0.026  0.00  0.00    +0.022 A 
ATOM      4  C   UNL     1      -2.409  -0.085  -0.239  0.00  0.00    +0.015 A 
ATOM      5  C   UNL     1      -3.566  -0.806  -0.284  0.00  0.00    +0.046 A 
ATOM      6  C   UNL     1      -3.545  -2.189  -0.113  0.00  0.00    +0.125 A 
ATOM      7  C   UNL     1      -2.349  -2.850   0.118  0.00  0.00    +0.051 A 
ATOM      8  C   UNL     1      -1.165  -2.131   0.173  0.00  0.00    +0.147 A 
ATOM      9  O   UNL     1       0.007  -2.759   0.439  0.00  0.00    -0.421 OA
ATOM     10  C   UNL     1       1.131  -2.176  -0.039  0.00  0.00    +0.345 A 
ATOM     11  O   UNL     1       2.046  -2.845  -0.482  0.00  0.00    -0.244 OA
ATOM     12  C   UNL     1       1.210  -0.706  -0.011  0.00  0.00    +0.070 A 
ENDROOT
BRANCH  12  13
ATOM     13  C   UNL     1       2.517  -0.008   0.026  0.00  0.00    -0.011 A 
ATOM     14  C   UNL     1       2.909   0.798  -1.043  0.00  0.00    +0.012 A 
ATOM     15  C   UNL     1       4.125   1.446  -1.004  0.00  0.00    +0.046 A 
ATOM     16  C   UNL     1       4.959   1.297   0.096  0.00  0.00    +0.120 A 
ATOM     17  C   UNL     1       4.572   0.495   1.161  0.00  0.00    +0.046 A 
ATOM     18  C   UNL     1       3.354  -0.152   1.132  0.00  0.00    +0.012 A 
BRANCH  16  19
ATOM     19  O   UNL     1       6.157   1.937   0.130  0.00  0.00    -0.495 OA
ATOM     20  C   UNL     1       6.965   1.740   1.292  0.00  0.00    +0.277 C 
ENDBRANCH  16  19
ENDBRANCH  12  13
BRANCH   6  21
ATOM     21  O   UNL     1      -4.703  -2.894  -0.171  0.00  0.00    -0.506 OA
ATOM     22  H   UNL     1      -4.931  -3.204  -1.058  0.00  0.00    +0.292 HD
ENDBRANCH   6  21
BRANCH   7  23
ATOM     23  C   UNL     1      -2.335  -4.345   0.308  0.00  0.00    +0.127 C 
BRANCH  23  24
ATOM     24  N   UNL     1      -2.163  -5.003  -0.994  0.00  0.00    -0.295 NA
ATOM     25  C   UNL     1      -3.323  -4.764  -1.862  0.00  0.00    +0.103 C 
ATOM     26  C   UNL     1      -3.029  -5.308  -3.264  0.00  0.00    +0.122 C 
ATOM     27  N   UNL     1      -2.622  -6.716  -3.143  0.00  0.00    -0.314 N 
ATOM     28  C   UNL     1      -1.555  -7.053  -2.188  0.00  0.00    +0.122 C 
ATOM     29  C   UNL     1      -1.908  -6.440  -0.828  0.00  0.00    +0.103 C 
ATOM     30  C   UNL     1      -3.230  -7.703  -3.910  0.00  0.00    +0.099 A 
ATOM     31  C   UNL     1      -4.316  -7.378  -4.717  0.00  0.00    +0.042 A 
ATOM     32  C   UNL     1      -4.911  -8.370  -5.475  0.00  0.00    +0.005 A 
ATOM     33  C   UNL     1      -4.398  -9.658  -5.402  0.00  0.00    +0.018 A 
ATOM     34  C   UNL     1      -3.318  -9.910  -4.580  0.00  0.00    +0.084 A 
ATOM     35  N   UNL     1      -2.766  -8.943  -3.872  0.00  0.00    -0.350 N 
ATOM     36  H   UNL     1      -2.005  -9.146  -3.306  0.00  0.00    +0.166 HD
ENDBRANCH  23  24
ENDBRANCH   7  23
TORSDOF 5
