REMARK  Name = ZINC08756904
REMARK  11 active torsions:
REMARK  status: ('A' for Active; 'I' for Inactive)
REMARK    1  A    between atoms: C_1  and  C_2
REMARK    2  A    between atoms: C_2  and  C_3
REMARK    3  A    between atoms: C_8  and  N_9
REMARK    4  A    between atoms: N_9  and  C_10
REMARK    5  A    between atoms: C_11  and  S_25
REMARK    6  A    between atoms: C_12  and  N_24
REMARK    7  A    between atoms: C_13  and  C_15
REMARK    8  A    between atoms: C_15  and  C_17
REMARK    9  A    between atoms: C_20  and  C_23
REMARK   10  A    between atoms: S_25  and  C_28
REMARK   11  A    between atoms: C_31  and  C_34
REMARK                            x       y       z     vdW  Elec       q    Type
REMARK                         _______ _______ _______ _____ _____    ______ ____
ROOT
ATOM      1  C   UNL     1      -3.408   1.652  -0.020  0.00  0.00    +0.098 A 
ATOM      2  C   UNL     1      -2.240   0.949   0.200  0.00  0.00    +0.143 A 
ATOM      3  C   UNL     1      -1.136   1.623   0.657  0.00  0.00    +0.070 A 
ATOM      4  C   UNL     1      -1.250   3.001   0.885  0.00  0.00    +0.084 A 
ATOM      5  S   UNL     1      -2.946   3.316   0.429  0.00  0.00    -0.066 S 
ENDROOT
BRANCH   3   6
ATOM      6  N   UNL     1       0.061   0.957   0.893  0.00  0.00    -0.355 N 
ATOM      7  H   UNL     1       0.861   1.460   1.113  0.00  0.00    +0.142 HD
ATOM      8  H   UNL     1       0.096  -0.011   0.842  0.00  0.00    +0.142 HD
ENDBRANCH   3   6
BRANCH   2   9
ATOM      9  S   UNL     1      -2.167  -0.785  -0.103  0.00  0.00    +0.029 S 
ATOM     10  O   UNL     1      -3.324  -1.114  -0.861  0.00  0.00    -0.164 OA
ATOM     11  O   UNL     1      -0.852  -1.063  -0.562  0.00  0.00    -0.164 OA
BRANCH   9  12
ATOM     12  C   UNL     1      -2.339  -1.593   1.453  0.00  0.00    +0.094 A 
ATOM     13  C   UNL     1      -1.218  -1.891   2.205  0.00  0.00    +0.027 A 
ATOM     14  C   UNL     1      -1.353  -2.522   3.428  0.00  0.00    +0.005 A 
ATOM     15  C   UNL     1      -2.609  -2.861   3.895  0.00  0.00    -0.050 A 
ATOM     16  C   UNL     1      -3.730  -2.568   3.141  0.00  0.00    +0.005 A 
ATOM     17  C   UNL     1      -3.595  -1.935   1.920  0.00  0.00    +0.027 A 
ATOM     18  C   UNL     1      -2.756  -3.552   5.227  0.00  0.00    +0.044 C 
ENDBRANCH   9  12
ENDBRANCH   2   9
BRANCH   1  19
ATOM     19  N   UNL     1      -4.628   1.184  -0.474  0.00  0.00    -0.307 N 
ATOM     20  H   UNL     1      -4.714   0.266  -0.775  0.00  0.00    +0.153 HD
BRANCH  19  26
ATOM     21  C   UNL     1      -6.766   1.808  -1.405  0.00  0.00    -0.026 A 
ATOM     22  C   UNL     1      -7.863   2.647  -1.423  0.00  0.00    +0.005 A 
ATOM     23  C   UNL     1      -7.932   3.718  -0.550  0.00  0.00    +0.000 A 
ATOM     24  C   UNL     1      -6.906   3.948   0.348  0.00  0.00    +0.002 A 
ATOM     25  C   UNL     1      -5.809   3.110   0.376  0.00  0.00    +0.023 A 
ATOM     26  C   UNL     1      -5.737   2.034  -0.500  0.00  0.00    +0.035 A 
BRANCH  21  28
ATOM     27  C   UNL     1      -7.214  -0.616  -1.673  0.00  0.00    +0.009 C 
ATOM     28  C   UNL     1      -6.689   0.646  -2.361  0.00  0.00    +0.033 C 
ENDBRANCH  21  28
ENDBRANCH  19  26
ENDBRANCH   1  19
BRANCH   4  29
ATOM     29  C   UNL     1      -0.278   3.903   1.353  0.00  0.00    +0.202 C 
ATOM     30  O   UNL     1       0.799   3.488   1.747  0.00  0.00    -0.286 OA
BRANCH  29  31
ATOM     31  C   UNL     1      -0.562   5.355   1.366  0.00  0.00    +0.023 A 
ATOM     32  C   UNL     1      -1.466   5.901   0.454  0.00  0.00    +0.012 A 
ATOM     33  C   UNL     1      -1.731   7.255   0.476  0.00  0.00    +0.004 A 
ATOM     34  C   UNL     1      -1.094   8.073   1.392  0.00  0.00    -0.050 A 
ATOM     35  C   UNL     1      -0.192   7.539   2.295  0.00  0.00    +0.004 A 
ATOM     36  C   UNL     1       0.077   6.186   2.288  0.00  0.00    +0.012 A 
ATOM     37  C   UNL     1      -1.383   9.552   1.406  0.00  0.00    +0.044 C 
ENDBRANCH  29  31
ENDBRANCH   4  29
TORSDOF 8
