REMARK  Name = ZINC36500472
REMARK  13 active torsions:
REMARK  status: ('A' for Active; 'I' for Inactive)
REMARK    1  A    between atoms: C_1  and  C_2
REMARK    2  A    between atoms: C_2  and  C_3
REMARK    3  A    between atoms: C_3  and  C_4
REMARK    4  A    between atoms: C_4  and  N_5
REMARK    5  A    between atoms: C_6  and  C_8
REMARK    6  A    between atoms: C_8  and  C_10
REMARK    7  A    between atoms: C_8  and  N_17
REMARK    8  A    between atoms: C_13  and  O_16
REMARK    9  A    between atoms: N_17  and  C_18
REMARK   10  A    between atoms: C_18  and  C_19
REMARK   11  A    between atoms: C_24  and  C_26
REMARK   12  A    between atoms: C_27  and  O_33
REMARK   13  A    between atoms: C_31  and  O_32
REMARK                            x       y       z     vdW  Elec       q    Type
REMARK                         _______ _______ _______ _____ _____    ______ ____
ROOT
ATOM      1  N   UNL     1       2.517  -5.433   3.887  0.00  0.00    -0.274 N 
ATOM      2  C   UNL     1       3.434  -5.976   4.713  0.00  0.00    +0.255 C 
ATOM      3  O   UNL     1       3.997  -5.282   5.537  0.00  0.00    -0.270 OA
ENDROOT
BRANCH   2   4
ATOM      4  C   UNL     1       3.753  -7.410   4.616  0.00  0.00    +0.119 A 
ATOM      5  C   UNL     1       4.782  -7.849   3.770  0.00  0.00    +0.133 A 
ATOM      6  C   UNL     1       5.075  -9.201   3.688  0.00  0.00    +0.046 A 
ATOM      7  C   UNL     1       4.357 -10.116   4.436  0.00  0.00    +0.007 A 
ATOM      8  C   UNL     1       3.341  -9.694   5.272  0.00  0.00    +0.046 A 
ATOM      9  C   UNL     1       3.035  -8.346   5.375  0.00  0.00    +0.133 A 
BRANCH   9  10
ATOM     10  O   UNL     1       2.041  -7.934   6.201  0.00  0.00    -0.506 OA
ATOM     11  H   UNL     1       1.170  -7.901   5.782  0.00  0.00    +0.292 HD
ENDBRANCH   9  10
BRANCH   5  12
ATOM     12  O   UNL     1       5.488  -6.954   3.035  0.00  0.00    -0.506 OA
ATOM     13  H   UNL     1       6.272  -6.609   3.483  0.00  0.00    +0.292 HD
ENDBRANCH   5  12
ENDBRANCH   2   4
BRANCH   1  14
ATOM     14  C   UNL     1       2.199  -4.006   3.983  0.00  0.00    +0.193 C 
BRANCH  14  15
ATOM     15  C   UNL     1       1.316  -3.768   5.180  0.00  0.00    -0.018 A 
ATOM     16  C   UNL     1       0.331  -4.682   5.504  0.00  0.00    +0.009 A 
ATOM     17  C   UNL     1      -0.481  -4.466   6.600  0.00  0.00    +0.046 A 
ATOM     18  C   UNL     1      -0.307  -3.330   7.377  0.00  0.00    +0.117 A 
ATOM     19  C   UNL     1       0.683  -2.414   7.051  0.00  0.00    +0.046 A 
ATOM     20  C   UNL     1       1.495  -2.638   5.956  0.00  0.00    +0.009 A 
BRANCH  18  21
ATOM     21  O   UNL     1      -1.104  -3.114   8.457  0.00  0.00    -0.507 OA
ATOM     22  H   UNL     1      -0.762  -3.489   9.280  0.00  0.00    +0.292 HD
ENDBRANCH  18  21
ENDBRANCH  14  15
BRANCH  14  24
ATOM     23  N   UNL     1       0.902  -2.351   2.681  0.00  0.00    -0.313 N 
ATOM     24  C   UNL     1       1.481  -3.567   2.733  0.00  0.00    +0.238 C 
ATOM     25  O   UNL     1       1.425  -4.307   1.774  0.00  0.00    -0.273 OA
ATOM     26  H   UNL     1       0.947  -1.759   3.448  0.00  0.00    +0.149 HD
BRANCH  23  27
ATOM     27  C   UNL     1       0.204  -1.924   1.466  0.00  0.00    +0.104 C 
BRANCH  27  28
ATOM     28  C   UNL     1      -0.359  -0.515   1.669  0.00  0.00    +0.018 C 
BRANCH  28  30
ATOM     29  C   UNL     1      -1.650   1.339   0.604  0.00  0.00    +0.004 C 
ATOM     30  C   UNL     1      -1.088  -0.069   0.401  0.00  0.00    -0.002 C 
ENDBRANCH  28  30
ENDBRANCH  27  28
ENDBRANCH  23  27
ENDBRANCH  14  24
ENDBRANCH   1  14
BRANCH   1  31
ATOM     31  C   UNL     1       1.839  -6.270   2.894  0.00  0.00    +0.183 C 
BRANCH  31  32
ATOM     32  C   UNL     1       2.719  -6.420   1.679  0.00  0.00    +0.122 A 
ATOM     33  C   UNL     1       3.515  -7.470   1.410  0.00  0.00    +0.046 A 
ATOM     34  C   UNL     1       4.153  -7.195   0.178  0.00  0.00    +0.041 A 
ATOM     35  C   UNL     1       3.709  -5.993  -0.231  0.00  0.00    +0.195 A 
ATOM     36  O   UNL     1       2.835  -5.531   0.679  0.00  0.00    -0.466 OA
ENDBRANCH  31  32
ENDBRANCH   1  31
TORSDOF 12
