REMARK  Name = ZINC66152921
REMARK  9 active torsions:
REMARK  status: ('A' for Active; 'I' for Inactive)
REMARK    1  A    between atoms: C_1  and  C_2
REMARK    2  A    between atoms: C_2  and  C_3
REMARK    3  A    between atoms: C_2  and  C_4
REMARK    4  A    between atoms: C_2  and  C_5
REMARK    5  A    between atoms: C_8  and  C_11
REMARK    6  A    between atoms: N_13  and  C_14
REMARK    7  A    between atoms: C_17  and  N_20
REMARK    8  A    between atoms: C_21  and  C_23
REMARK    9  A    between atoms: C_23  and  C_24
REMARK                            x       y       z     vdW  Elec       q    Type
REMARK                         _______ _______ _______ _____ _____    ______ ____
ROOT
ATOM      1  C   UNL     1       4.568  -1.901  -6.166  0.00  0.00    +0.034 A 
ATOM      2  C   UNL     1       3.817  -2.619  -7.088  0.00  0.00    +0.025 A 
ATOM      3  C   UNL     1       4.388  -3.024  -8.278  0.00  0.00    +0.025 A 
ATOM      4  C   UNL     1       5.713  -2.713  -8.553  0.00  0.00    +0.033 A 
ATOM      5  C   UNL     1       6.464  -1.995  -7.632  0.00  0.00    +0.025 A 
ATOM      6  C   UNL     1       5.892  -1.585  -6.445  0.00  0.00    +0.025 A 
ENDROOT
BRANCH   1   9
ATOM      7  C   UNL     1       4.336  -0.307  -4.414  0.00  0.00    +0.248 C 
ATOM      8  O   UNL     1       5.212   0.364  -4.924  0.00  0.00    -0.270 OA
ATOM      9  N   UNL     1       3.989  -1.490  -4.959  0.00  0.00    -0.282 N 
ATOM     10  H   UNL     1       3.339  -2.056  -4.516  0.00  0.00    +0.155 HD
BRANCH   7  14
ATOM     11  C   UNL     1       2.369   1.074  -0.912  0.00  0.00    -0.042 A 
ATOM     12  C   UNL     1       3.365   1.841  -1.490  0.00  0.00    +0.005 A 
ATOM     13  C   UNL     1       4.009   1.398  -2.627  0.00  0.00    +0.013 A 
ATOM     14  C   UNL     1       3.652   0.173  -3.195  0.00  0.00    +0.037 A 
ATOM     15  C   UNL     1       2.645  -0.595  -2.607  0.00  0.00    +0.013 A 
ATOM     16  C   UNL     1       2.014  -0.143  -1.467  0.00  0.00    +0.005 A 
BRANCH  11  18
ATOM     17  C   UNL     1       1.886   0.562   1.465  0.00  0.00    +0.015 C 
ATOM     18  C   UNL     1       1.671   1.565   0.330  0.00  0.00    -0.013 C 
ATOM     19  C   UNL     1       0.173   1.706   0.051  0.00  0.00    +0.015 C 
ATOM     20  C   UNL     1       2.244   2.924   0.734  0.00  0.00    +0.015 C 
ENDBRANCH  11  18
ENDBRANCH   7  14
ENDBRANCH   1   9
BRANCH   4  21
ATOM     21  N   UNL     1       6.292  -3.124  -9.761  0.00  0.00    -0.286 N 
ATOM     22  C   UNL     1       7.590  -3.487  -9.796  0.00  0.00    +0.216 C 
ATOM     23  O   UNL     1       8.277  -3.378  -8.803  0.00  0.00    -0.276 OA
ATOM     24  H   UNL     1       5.759  -3.148 -10.571  0.00  0.00    +0.155 HD
BRANCH  22  25
ATOM     25  C   UNL     1       8.186  -4.028 -11.070  0.00  0.00    +0.089 C 
BRANCH  25  26
ATOM     26  C   UNL     1       9.662  -4.360 -10.842  0.00  0.00    +0.025 C 
ATOM     27  C   UNL     1      10.286  -4.777 -12.143  0.00  0.00    +0.199 C 
ATOM     28  O   UNL     1      10.004  -4.158 -13.148  0.00  0.00    -0.278 OA
ATOM     29  N   UNL     1      11.140  -5.802 -12.239  0.00  0.00    -0.318 N 
ATOM     30  C   UNL     1      11.518  -6.622 -11.091  0.00  0.00    +0.085 C 
ATOM     31  C   UNL     1      11.170  -5.891  -9.792  0.00  0.00    -0.063 C 
ATOM     32  N   UNL     1       9.769  -5.448  -9.862  0.00  0.00    +0.388 N 
ATOM     33  H   UNL     1      11.523  -6.009 -13.106  0.00  0.00    +0.149 HD
ATOM     34  H   UNL     1       9.476  -5.117  -8.955  0.00  0.00    -0.085 HD
ATOM     35  H   UNL     1       9.183  -6.219 -10.146  0.00  0.00    -0.085 HD
ENDBRANCH  25  26
ENDBRANCH  22  25
ENDBRANCH   4  21
TORSDOF 6
