REMARK  Name = ZINC45796099
REMARK  14 active torsions:
REMARK  status: ('A' for Active; 'I' for Inactive)
REMARK    1  A    between atoms: C_1  and  C_2
REMARK    2  A    between atoms: C_2  and  O_3
REMARK    3  A    between atoms: O_3  and  C_4
REMARK    4  A    between atoms: C_4  and  C_6
REMARK    5  A    between atoms: C_7  and  C_22
REMARK    6  A    between atoms: N_8  and  C_21
REMARK    7  A    between atoms: C_11  and  C_17
REMARK    8  A    between atoms: C_12  and  O_16
REMARK    9  A    between atoms: C_17  and  N_18
REMARK   10  A    between atoms: N_18  and  C_19
REMARK   11  A    between atoms: N_18  and  C_20
REMARK   12  A    between atoms: C_22  and  O_23
REMARK   13  A    between atoms: O_23  and  C_24
REMARK   14  A    between atoms: C_27  and  C_30
REMARK                            x       y       z     vdW  Elec       q    Type
REMARK                         _______ _______ _______ _____ _____    ______ ____
ROOT
ATOM      1  C   UNL     1       1.347  -2.154  -2.326  0.00  0.00    +0.091 A 
ATOM      2  C   UNL     1       2.704  -2.282  -2.395  0.00  0.00    +0.071 A 
ATOM      3  N   UNL     1       3.057  -2.770  -3.608  0.00  0.00    -0.343 N 
ATOM      4  C   UNL     1       1.936  -2.981  -4.387  0.00  0.00    +0.051 A 
ATOM      5  C   UNL     1       0.817  -2.613  -3.623  0.00  0.00    +0.019 A 
ATOM      6  C   UNL     1      -0.464  -2.727  -4.158  0.00  0.00    -0.011 A 
ATOM      7  C   UNL     1      -0.628  -3.208  -5.444  0.00  0.00    +0.133 A 
ATOM      8  C   UNL     1       0.482  -3.576  -6.199  0.00  0.00    +0.061 A 
ATOM      9  C   UNL     1       1.754  -3.459  -5.681  0.00  0.00    +0.045 A 
ATOM     10 BR   UNL     1       0.243  -4.233  -7.956  0.00  0.00    -0.046 Br
ATOM     11  C   UNL     1       4.433  -3.035  -4.035  0.00  0.00    +0.149 C 
ENDROOT
BRANCH   1  12
ATOM     12  C   UNL     1       0.569  -1.661  -1.184  0.00  0.00    +0.342 C 
ATOM     13  O   UNL     1       0.113  -2.446  -0.375  0.00  0.00    -0.245 OA
BRANCH  12  14
ATOM     14  O   UNL     1       0.360  -0.337  -1.031  0.00  0.00    -0.461 OA
BRANCH  14  16
ATOM     15  C   UNL     1      -0.537   1.596   0.108  0.00  0.00    +0.048 C 
ATOM     16  C   UNL     1      -0.406   0.072   0.103  0.00  0.00    +0.229 C 
ENDBRANCH  14  16
ENDBRANCH  12  14
ENDBRANCH   1  12
BRANCH   7  17
ATOM     17  O   UNL     1      -1.876  -3.321  -5.971  0.00  0.00    -0.505 OA
ATOM     18  H   UNL     1      -2.178  -2.530  -6.439  0.00  0.00    +0.292 HD
ENDBRANCH   7  17
BRANCH   6  19
ATOM     19  C   UNL     1      -1.665  -2.329  -3.339  0.00  0.00    -0.039 C 
BRANCH  19  20
ATOM     20  N   UNL     1      -2.046  -3.439  -2.457  0.00  0.00    +0.379 N 
ATOM     21  C   UNL     1      -3.125  -3.004  -1.560  0.00  0.00    -0.096 C 
ATOM     22  C   UNL     1      -2.510  -4.573  -3.268  0.00  0.00    -0.096 C 
ATOM     23  H   UNL     1      -1.247  -3.723  -1.909  0.00  0.00    -0.082 HD
ENDBRANCH  19  20
ENDBRANCH   6  19
BRANCH   2  24
ATOM     24  C   UNL     1       3.666  -1.934  -1.288  0.00  0.00    +0.283 C 
BRANCH  24  25
ATOM     25  O   UNL     1       4.065  -0.568  -1.417  0.00  0.00    -0.486 OA
BRANCH  25  26
ATOM     26  C   UNL     1       4.936  -0.091  -0.491  0.00  0.00    +0.121 A 
ATOM     27  C   UNL     1       5.401  -0.926   0.517  0.00  0.00    +0.047 A 
ATOM     28  C   UNL     1       6.286  -0.446   1.458  0.00  0.00    +0.022 A 
ATOM     29  C   UNL     1       6.715   0.882   1.397  0.00  0.00    +0.052 A 
ATOM     30  C   UNL     1       6.244   1.719   0.381  0.00  0.00    +0.022 A 
ATOM     31  C   UNL     1       5.364   1.230  -0.558  0.00  0.00    +0.047 A 
BRANCH  29  32
ATOM     32  C   UNL     1       7.634   1.386   2.373  0.00  0.00    +0.099 C 
ATOM     33  N   UNL     1       8.363   1.785   3.148  0.00  0.00    -0.191 NA
ENDBRANCH  29  32
ENDBRANCH  25  26
ENDBRANCH  24  25
ENDBRANCH   2  24
TORSDOF 10
