REMARK  Name = ZINC12250494
REMARK  7 active torsions:
REMARK  status: ('A' for Active; 'I' for Inactive)
REMARK    1  A    between atoms: C_1  and  C_2
REMARK    2  A    between atoms: C_2  and  O_3
REMARK    3  A    between atoms: O_3  and  C_4
REMARK    4  A    between atoms: C_7  and  C_10
REMARK    5  A    between atoms: C_16  and  N_30
REMARK    6  A    between atoms: C_17  and  C_19
REMARK    7  A    between atoms: N_21  and  C_22
REMARK                            x       y       z     vdW  Elec       q    Type
REMARK                         _______ _______ _______ _____ _____    ______ ____
ROOT
ATOM      1  C   UNL     1       1.915   4.116   0.120  0.00  0.00    -0.002 A 
ATOM      2  C   UNL     1       3.192   4.655   0.277  0.00  0.00    -0.018 A 
ATOM      3  C   UNL     1       4.293   3.825   0.280  0.00  0.00    +0.046 A 
ATOM      4  N   UNL     1       4.139   2.515   0.130  0.00  0.00    -0.244 NA
ATOM      5  C   UNL     1       2.962   1.956  -0.024  0.00  0.00    +0.112 A 
ATOM      6  C   UNL     1       1.766   2.708  -0.041  0.00  0.00    +0.037 A 
ATOM      7  C   UNL     1       0.551   1.934  -0.220  0.00  0.00    +0.054 A 
ATOM      8  C   UNL     1       0.660   0.566  -0.356  0.00  0.00    +0.097 A 
ATOM      9  S   UNL     1       2.416   0.281  -0.245  0.00  0.00    -0.062 S 
ATOM     10  C   UNL     1       5.697   4.343   0.455  0.00  0.00    +0.056 C 
ATOM     11  C   UNL     1       5.754   5.844   0.180  0.00  0.00    +0.006 C 
ATOM     12  C   UNL     1       4.665   6.529   1.014  0.00  0.00    +0.005 C 
ATOM     13  C   UNL     1       3.304   6.150   0.433  0.00  0.00    +0.037 C 
ENDROOT
BRANCH   1  17
ATOM     14  C   UNL     1      -1.499   6.649   0.120  0.00  0.00    +0.121 A 
ATOM     15  C   UNL     1      -0.680   6.590  -1.000  0.00  0.00    +0.046 A 
ATOM     16  C   UNL     1       0.428   5.770  -1.004  0.00  0.00    +0.012 A 
ATOM     17  C   UNL     1       0.726   4.998   0.120  0.00  0.00    -0.017 A 
ATOM     18  C   UNL     1      -0.102   5.055   1.241  0.00  0.00    +0.012 A 
ATOM     19  C   UNL     1      -1.206   5.881   1.240  0.00  0.00    +0.046 A 
BRANCH  14  20
ATOM     20  O   UNL     1      -2.590   7.458   0.120  0.00  0.00    -0.492 OA
BRANCH  20  22
ATOM     21  C   UNL     1      -4.563   8.433   1.118  0.00  0.00    +0.048 C 
ATOM     22  C   UNL     1      -3.389   7.470   1.305  0.00  0.00    +0.225 C 
ENDBRANCH  20  22
ENDBRANCH  14  20
ENDBRANCH   1  17
BRANCH   8  23
ATOM     23  C   UNL     1      -0.374  -0.384  -0.539  0.00  0.00    +0.257 C 
ATOM     24  O   UNL     1      -1.535  -0.018  -0.593  0.00  0.00    -0.269 OA
ATOM     25  N   UNL     1      -0.075  -1.693  -0.653  0.00  0.00    -0.281 N 
ATOM     26  H   UNL     1       0.841  -1.992  -0.544  0.00  0.00    +0.155 HD
BRANCH  25  27
ATOM     27  C   UNL     1      -1.085  -2.620  -0.931  0.00  0.00    +0.036 A 
ATOM     28  C   UNL     1      -2.355  -2.443  -0.399  0.00  0.00    +0.043 A 
ATOM     29  C   UNL     1      -3.353  -3.358  -0.679  0.00  0.00    +0.044 A 
ATOM     30  C   UNL     1      -3.084  -4.454  -1.480  0.00  0.00    +0.040 A 
ATOM     31  C   UNL     1      -1.817  -4.635  -2.006  0.00  0.00    +0.044 A 
ATOM     32  C   UNL     1      -0.817  -3.721  -1.733  0.00  0.00    +0.043 A 
ATOM     33 CL   UNL     1      -1.483  -6.012  -3.009  0.00  0.00    -0.083 Cl
ATOM     34 CL   UNL     1      -4.944  -3.135  -0.021  0.00  0.00    -0.083 Cl
ENDBRANCH  25  27
ENDBRANCH   8  23
BRANCH   7  35
ATOM     35  N   UNL     1      -0.690   2.556  -0.259  0.00  0.00    -0.356 N 
ATOM     36  H   UNL     1      -1.489   2.034  -0.430  0.00  0.00    +0.142 HD
ATOM     37  H   UNL     1      -0.757   3.513  -0.115  0.00  0.00    +0.142 HD
ENDBRANCH   7  35
TORSDOF 6
