REMARK  Name = ZINC39856193
REMARK  11 active torsions:
REMARK  status: ('A' for Active; 'I' for Inactive)
REMARK    1  A    between atoms: C_1  and  C_2
REMARK    2  A    between atoms: C_6  and  C_7
REMARK    3  A    between atoms: N_9  and  C_10
REMARK    4  A    between atoms: C_13  and  C_16
REMARK    5  A    between atoms: C_16  and  O_18
REMARK    6  A    between atoms: O_18  and  C_19
REMARK    7  A    between atoms: C_21  and  C_29
REMARK    8  A    between atoms: C_21  and  C_30
REMARK    9  A    between atoms: N_24  and  N_25
REMARK   10  A    between atoms: N_25  and  C_26
REMARK   11  A    between atoms: C_26  and  N_28
REMARK                            x       y       z     vdW  Elec       q    Type
REMARK                         _______ _______ _______ _____ _____    ______ ____
ROOT
ATOM      1  C   UNL     1      -0.010   1.502   0.010  0.00  0.00    +0.048 C 
ATOM      2  C   UNL     1      -0.002  -0.005   0.002  0.00  0.00    +0.009 A 
ATOM      3  C   UNL     1      -0.007  -0.839  -1.122  0.00  0.00    +0.042 A 
ATOM      4  C   UNL     1       0.003  -2.138  -0.672  0.00  0.00    +0.116 A 
ATOM      5  O   UNL     1       0.017  -2.113   0.659  0.00  0.00    -0.454 OA
ATOM      6  C   UNL     1       0.018  -0.831   1.091  0.00  0.00    +0.193 A 
ATOM      7  C   UNL     1      -0.004  -3.328  -1.599  0.00  0.00    +0.081 C 
ATOM      8  C   UNL     1      -0.532  -2.900  -2.971  0.00  0.00    -0.023 C 
ATOM      9  C   UNL     1       0.246  -1.689  -3.496  0.00  0.00    +0.064 C 
ATOM     10  C   UNL     1      -0.019  -0.513  -2.566  0.00  0.00    +0.070 C 
ATOM     11  N   UNL     1      -0.239   0.687  -3.007  0.00  0.00    -0.185 NA
ATOM     12  C   UNL     1      -0.379  -4.062  -3.954  0.00  0.00    +0.011 C 
ATOM     13  C   UNL     1      -2.013  -2.535  -2.850  0.00  0.00    +0.011 C 
ENDROOT
BRANCH   6  14
ATOM     14  C   UNL     1       0.034  -0.400   2.493  0.00  0.00    +0.284 C 
ATOM     15  O   UNL     1       0.030   0.786   2.765  0.00  0.00    -0.266 OA
ATOM     16  N   UNL     1       0.053  -1.318   3.480  0.00  0.00    -0.279 N 
ATOM     17  H   UNL     1      -0.011  -2.262   3.266  0.00  0.00    +0.155 HD
BRANCH  16  18
ATOM     18  C   UNL     1       0.165  -0.911   4.807  0.00  0.00    +0.034 A 
ATOM     19  C   UNL     1       0.888  -1.683   5.712  0.00  0.00    +0.024 A 
ATOM     20  C   UNL     1       1.000  -1.284   7.024  0.00  0.00    +0.017 A 
ATOM     21  C   UNL     1       0.387  -0.101   7.448  0.00  0.00    +0.059 A 
ATOM     22  C   UNL     1      -0.338   0.673   6.537  0.00  0.00    +0.017 A 
ATOM     23  C   UNL     1      -0.442   0.270   5.225  0.00  0.00    +0.024 A 
BRANCH  21  24
ATOM     24  C   UNL     1       0.505   0.330   8.854  0.00  0.00    +0.339 C 
ATOM     25  O   UNL     1       1.135  -0.344   9.645  0.00  0.00    -0.245 OA
BRANCH  24  26
ATOM     26  O   UNL     1      -0.086   1.470   9.261  0.00  0.00    -0.464 OA
ATOM     27  C   UNL     1       0.069   1.826  10.636  0.00  0.00    +0.280 C 
ENDBRANCH  24  26
ENDBRANCH  21  24
ENDBRANCH  16  18
ENDBRANCH   6  14
BRANCH  11  28
ATOM     28  N   UNL     1      -0.238   0.938  -4.385  0.00  0.00    -0.218 N 
ATOM     29  H   UNL     1      -0.073   0.214  -5.010  0.00  0.00    +0.176 HD
BRANCH  28  30
ATOM     30  C   UNL     1      -0.467   2.184  -4.843  0.00  0.00    +0.147 C 
ATOM     31  S   UNL     1      -0.466   2.491  -6.527  0.00  0.00    -0.017 S 
BRANCH  30  32
ATOM     32  N   UNL     1      -0.696   3.190  -3.975  0.00  0.00    -0.339 N 
ATOM     33  H   UNL     1      -0.696   3.016  -3.021  0.00  0.00    +0.144 HD
ATOM     34  H   UNL     1      -0.860   4.087  -4.305  0.00  0.00    +0.144 HD
ENDBRANCH  30  32
ENDBRANCH  28  30
ENDBRANCH  11  28
TORSDOF 7
