REMARK  Name = ZINC09413123
REMARK  18 active torsions:
REMARK  status: ('A' for Active; 'I' for Inactive)
REMARK    1  A    between atoms: C_1  and  C_2
REMARK    2  A    between atoms: C_2  and  N_72
REMARK    3  A    between atoms: C_3  and  C_4
REMARK    4  A    between atoms: C_3  and  N_72
REMARK    5  A    between atoms: C_5  and  C_6
REMARK    6  A    between atoms: C_5  and  N_72
REMARK    7  A    between atoms: C_6  and  N_7
REMARK    8  A    between atoms: C_8  and  C_27
REMARK    9  A    between atoms: C_11  and  C_12
REMARK   10  A    between atoms: C_11  and  O_22
REMARK   11  A    between atoms: C_15  and  O_18
REMARK   12  A    between atoms: O_18  and  C_19
REMARK   13  A    between atoms: C_19  and  C_20
REMARK   14  A    between atoms: C_19  and  C_21
REMARK   15  A    between atoms: C_30  and  O_36
REMARK   16  A    between atoms: C_31  and  O_33
REMARK   17  A    between atoms: O_33  and  C_34
REMARK   18  A    between atoms: C_34  and  C_35
REMARK                            x       y       z     vdW  Elec       q    Type
REMARK                         _______ _______ _______ _____ _____    ______ ____
ROOT
ATOM      1  N   UNL     1       2.749  -0.811   2.598  0.00  0.00    -0.285 N 
ATOM      2  C   UNL     1       3.759  -0.131   1.781  0.00  0.00    +0.144 C 
ATOM      3  C   UNL     1       3.611   1.348   2.054  0.00  0.00    +0.071 C 
ATOM      4  C   UNL     1       4.356   2.372   1.502  0.00  0.00    +0.133 C 
ATOM      5  C   UNL     1       2.565   1.471   2.981  0.00  0.00    +0.249 C 
ATOM      6  O   UNL     1       2.143   2.515   3.446  0.00  0.00    -0.282 OA
ATOM      7  C   UNL     1       2.057   0.108   3.292  0.00  0.00    +0.288 C 
ATOM      8  O   UNL     1       1.150  -0.138   4.061  0.00  0.00    -0.266 OA
ENDROOT
BRANCH   4   9
ATOM      9  C   UNL     1       3.980   3.772   1.751  0.00  0.00    +0.017 A 
ATOM     10  C   UNL     1       2.663   4.194   1.537  0.00  0.00    +0.015 A 
ATOM     11  C   UNL     1       2.315   5.504   1.776  0.00  0.00    +0.046 A 
ATOM     12  C   UNL     1       3.272   6.410   2.219  0.00  0.00    +0.121 A 
ATOM     13  C   UNL     1       4.583   5.997   2.429  0.00  0.00    +0.046 A 
ATOM     14  C   UNL     1       4.940   4.688   2.198  0.00  0.00    +0.015 A 
BRANCH  12  15
ATOM     15  O   UNL     1       2.925   7.702   2.449  0.00  0.00    -0.489 OA
BRANCH  15  16
ATOM     16  C   UNL     1       1.577   8.073   2.156  0.00  0.00    +0.167 C 
ATOM     17  C   UNL     1       0.683   7.736   3.351  0.00  0.00    +0.051 C 
ATOM     18  C   UNL     1       1.511   9.576   1.877  0.00  0.00    +0.051 C 
ENDBRANCH  15  16
ENDBRANCH  12  15
ENDBRANCH   4   9
BRANCH   2  19
ATOM     19  C   UNL     1       5.137  -0.595   2.175  0.00  0.00    -0.019 A 
ATOM     20  C   UNL     1       5.444  -0.793   3.508  0.00  0.00    +0.009 A 
ATOM     21  C   UNL     1       6.706  -1.223   3.873  0.00  0.00    +0.049 A 
ATOM     22  C   UNL     1       7.670  -1.447   2.903  0.00  0.00    +0.158 A 
ATOM     23  C   UNL     1       7.363  -1.242   1.562  0.00  0.00    +0.162 A 
ATOM     24  C   UNL     1       6.094  -0.816   1.202  0.00  0.00    +0.055 A 
BRANCH  22  25
ATOM     25  O   UNL     1       8.914  -1.865   3.261  0.00  0.00    -0.503 OA
ATOM     26  H   UNL     1       9.536  -1.145   3.433  0.00  0.00    +0.292 HD
ENDBRANCH  22  25
BRANCH  23  27
ATOM     27  O   UNL     1       8.305  -1.461   0.606  0.00  0.00    -0.489 OA
BRANCH  27  28
ATOM     28  C   UNL     1       7.918  -1.231  -0.751  0.00  0.00    +0.226 C 
ATOM     29  C   UNL     1       9.101  -1.527  -1.675  0.00  0.00    +0.048 C 
ENDBRANCH  27  28
ENDBRANCH  23  27
ENDBRANCH   2  19
BRANCH   4  30
ATOM     30  O   UNL     1       5.430   2.087   0.735  0.00  0.00    -0.506 OA
ATOM     31  H   UNL     1       5.849   2.939   0.420  0.00  0.00    +0.292 HD
ENDBRANCH   4  30
BRANCH   1  32
ATOM     32  C   UNL     1       2.528  -2.259   2.648  0.00  0.00    +0.090 C 
BRANCH  32  33
ATOM     33  C   UNL     1       1.505  -2.656   1.582  0.00  0.00    -0.060 C 
BRANCH  33  34
ATOM     34  N   UNL     1       1.310  -4.121   1.631  0.00  0.00    +0.380 N 
ATOM     35  H   UNL     1       2.227  -4.581   1.587  0.00  0.00    -0.082 HD
BRANCH  34  37
ATOM     36  C   UNL     1      -0.726  -3.825   3.003  0.00  0.00    -0.017 C 
ATOM     37  C   UNL     1       0.644  -4.499   2.896  0.00  0.00    -0.082 C 
ENDBRANCH  34  37
BRANCH  34  38
ATOM     38  C   UNL     1       0.495  -4.561   0.480  0.00  0.00    -0.082 C 
ATOM     39  C   UNL     1       0.554  -6.087   0.389  0.00  0.00    -0.017 C 
ENDBRANCH  34  38
ENDBRANCH  33  34
ENDBRANCH  32  33
ENDBRANCH   1  32
TORSDOF 13
