REMARK  Name = ZINC39685753
REMARK  13 active torsions:
REMARK  status: ('A' for Active; 'I' for Inactive)
REMARK    1  A    between atoms: C_1  and  C_2
REMARK    2  A    between atoms: C_2  and  C_3
REMARK    3  A    between atoms: C_2  and  C_4
REMARK    4  A    between atoms: C_4  and  C_6
REMARK    5  A    between atoms: C_4  and  N_13
REMARK    6  A    between atoms: N_8  and  C_9
REMARK    7  A    between atoms: C_9  and  C_10
REMARK    8  A    between atoms: C_9  and  C_11
REMARK    9  A    between atoms: C_9  and  C_12
REMARK   10  A    between atoms: C_14  and  C_16
REMARK   11  A    between atoms: C_27  and  C_29
REMARK   12  A    between atoms: C_32  and  O_35
REMARK   13  A    between atoms: O_35  and  C_36
REMARK                            x       y       z     vdW  Elec       q    Type
REMARK                         _______ _______ _______ _____ _____    ______ ____
ROOT
ATOM      1  C   UNL     1       0.599  -4.345   1.817  0.00  0.00    +0.100 C 
ATOM      2  C   UNL     1       1.799  -4.119   0.871  0.00  0.00    +0.121 C 
ATOM      3  N   UNL     1       2.908  -3.710   1.765  0.00  0.00    -0.296 N 
ATOM      4  C   UNL     1       2.751  -4.568   2.964  0.00  0.00    +0.115 C 
ATOM      5  C   UNL     1       1.227  -4.644   3.189  0.00  0.00    -0.004 C 
ATOM      6  C   UNL     1       0.832  -6.040   3.659  0.00  0.00    -0.010 C 
ATOM      7  C   UNL     1       1.420  -6.291   5.050  0.00  0.00    -0.082 C 
ATOM      8  N   UNL     1       0.919  -5.277   5.986  0.00  0.00    +0.379 N 
ATOM      9  C   UNL     1       1.383  -3.946   5.577  0.00  0.00    -0.082 C 
ATOM     10  C   UNL     1       0.793  -3.595   4.208  0.00  0.00    -0.010 C 
ATOM     11  C   UNL     1       3.848  -2.771   1.539  0.00  0.00    +0.247 C 
ATOM     12  O   UNL     1       3.778  -2.067   0.550  0.00  0.00    -0.270 OA
ATOM     13  H   UNL     1      -0.090  -5.294   5.990  0.00  0.00    -0.086 HD
ATOM     14  H   UNL     1       1.260  -5.480   6.914  0.00  0.00    -0.086 HD
ENDROOT
BRANCH  11  15
ATOM     15  C   UNL     1       4.962  -2.597   2.492  0.00  0.00    +0.037 A 
ATOM     16  C   UNL     1       5.330  -3.646   3.338  0.00  0.00    +0.016 A 
ATOM     17  C   UNL     1       6.370  -3.480   4.225  0.00  0.00    +0.047 A 
ATOM     18  C   UNL     1       7.053  -2.271   4.280  0.00  0.00    +0.130 A 
ATOM     19  C   UNL     1       6.690  -1.225   3.440  0.00  0.00    +0.047 A 
ATOM     20  C   UNL     1       5.655  -1.385   2.546  0.00  0.00    +0.016 A 
BRANCH  18  21
ATOM     21  O   UNL     1       8.077  -2.111   5.156  0.00  0.00    -0.406 OA
BRANCH  21  22
ATOM     22  C   UNL     1       8.735  -0.843   5.160  0.00  0.00    +0.575 C 
ATOM     23  F   UNL     1       7.812   0.161   5.473  0.00  0.00    -0.133 F 
ATOM     24  F   UNL     1       9.757  -0.851   6.115  0.00  0.00    -0.133 F 
ATOM     25  F   UNL     1       9.281  -0.597   3.896  0.00  0.00    -0.133 F 
ENDBRANCH  21  22
ENDBRANCH  18  21
ENDBRANCH  11  15
BRANCH   1  27
ATOM     26  N   UNL     1      -1.564  -3.204   2.192  0.00  0.00    -0.303 N 
ATOM     27  C   UNL     1      -0.254  -3.105   1.889  0.00  0.00    +0.219 C 
ATOM     28  O   UNL     1       0.238  -2.017   1.675  0.00  0.00    -0.275 OA
ATOM     29  H   UNL     1      -1.957  -4.074   2.364  0.00  0.00    +0.149 HD
BRANCH  26  30
ATOM     30  C   UNL     1      -2.393  -1.998   2.263  0.00  0.00    +0.161 C 
BRANCH  30  31
ATOM     31  C   UNL     1      -3.570  -2.250   3.168  0.00  0.00    +0.234 C 
ATOM     32  O   UNL     1      -3.920  -3.387   3.406  0.00  0.00    -0.274 OA
ATOM     33  N   UNL     1      -4.235  -1.212   3.714  0.00  0.00    -0.309 N 
ATOM     34  H   UNL     1      -3.915  -0.307   3.579  0.00  0.00    +0.149 HD
BRANCH  33  35
ATOM     35  C   UNL     1      -5.440  -1.452   4.512  0.00  0.00    +0.026 C 
ATOM     36  C   UNL     1      -5.091  -2.339   5.709  0.00  0.00    +0.031 C 
ATOM     37  C   UNL     1      -5.995  -0.117   5.011  0.00  0.00    +0.031 C 
ATOM     38  C   UNL     1      -6.492  -2.152   3.649  0.00  0.00    +0.031 C 
ENDBRANCH  33  35
ENDBRANCH  30  31
BRANCH  30  40
ATOM     39  C   UNL     1      -1.705  -1.263  -0.024  0.00  0.00    +0.009 C 
ATOM     40  C   UNL     1      -2.894  -1.641   0.862  0.00  0.00    +0.012 C 
ATOM     41  C   UNL     1      -3.617  -2.846   0.257  0.00  0.00    +0.009 C 
ENDBRANCH  30  40
ENDBRANCH  26  30
ENDBRANCH   1  27
TORSDOF 8
