REMARK  Name = ZINC39659831
REMARK  4 active torsions:
REMARK  status: ('A' for Active; 'I' for Inactive)
REMARK    1  A    between atoms: C_1  and  C_2
REMARK    2  A    between atoms: C_6  and  C_9
REMARK    3  A    between atoms: C_13  and  C_22
REMARK    4  A    between atoms: N_24  and  C_25
REMARK                            x       y       z     vdW  Elec       q    Type
REMARK                         _______ _______ _______ _____ _____    ______ ____
ROOT
ATOM      1  C   UNL     1       0.086  -2.896   2.597  0.00  0.00    +0.251 C 
ATOM      2  O   UNL     1       1.130  -3.248   3.110  0.00  0.00    -0.270 OA
ATOM      3  N   UNL     1      -1.091  -3.267   3.140  0.00  0.00    -0.296 N 
ATOM      4  C   UNL     1      -2.455  -2.946   2.660  0.00  0.00    +0.121 C 
ATOM      5  C   UNL     1      -3.264  -4.243   2.883  0.00  0.00    +0.100 C 
ATOM      6  C   UNL     1      -2.509  -4.989   3.997  0.00  0.00    -0.004 C 
ATOM      7  C   UNL     1      -1.311  -4.095   4.350  0.00  0.00    +0.115 C 
ATOM      8  C   UNL     1      -3.410  -5.172   5.215  0.00  0.00    -0.010 C 
ATOM      9  C   UNL     1      -2.658  -5.966   6.286  0.00  0.00    -0.082 C 
ATOM     10  N   UNL     1      -2.264  -7.271   5.743  0.00  0.00    +0.379 N 
ATOM     11  C   UNL     1      -1.323  -7.088   4.631  0.00  0.00    -0.082 C 
ATOM     12  C   UNL     1      -2.020  -6.342   3.490  0.00  0.00    -0.010 C 
ATOM     13  H   UNL     1      -1.822  -7.816   6.469  0.00  0.00    -0.086 HD
ATOM     14  H   UNL     1      -3.083  -7.758   5.413  0.00  0.00    -0.086 HD
ENDROOT
BRANCH   1  20
ATOM     15  C   UNL     1       0.142   1.609   0.442  0.00  0.00    +0.047 C 
ATOM     16  C   UNL     1       0.132   0.106   0.335  0.00  0.00    -0.014 A 
ATOM     17  C   UNL     1       0.141  -0.497  -0.909  0.00  0.00    +0.007 A 
ATOM     18  C   UNL     1       0.132  -1.877  -1.018  0.00  0.00    +0.021 A 
ATOM     19  C   UNL     1       0.114  -2.663   0.117  0.00  0.00    +0.056 A 
ATOM     20  C   UNL     1       0.105  -2.062   1.379  0.00  0.00    +0.091 A 
ATOM     21  C   UNL     1       0.120  -0.667   1.481  0.00  0.00    +0.140 A 
ATOM     22  F   UNL     1       0.117  -0.077   2.696  0.00  0.00    -0.204 F 
ATOM     23 CL   UNL     1       0.102  -4.393  -0.024  0.00  0.00    -0.083 Cl
ENDBRANCH   1  20
BRANCH   5  24
ATOM     24  C   UNL     1      -4.667  -3.917   3.324  0.00  0.00    +0.218 C 
ATOM     25  O   UNL     1      -4.881  -2.918   3.977  0.00  0.00    -0.275 OA
ATOM     26  N   UNL     1      -5.685  -4.737   2.993  0.00  0.00    -0.312 N 
ATOM     27  H   UNL     1      -5.513  -5.537   2.472  0.00  0.00    +0.149 HD
BRANCH  26  28
ATOM     28  C   UNL     1      -7.049  -4.420   3.422  0.00  0.00    +0.073 C 
ATOM     29  C   UNL     1      -7.275  -4.952   4.839  0.00  0.00    +0.022 C 
ATOM     30  C   UNL     1      -8.522  -4.296   5.436  0.00  0.00    +0.002 C 
ATOM     31  C   UNL     1      -8.508  -2.798   5.129  0.00  0.00    +0.000 C 
ATOM     32  C   UNL     1      -9.652  -2.463   4.169  0.00  0.00    +0.000 C 
ATOM     33  C   UNL     1      -9.281  -2.921   2.757  0.00  0.00    +0.000 C 
ATOM     34  C   UNL     1      -9.428  -4.440   2.658  0.00  0.00    +0.002 C 
ATOM     35  C   UNL     1      -8.049  -5.075   2.466  0.00  0.00    +0.022 C 
ENDBRANCH  26  28
ENDBRANCH   5  24
TORSDOF 3
