REMARK  Name = ZINC38784438
REMARK  5 active torsions:
REMARK  status: ('A' for Active; 'I' for Inactive)
REMARK    1  A    between atoms: C_13  and  S_15
REMARK    2  A    between atoms: S_15  and  C_16
REMARK    3  A    between atoms: C_16  and  C_17
REMARK    4  A    between atoms: N_19  and  C_20
REMARK    5  A    between atoms: N_28  and  C_29
REMARK                            x       y       z     vdW  Elec       q    Type
REMARK                         _______ _______ _______ _____ _____    ______ ____
ROOT
ATOM      1  C   UNL     1       5.737  -5.560   3.671  0.00  0.00    +0.225 C 
ATOM      2  O   UNL     1       5.111  -6.492   4.129  0.00  0.00    -0.275 OA
ATOM      3  N   UNL     1       7.018  -5.362   4.041  0.00  0.00    -0.296 N 
ATOM      4  H   UNL     1       7.519  -4.617   3.674  0.00  0.00    +0.151 HD
ENDROOT
BRANCH   3   5
ATOM      5  C   UNL     1       7.654  -6.273   4.996  0.00  0.00    +0.174 C 
ATOM      6  C   UNL     1       9.052  -6.642   4.497  0.00  0.00    +0.138 C 
ATOM      7  C   UNL     1       9.820  -7.301   5.614  0.00  0.00    +0.224 C 
ATOM      8  O   UNL     1      10.614  -8.183   5.367  0.00  0.00    -0.275 OA
ATOM      9  N   UNL     1       9.623  -6.910   6.887  0.00  0.00    -0.240 N 
ATOM     10  C   UNL     1       8.686  -5.997   7.193  0.00  0.00    +0.310 C 
ATOM     11  O   UNL     1       8.679  -5.504   8.304  0.00  0.00    -0.252 OA
ATOM     12  N   UNL     1       7.757  -5.617   6.301  0.00  0.00    -0.263 N 
ATOM     13  H   UNL     1      10.166  -7.293   7.594  0.00  0.00    +0.159 HD
BRANCH  12  14
ATOM     14  C   UNL     1       6.835  -4.530   6.638  0.00  0.00    +0.079 C 
ATOM     15  C   UNL     1       7.631  -3.254   6.919  0.00  0.00    +0.022 C 
ATOM     16  C   UNL     1       6.668  -2.119   7.271  0.00  0.00    +0.002 C 
ATOM     17  C   UNL     1       5.862  -2.501   8.514  0.00  0.00    +0.000 C 
ATOM     18  C   UNL     1       5.065  -3.777   8.233  0.00  0.00    +0.002 C 
ATOM     19  C   UNL     1       6.029  -4.912   7.881  0.00  0.00    +0.022 C 
ENDBRANCH  12  14
ENDBRANCH   3   5
BRANCH   1  20
ATOM     20  C   UNL     1       5.084  -4.623   2.688  0.00  0.00    +0.173 C 
BRANCH  20  21
ATOM     21  S   UNL     1       3.373  -5.150   2.396  0.00  0.00    -0.075 S 
BRANCH  21  33
ATOM     22  C   UNL     1      -0.016   1.348   0.009  0.00  0.00    +0.001 A 
ATOM     23  C   UNL     1       1.156   2.116   0.002  0.00  0.00    +0.002 A 
ATOM     24  C   UNL     1       2.382   1.544  -0.019  0.00  0.00    +0.026 A 
ATOM     25  C   UNL     1       2.490   0.081  -0.035  0.00  0.00    +0.046 A 
ATOM     26  N   UNL     1       3.530  -0.719  -0.024  0.00  0.00    -0.358 N 
ATOM     27  C   UNL     1       3.070  -2.089  -0.174  0.00  0.00    +0.252 C 
ATOM     28  C   UNL     1       1.561  -2.038  -0.014  0.00  0.00    +0.117 C 
ATOM     29  C   UNL     1       1.230  -0.705  -0.014  0.00  0.00    +0.025 A 
ATOM     30  C   UNL     1       0.002  -0.004   0.002  0.00  0.00    +0.012 A 
ATOM     31  N   UNL     1       0.842  -3.139   0.220  0.00  0.00    -0.147 NA
ATOM     32  N   UNL     1       1.473  -4.102   0.821  0.00  0.00    -0.122 NA
ATOM     33  C   UNL     1       2.755  -3.971   1.242  0.00  0.00    +0.208 C 
ATOM     34  N   UNL     1       3.565  -3.019   0.839  0.00  0.00    -0.227 NA
ATOM     35  H   UNL     1       4.455  -0.441   0.070  0.00  0.00    +0.162 HD
ENDBRANCH  21  33
ENDBRANCH  20  21
ENDBRANCH   1  20
TORSDOF 5
