REMARK  Name = ZINC44872142
REMARK  8 active torsions:
REMARK  status: ('A' for Active; 'I' for Inactive)
REMARK    1  A    between atoms: C_3  and  C_32
REMARK    2  A    between atoms: C_6  and  C_7
REMARK    3  A    between atoms: C_7  and  N_8
REMARK    4  A    between atoms: C_9  and  C_11
REMARK    5  A    between atoms: C_14  and  C_17
REMARK    6  A    between atoms: N_19  and  C_24
REMARK    7  A    between atoms: C_24  and  C_25
REMARK    8  A    between atoms: C_32  and  N_33
REMARK                            x       y       z     vdW  Elec       q    Type
REMARK                         _______ _______ _______ _____ _____    ______ ____
ROOT
ATOM      1  C   UNL     1      -3.304  -1.939  -2.997  0.00  0.00    +0.037 A 
ATOM      2  C   UNL     1      -2.534  -1.476  -4.066  0.00  0.00    +0.013 A 
ATOM      3  C   UNL     1      -2.948  -1.708  -5.361  0.00  0.00    +0.007 A 
ATOM      4  C   UNL     1      -4.122  -2.398  -5.603  0.00  0.00    -0.017 A 
ATOM      5  C   UNL     1      -4.890  -2.860  -4.548  0.00  0.00    +0.007 A 
ATOM      6  C   UNL     1      -4.485  -2.640  -3.248  0.00  0.00    +0.013 A 
ENDROOT
BRANCH   4   7
ATOM      7  C   UNL     1      -4.568  -2.647  -7.021  0.00  0.00    +0.165 C 
ATOM      8  N   UNL     1      -6.034  -2.793  -7.097  0.00  0.00    -0.280 N 
ATOM      9  C   UNL     1      -6.550  -3.803  -7.786  0.00  0.00    +0.227 C 
ATOM     10  O   UNL     1      -7.750  -3.954  -7.877  0.00  0.00    -0.275 OA
ATOM     11  C   UNL     1      -5.581  -4.765  -8.457  0.00  0.00    +0.167 C 
ATOM     12  S   UNL     1      -4.007  -4.303  -7.610  0.00  0.00    -0.124 S 
BRANCH   8  13
ATOM     13  C   UNL     1      -6.910  -1.834  -6.421  0.00  0.00    +0.144 C 
BRANCH  13  14
ATOM     14  C   UNL     1      -7.230  -0.698  -7.358  0.00  0.00    -0.030 A 
ATOM     15  C   UNL     1      -6.414   0.418  -7.395  0.00  0.00    +0.006 A 
ATOM     16  C   UNL     1      -6.706   1.460  -8.255  0.00  0.00    +0.020 A 
ATOM     17  C   UNL     1      -7.816   1.387  -9.078  0.00  0.00    +0.041 A 
ATOM     18  C   UNL     1      -8.632   0.271  -9.040  0.00  0.00    +0.020 A 
ATOM     19  C   UNL     1      -8.335  -0.773  -8.184  0.00  0.00    +0.006 A 
ATOM     20 CL   UNL     1      -8.184   2.696 -10.157  0.00  0.00    -0.084 Cl
ENDBRANCH  13  14
ENDBRANCH   8  13
ENDBRANCH   4   7
BRANCH   1  22
ATOM     21  N   UNL     1      -1.726  -1.018  -1.368  0.00  0.00    -0.307 N 
ATOM     22  C   UNL     1      -2.867  -1.694  -1.606  0.00  0.00    +0.244 C 
ATOM     23  O   UNL     1      -3.536  -2.104  -0.678  0.00  0.00    -0.270 OA
ATOM     24  H   UNL     1      -1.192  -0.691  -2.108  0.00  0.00    +0.149 HD
BRANCH  21  25
ATOM     25  C   UNL     1      -1.293  -0.775   0.011  0.00  0.00    +0.139 C 
BRANCH  25  31
ATOM     26  C   UNL     1      -0.017   1.378   0.010  0.00  0.00    +0.005 A 
ATOM     27  C   UNL     1       1.171   2.086   0.002  0.00  0.00    +0.002 A 
ATOM     28  C   UNL     1       2.377   1.411  -0.013  0.00  0.00    -0.064 A 
ATOM     29  C   UNL     1       2.396   0.029  -0.020  0.00  0.00    +0.002 A 
ATOM     30  C   UNL     1       1.208  -0.679  -0.012  0.00  0.00    +0.005 A 
ATOM     31  C   UNL     1       0.002  -0.004   0.002  0.00  0.00    -0.030 A 
BRANCH  28  32
ATOM     32  C   UNL     1       3.672   2.182  -0.022  0.00  0.00    -0.043 C 
BRANCH  32  33
ATOM     33  N   UNL     1       4.106   2.426   1.360  0.00  0.00    +0.382 N 
ATOM     34  C   UNL     1       4.512   1.150   2.002  0.00  0.00    -0.078 C 
ATOM     35  C   UNL     1       5.433   1.612   3.159  0.00  0.00    -0.020 C 
ATOM     36  C   UNL     1       6.195   2.806   2.538  0.00  0.00    -0.020 C 
ATOM     37  C   UNL     1       5.311   3.284   1.372  0.00  0.00    -0.078 C 
ATOM     38  H   UNL     1       3.364   2.861   1.887  0.00  0.00    -0.081 HD
ENDBRANCH  32  33
ENDBRANCH  28  32
ENDBRANCH  25  31
ENDBRANCH  21  25
ENDBRANCH   1  22
TORSDOF 8
