REMARK  Name = ZINC06312098
REMARK  11 active torsions:
REMARK  status: ('A' for Active; 'I' for Inactive)
REMARK    1  A    between atoms: C_1  and  C_2
REMARK    2  A    between atoms: C_2  and  O_3
REMARK    3  A    between atoms: O_3  and  C_4
REMARK    4  A    between atoms: C_4  and  C_6
REMARK    5  A    between atoms: C_7  and  C_30
REMARK    6  A    between atoms: C_11  and  N_17
REMARK    7  A    between atoms: C_12  and  C_14
REMARK    8  A    between atoms: C_18  and  C_20
REMARK    9  A    between atoms: C_23  and  C_26
REMARK   10  A    between atoms: C_26  and  O_28
REMARK   11  A    between atoms: O_28  and  C_29
REMARK                            x       y       z     vdW  Elec       q    Type
REMARK                         _______ _______ _______ _____ _____    ______ ____
ROOT
ATOM      1  C   UNL     1      -1.433   2.977  -1.201  0.00  0.00    +0.065 C 
ATOM      2  C   UNL     1      -1.329   4.313  -1.200  0.00  0.00    +0.016 C 
ATOM      3  N   UNL     1      -1.134   5.021  -0.038  0.00  0.00    -0.312 N 
ATOM      4  C   UNL     1      -1.314   4.347   1.145  0.00  0.00    +0.076 A 
ATOM      5  C   UNL     1      -1.423   2.978   1.271  0.00  0.00    +0.014 A 
ATOM      6  C   UNL     1      -1.609   2.484   2.550  0.00  0.00    +0.050 A 
ATOM      7  C   UNL     1      -1.672   3.377   3.620  0.00  0.00    +0.096 A 
ATOM      8  S   UNL     1      -1.464   4.951   2.800  0.00  0.00    -0.067 S 
ATOM      9  C   UNL     1      -1.334   2.112   0.020  0.00  0.00    +0.091 C 
ATOM     10  C   UNL     1      -1.428   5.058  -2.506  0.00  0.00    +0.061 C 
ATOM     11  H   UNL     1      -0.881   5.957  -0.053  0.00  0.00    +0.152 HD
ENDROOT
BRANCH   9  12
ATOM     12  C   UNL     1      -0.017   1.379   0.010  0.00  0.00    -0.035 A 
ATOM     13  C   UNL     1       1.168   2.094   0.002  0.00  0.00    +0.005 A 
ATOM     14  C   UNL     1       2.377   1.430  -0.013  0.00  0.00    +0.015 A 
ATOM     15  C   UNL     1       2.404   0.034  -0.021  0.00  0.00    +0.059 A 
ATOM     16  C   UNL     1       1.204  -0.681  -0.013  0.00  0.00    +0.015 A 
ATOM     17  C   UNL     1       0.002  -0.004   0.002  0.00  0.00    +0.005 A 
BRANCH  15  18
ATOM     18  C   UNL     1       3.695  -0.684  -0.036  0.00  0.00    +0.339 C 
ATOM     19  O   UNL     1       3.715  -1.898  -0.043  0.00  0.00    -0.245 OA
BRANCH  18  20
ATOM     20  O   UNL     1       4.850   0.009  -0.044  0.00  0.00    -0.464 OA
ATOM     21  C   UNL     1       6.081  -0.762  -0.059  0.00  0.00    +0.280 C 
ENDBRANCH  18  20
ENDBRANCH  15  18
ENDBRANCH   9  12
BRANCH   7  22
ATOM     22  C   UNL     1      -1.852   3.107   4.992  0.00  0.00    +0.250 C 
ATOM     23  O   UNL     1      -1.977   1.957   5.376  0.00  0.00    -0.270 OA
ATOM     24  N   UNL     1      -1.885   4.121   5.880  0.00  0.00    -0.325 N 
ATOM     25  H   UNL     1      -1.785   5.036   5.574  0.00  0.00    +0.145 HD
ATOM     26  H   UNL     1      -2.009   3.936   6.824  0.00  0.00    +0.145 HD
ENDBRANCH   7  22
BRANCH   6  27
ATOM     27  N   UNL     1      -1.731   1.114   2.767  0.00  0.00    -0.357 N 
ATOM     28  H   UNL     1      -1.687   0.499   2.018  0.00  0.00    +0.142 HD
ATOM     29  H   UNL     1      -1.861   0.775   3.666  0.00  0.00    +0.142 HD
ENDBRANCH   6  27
BRANCH   1  30
ATOM     30  C   UNL     1      -1.651   2.339  -2.442  0.00  0.00    +0.338 C 
ATOM     31  O   UNL     1      -1.739   3.001  -3.460  0.00  0.00    -0.245 OA
BRANCH  30  32
ATOM     32  O   UNL     1      -1.763   0.995  -2.499  0.00  0.00    -0.462 OA
BRANCH  32  34
ATOM     33  C   UNL     1      -2.082  -1.104  -3.653  0.00  0.00    +0.048 C 
ATOM     34  C   UNL     1      -1.983   0.417  -3.787  0.00  0.00    +0.229 C 
ENDBRANCH  32  34
ENDBRANCH  30  32
ENDBRANCH   1  30
TORSDOF 8
