REMARK  Name = ZINC09779827
REMARK  10 active torsions:
REMARK  status: ('A' for Active; 'I' for Inactive)
REMARK    1  A    between atoms: C_1  and  C_2
REMARK    2  A    between atoms: C_2  and  C_3
REMARK    3  A    between atoms: C_3  and  C_4
REMARK    4  A    between atoms: C_4  and  C_5
REMARK    5  A    between atoms: N_7  and  C_8
REMARK    6  A    between atoms: C_11  and  C_14
REMARK    7  A    between atoms: N_16  and  N_17
REMARK    8  A    between atoms: C_18  and  C_20
REMARK    9  A    between atoms: C_20  and  O_21
REMARK   10  A    between atoms: O_21  and  C_22
REMARK                            x       y       z     vdW  Elec       q    Type
REMARK                         _______ _______ _______ _____ _____    ______ ____
ROOT
ATOM      1  C   UNL     1      -6.854  -0.764   3.083  0.00  0.00    +0.260 C 
ATOM      2  O   UNL     1      -6.457  -0.526   4.207  0.00  0.00    -0.269 OA
ATOM      3  N   UNL     1      -6.148  -0.340   2.015  0.00  0.00    -0.230 N 
ATOM      4  H   UNL     1      -6.464  -0.530   1.118  0.00  0.00    +0.173 HD
ENDROOT
BRANCH   1   8
ATOM      5  C   UNL     1     -10.463  -2.929   2.518  0.00  0.00    +0.033 A 
ATOM      6  C   UNL     1     -10.011  -2.657   3.805  0.00  0.00    +0.024 A 
ATOM      7  C   UNL     1      -8.841  -1.956   3.992  0.00  0.00    +0.015 A 
ATOM      8  C   UNL     1      -8.108  -1.516   2.886  0.00  0.00    +0.038 A 
ATOM      9  C   UNL     1      -8.569  -1.785   1.595  0.00  0.00    +0.015 A 
ATOM     10  C   UNL     1      -9.736  -2.493   1.415  0.00  0.00    +0.024 A 
BRANCH   5  13
ATOM     11  C   UNL     1     -11.985  -4.624   3.188  0.00  0.00    +0.217 C 
ATOM     12  O   UNL     1     -11.300  -4.838   4.167  0.00  0.00    -0.275 OA
ATOM     13  N   UNL     1     -11.649  -3.639   2.332  0.00  0.00    -0.285 N 
ATOM     14  H   UNL     1     -12.231  -3.425   1.587  0.00  0.00    +0.155 HD
BRANCH  11  15
ATOM     15  C   UNL     1     -13.211  -5.461   2.931  0.00  0.00    +0.096 C 
BRANCH  15  16
ATOM     16  C   UNL     1     -13.364  -6.499   4.044  0.00  0.00    +0.009 C 
BRANCH  16  18
ATOM     17  C   UNL     1     -14.762  -8.387   4.896  0.00  0.00    +0.004 C 
ATOM     18  C   UNL     1     -14.609  -7.348   3.783  0.00  0.00    -0.003 C 
ENDBRANCH  16  18
ENDBRANCH  15  16
ENDBRANCH  11  15
ENDBRANCH   5  13
ENDBRANCH   1   8
BRANCH   3  19
ATOM     19  N   UNL     1      -4.957   0.374   2.202  0.00  0.00    -0.231 N 
ATOM     20  C   UNL     1      -4.251   0.797   1.135  0.00  0.00    +0.267 C 
ATOM     21  O   UNL     1      -4.647   0.560   0.013  0.00  0.00    -0.271 OA
ATOM     22  H   UNL     1      -4.640   0.564   3.099  0.00  0.00    +0.173 HD
BRANCH  20  23
ATOM     23  C   UNL     1      -2.970   1.565   1.335  0.00  0.00    +0.326 C 
BRANCH  23  24
ATOM     24  O   UNL     1      -2.412   1.901   0.063  0.00  0.00    -0.480 OA
BRANCH  24  25
ATOM     25  C   UNL     1      -1.246   2.600   0.066  0.00  0.00    +0.153 A 
ATOM     26  C   UNL     1      -1.267   3.988   0.072  0.00  0.00    +0.085 A 
ATOM     27  C   UNL     1      -0.081   4.697   0.070  0.00  0.00    +0.043 A 
ATOM     28  C   UNL     1       1.129   4.023   0.066  0.00  0.00    +0.044 A 
ATOM     29  C   UNL     1       1.153   2.640   0.065  0.00  0.00    +0.039 A 
ATOM     30  C   UNL     1      -0.032   1.927   0.067  0.00  0.00    +0.062 A 
ATOM     31 BR   UNL     1       0.002   0.036   0.064  0.00  0.00    -0.046 Br
ATOM     32 CL   UNL     1       2.618   4.916   0.062  0.00  0.00    -0.083 Cl
ATOM     33 CL   UNL     1      -2.784   4.833   0.077  0.00  0.00    -0.080 Cl
ENDBRANCH  24  25
ENDBRANCH  23  24
ENDBRANCH  20  23
ENDBRANCH   3  19
TORSDOF 9
