REMARK  Name = ZINC36396524
REMARK  7 active torsions:
REMARK  status: ('A' for Active; 'I' for Inactive)
REMARK    1  A    between atoms: C_1  and  C_2
REMARK    2  A    between atoms: C_3  and  C_7
REMARK    3  A    between atoms: N_9  and  C_10
REMARK    4  A    between atoms: C_15  and  C_16
REMARK    5  A    between atoms: N_18  and  N_19
REMARK    6  A    between atoms: C_20  and  C_22
REMARK    7  A    between atoms: N_26  and  C_27
REMARK                            x       y       z     vdW  Elec       q    Type
REMARK                         _______ _______ _______ _____ _____    ______ ____
ROOT
ATOM      1  C   UNL     1      -4.799  -0.902   0.098  0.00  0.00    +0.047 A 
ATOM      2  C   UNL     1      -5.086   0.456   0.091  0.00  0.00    +0.044 A 
ATOM      3  C   UNL     1      -6.396   0.887   0.189  0.00  0.00    +0.043 A 
ATOM      4  C   UNL     1      -7.430  -0.031   0.295  0.00  0.00    +0.021 A 
ATOM      5  C   UNL     1      -7.163  -1.382   0.303  0.00  0.00    +0.016 A 
ATOM      6  C   UNL     1      -5.844  -1.833   0.199  0.00  0.00    +0.059 A 
ATOM      7 CL   UNL     1      -6.747   2.587   0.181  0.00  0.00    -0.083 Cl
ENDROOT
BRANCH   1  10
ATOM      8  C   UNL     1      -2.556  -0.558  -0.595  0.00  0.00    +0.252 C 
ATOM      9  O   UNL     1      -2.890   0.480  -1.133  0.00  0.00    -0.270 OA
ATOM     10  N   UNL     1      -3.481  -1.338  -0.002  0.00  0.00    -0.281 N 
ATOM     11  H   UNL     1      -3.228  -2.204   0.356  0.00  0.00    +0.155 HD
BRANCH   8  14
ATOM     12  C   UNL     1      -0.169   1.021  -1.881  0.00  0.00    +0.087 C 
ATOM     13  C   UNL     1      -0.088  -0.292  -1.145  0.00  0.00    +0.114 A 
ATOM     14  C   UNL     1      -1.139  -0.964  -0.593  0.00  0.00    +0.078 A 
ATOM     15  C   UNL     1      -0.563  -2.176   0.006  0.00  0.00    +0.054 A 
ATOM     16  C   UNL     1       0.755  -2.119  -0.239  0.00  0.00    +0.196 A 
ATOM     17  O   UNL     1       1.025  -0.998  -0.927  0.00  0.00    -0.467 OA
ENDBRANCH   8  14
ENDBRANCH   1  10
BRANCH   6  18
ATOM     18  C   UNL     1      -5.552  -3.278   0.202  0.00  0.00    +0.262 C 
ATOM     19  O   UNL     1      -4.399  -3.665   0.207  0.00  0.00    -0.269 OA
ATOM     20  N   UNL     1      -6.563  -4.170   0.198  0.00  0.00    -0.230 N 
ATOM     21  H   UNL     1      -7.482  -3.861   0.194  0.00  0.00    +0.173 HD
BRANCH  20  22
ATOM     22  N   UNL     1      -6.285  -5.543   0.201  0.00  0.00    -0.229 N 
ATOM     23  C   UNL     1      -7.296  -6.435   0.197  0.00  0.00    +0.277 C 
ATOM     24  O   UNL     1      -8.447  -6.050   0.284  0.00  0.00    -0.267 OA
ATOM     25  H   UNL     1      -5.366  -5.852   0.205  0.00  0.00    +0.173 HD
BRANCH  23  26
ATOM     26  C   UNL     1      -7.008  -7.869   0.089  0.00  0.00    +0.107 A 
ATOM     27  C   UNL     1      -5.758  -8.451   0.081  0.00  0.00    +0.047 A 
ATOM     28  C   UNL     1      -5.948  -9.831  -0.038  0.00  0.00    +0.036 A 
ATOM     29  C   UNL     1      -7.282 -10.063  -0.099  0.00  0.00    +0.101 A 
ATOM     30  N   UNL     1      -7.937  -8.879  -0.018  0.00  0.00    -0.345 N 
ATOM     31  C   UNL     1      -9.391  -8.703  -0.042  0.00  0.00    +0.149 C 
ATOM     32 BR   UNL     1      -4.586 -11.141  -0.102  0.00  0.00    -0.049 Br
ENDBRANCH  23  26
ENDBRANCH  20  22
ENDBRANCH   6  18
TORSDOF 5
