REMARK  Name = ZINC16009800
REMARK  5 active torsions:
REMARK  status: ('A' for Active; 'I' for Inactive)
REMARK    1  A    between atoms: C_3  and  N_10
REMARK    2  A    between atoms: C_5  and  N_7
REMARK    3  A    between atoms: C_15  and  C_33
REMARK    4  A    between atoms: C_33  and  C_34
REMARK    5  A    between atoms: C_37  and  O_40
REMARK                            x       y       z     vdW  Elec       q    Type
REMARK                         _______ _______ _______ _____ _____    ______ ____
ROOT
ATOM      1  N   UNL     1       3.586   2.125  -0.021  0.00  0.00    -0.210 N 
ATOM      2  C   UNL     1       4.782   1.530   0.057  0.00  0.00    +0.232 C 
ATOM      3  O   UNL     1       4.965   0.334   0.141  0.00  0.00    -0.274 OA
ATOM      4  C   UNL     1       5.869   2.580   0.022  0.00  0.00    +0.108 C 
ATOM      5  C   UNL     1       6.564   2.635   1.400  0.00  0.00    +0.072 C 
ATOM      6  N   UNL     1       6.661   4.084   1.720  0.00  0.00    -0.295 NA
ATOM      7  C   UNL     1       5.387   4.646   1.234  0.00  0.00    +0.136 C 
ATOM      8  C   UNL     1       5.077   3.912  -0.094  0.00  0.00    +0.123 C 
ATOM      9  C   UNL     1       3.634   3.459  -0.113  0.00  0.00    +0.233 C 
ATOM     10  O   UNL     1       2.671   4.191  -0.196  0.00  0.00    -0.274 OA
ATOM     11  C   UNL     1       4.289   4.470   2.243  0.00  0.00    +0.006 A 
ATOM     12  C   UNL     1       3.721   3.369   2.843  0.00  0.00    +0.046 A 
ATOM     13  C   UNL     1       2.697   3.531   3.763  0.00  0.00    +0.124 A 
ATOM     14  C   UNL     1       2.247   4.803   4.074  0.00  0.00    +0.040 A 
ATOM     15  C   UNL     1       2.813   5.908   3.473  0.00  0.00    +0.026 A 
ATOM     16  C   UNL     1       3.843   5.753   2.548  0.00  0.00    +0.039 A 
ATOM     17  N   UNL     1       4.564   6.701   1.817  0.00  0.00    -0.283 N 
ATOM     18  C   UNL     1       5.490   6.132   1.021  0.00  0.00    +0.243 C 
ATOM     19  O   UNL     1       6.257   6.706   0.278  0.00  0.00    -0.273 OA
ATOM     20  F   UNL     1       2.139   2.451   4.353  0.00  0.00    -0.205 F 
ATOM     21  H   UNL     1       6.764   4.229   2.713  0.00  0.00    +0.124 HD
ATOM     22  H   UNL     1       4.415   7.658   1.877  0.00  0.00    +0.155 HD
ENDROOT
BRANCH   1  25
ATOM     23  C   UNL     1       0.797   0.021   1.134  0.00  0.00    +0.004 A 
ATOM     24  C   UNL     1       1.986   0.725   1.129  0.00  0.00    +0.024 A 
ATOM     25  C   UNL     1       2.381   1.409  -0.013  0.00  0.00    +0.046 A 
ATOM     26  C   UNL     1       1.579   1.383  -1.147  0.00  0.00    +0.056 A 
ATOM     27  C   UNL     1       0.393   0.677  -1.136  0.00  0.00    +0.128 A 
ATOM     28  C   UNL     1       0.002  -0.003   0.003  0.00  0.00    +0.033 A 
BRANCH  27  29
ATOM     29  N   UNL     1      -0.462   0.649  -2.344  0.00  0.00    +0.056 N 
ATOM     30  O   UNL     1      -0.121   1.244  -3.339  0.00  0.00    -0.126 OA
ATOM     31  O   UNL     1      -1.502   0.031  -2.334  0.00  0.00    -0.126 OA
ENDBRANCH  27  29
ENDBRANCH   1  25
BRANCH   5  32
ATOM     32  C   UNL     1       7.958   2.010   1.318  0.00  0.00    +0.054 C 
BRANCH  32  33
ATOM     33  C   UNL     1       8.569   1.963   2.695  0.00  0.00    -0.046 A 
ATOM     34  C   UNL     1       9.320   3.029   3.154  0.00  0.00    +0.007 A 
ATOM     35  C   UNL     1       9.881   2.988   4.416  0.00  0.00    +0.045 A 
ATOM     36  C   UNL     1       9.690   1.875   5.223  0.00  0.00    +0.117 A 
ATOM     37  C   UNL     1       8.936   0.807   4.760  0.00  0.00    +0.045 A 
ATOM     38  C   UNL     1       8.373   0.855   3.499  0.00  0.00    +0.007 A 
BRANCH  36  39
ATOM     39  O   UNL     1      10.242   1.832   6.464  0.00  0.00    -0.507 OA
ATOM     40  H   UNL     1       9.673   2.189   7.160  0.00  0.00    +0.292 HD
ENDBRANCH  36  39
ENDBRANCH  32  33
ENDBRANCH   5  32
TORSDOF 5
