REMARK  Name = ZINC43209310
REMARK  4 active torsions:
REMARK  status: ('A' for Active; 'I' for Inactive)
REMARK    1  A    between atoms: C_4  and  N_7
REMARK    2  A    between atoms: C_12  and  C_24
REMARK    3  A    between atoms: N_14  and  C_20
REMARK    4  A    between atoms: C_20  and  C_21
REMARK                            x       y       z     vdW  Elec       q    Type
REMARK                         _______ _______ _______ _____ _____    ______ ____
ROOT
ATOM      1  N   UNL     1       3.624  -0.652  -0.037  0.00  0.00    -0.208 N 
ATOM      2  C   UNL     1       3.730  -2.020  -0.051  0.00  0.00    +0.234 C 
ATOM      3  O   UNL     1       2.852  -2.828  -0.267  0.00  0.00    -0.274 OA
ATOM      4  C   UNL     1       5.119  -2.286   0.247  0.00  0.00    +0.139 C 
ATOM      5  C   UNL     1       6.105  -3.366   0.076  0.00  0.00    +0.131 C 
ATOM      6  N   UNL     1       7.410  -2.625   0.154  0.00  0.00    -0.170 NA
ATOM      7  O   UNL     1       7.079  -1.174   0.262  0.00  0.00    -0.282 OA
ATOM      8  C   UNL     1       5.838  -1.072  -0.462  0.00  0.00    +0.242 C 
ATOM      9  C   UNL     1       4.837  -0.028  -0.047  0.00  0.00    +0.258 C 
ATOM     10  O   UNL     1       5.064   1.132   0.225  0.00  0.00    -0.272 OA
ENDROOT
BRANCH   5  11
ATOM     11  C   UNL     1       5.991  -4.377   1.188  0.00  0.00    -0.012 A 
ATOM     12  C   UNL     1       6.470  -4.075   2.462  0.00  0.00    -0.011 A 
ATOM     13  C   UNL     1       7.069  -2.827   2.738  0.00  0.00    +0.009 A 
ATOM     14  C   UNL     1       7.525  -2.565   3.990  0.00  0.00    +0.001 A 
ATOM     15  C   UNL     1       7.419  -3.501   5.019  0.00  0.00    +0.001 A 
ATOM     16  C   UNL     1       6.855  -4.720   4.821  0.00  0.00    +0.010 A 
ATOM     17  C   UNL     1       6.359  -5.058   3.544  0.00  0.00    +0.001 A 
ATOM     18  C   UNL     1       5.773  -6.301   3.306  0.00  0.00    +0.056 A 
ATOM     19  C   UNL     1       5.295  -6.603   2.031  0.00  0.00    +0.001 A 
ATOM     20  C   UNL     1       5.400  -5.617   0.951  0.00  0.00    -0.011 A 
ATOM     21  C   UNL     1       4.899  -5.952  -0.326  0.00  0.00    +0.009 A 
ATOM     22  C   UNL     1       4.329  -7.169  -0.522  0.00  0.00    +0.001 A 
ATOM     23  C   UNL     1       4.223  -8.104   0.507  0.00  0.00    +0.001 A 
ATOM     24  C   UNL     1       4.696  -7.851   1.754  0.00  0.00    +0.010 A 
ATOM     25 CL   UNL     1       5.642  -7.465   4.587  0.00  0.00    -0.082 Cl
ENDBRANCH   5  11
BRANCH   1  29
ATOM     26  C   UNL     1      -0.017   1.379   0.010  0.00  0.00    +0.000 A 
ATOM     27  C   UNL     1       1.170   2.089   0.002  0.00  0.00    +0.002 A 
ATOM     28  C   UNL     1       2.377   1.419  -0.013  0.00  0.00    +0.024 A 
ATOM     29  C   UNL     1       2.399   0.031  -0.021  0.00  0.00    +0.044 A 
ATOM     30  C   UNL     1       1.207  -0.680  -0.013  0.00  0.00    +0.024 A 
ATOM     31  C   UNL     1       0.002  -0.004   0.002  0.00  0.00    +0.002 A 
ENDBRANCH   1  29
BRANCH   6  32
ATOM     32  C   UNL     1       8.237  -2.890  -1.031  0.00  0.00    +0.210 C 
BRANCH  32  33
ATOM     33  C   UNL     1       9.622  -2.338  -0.811  0.00  0.00    +0.227 C 
ATOM     34  O   UNL     1       9.893  -1.779   0.230  0.00  0.00    -0.275 OA
ATOM     35  N   UNL     1      10.559  -2.465  -1.772  0.00  0.00    -0.328 N 
ATOM     36  H   UNL     1      10.341  -2.912  -2.605  0.00  0.00    +0.145 HD
ATOM     37  H   UNL     1      11.450  -2.109  -1.630  0.00  0.00    +0.145 HD
ENDBRANCH  32  33
ENDBRANCH   6  32
TORSDOF 4
