REMARK  Name = ZINC36206479
REMARK  13 active torsions:
REMARK  status: ('A' for Active; 'I' for Inactive)
REMARK    1  A    between atoms: C_1  and  C_2
REMARK    2  A    between atoms: C_5  and  C_9
REMARK    3  A    between atoms: C_6  and  C_8
REMARK    4  A    between atoms: C_18  and  C_20
REMARK    5  A    between atoms: C_20  and  N_21
REMARK    6  A    between atoms: N_21  and  C_22
REMARK    7  A    between atoms: N_21  and  C_25
REMARK    8  A    between atoms: C_22  and  C_23
REMARK    9  A    between atoms: C_25  and  C_26
REMARK   10  A    between atoms: C_26  and  C_28
REMARK   11  A    between atoms: C_26  and  O_31
REMARK   12  A    between atoms: C_28  and  C_29
REMARK   13  A    between atoms: C_28  and  C_30
REMARK                            x       y       z     vdW  Elec       q    Type
REMARK                         _______ _______ _______ _____ _____    ______ ____
ROOT
ATOM      1  C   UNL     1       0.713  -4.662  -0.087  0.00  0.00    +0.004 A 
ATOM      2  C   UNL     1       1.754  -5.456  -0.436  0.00  0.00    +0.056 A 
ATOM      3  S   UNL     1       1.134  -7.101  -0.143  0.00  0.00    -0.076 S 
ATOM      4  C   UNL     1      -0.492  -6.689   0.435  0.00  0.00    +0.116 A 
ATOM      5  C   UNL     1      -0.514  -5.286   0.394  0.00  0.00    +0.080 A 
ATOM      6  C   UNL     1      -1.735  -4.672   0.823  0.00  0.00    +0.260 A 
ATOM      7  O   UNL     1      -1.853  -3.459   0.818  0.00  0.00    -0.267 OA
ATOM      8  N   UNL     1      -2.750  -5.456   1.231  0.00  0.00    -0.312 N 
ATOM      9  H   UNL     1      -3.579  -5.046   1.522  0.00  0.00    +0.170 HD
ATOM     10  C   UNL     1      -2.637  -6.809   1.242  0.00  0.00    +0.094 A 
ATOM     11  N   UNL     1      -1.540  -7.398   0.847  0.00  0.00    -0.229 NA
ENDROOT
BRANCH   1  16
ATOM     12  C   UNL     1       1.133   1.068  -0.472  0.00  0.00    +0.044 C 
ATOM     13  C   UNL     1       1.023  -0.432  -0.371  0.00  0.00    -0.050 A 
ATOM     14  C   UNL     1       1.068  -1.204  -1.518  0.00  0.00    +0.004 A 
ATOM     15  C   UNL     1       0.968  -2.578  -1.432  0.00  0.00    +0.009 A 
ATOM     16  C   UNL     1       0.821  -3.187  -0.186  0.00  0.00    -0.014 A 
ATOM     17  C   UNL     1       0.776  -2.403   0.966  0.00  0.00    -0.042 A 
ATOM     18  C   UNL     1       0.883  -1.030   0.868  0.00  0.00    +0.007 A 
ATOM     19  C   UNL     1       0.617  -3.053   2.316  0.00  0.00    +0.044 C 
ENDBRANCH   1  16
BRANCH  10  20
ATOM     20  C   UNL     1      -3.801  -7.646   1.707  0.00  0.00    -0.003 C 
BRANCH  20  21
ATOM     21  N   UNL     1      -3.443  -9.068   1.630  0.00  0.00    +0.388 N 
ATOM     22  H   UNL     1      -3.138  -9.288   0.693  0.00  0.00    -0.081 HD
BRANCH  21  23
ATOM     23  C   UNL     1      -2.357  -9.352   2.578  0.00  0.00    -0.051 C 
BRANCH  23  24
ATOM     24  C   UNL     1      -1.889 -10.773   2.396  0.00  0.00    -0.053 C 
ATOM     25  C   UNL     1      -0.627 -11.020   2.144  0.00  0.00    +0.002 C 
ENDBRANCH  23  24
ENDBRANCH  21  23
BRANCH  21  26
ATOM     26  C   UNL     1      -4.614  -9.887   1.968  0.00  0.00    -0.046 C 
BRANCH  26  27
ATOM     27  C   UNL     1      -5.692  -9.703   0.897  0.00  0.00    +0.101 C 
BRANCH  27  28
ATOM     28  C   UNL     1      -6.907 -10.566   1.242  0.00  0.00    +0.010 C 
ATOM     29  C   UNL     1      -7.463 -10.143   2.603  0.00  0.00    +0.010 C 
ATOM     30  C   UNL     1      -7.984 -10.382   0.172  0.00  0.00    +0.010 C 
ENDBRANCH  27  28
BRANCH  27  31
ATOM     31  O   UNL     1      -5.172 -10.098  -0.374  0.00  0.00    -0.393 OA
ATOM     32  H   UNL     1      -4.957 -11.038  -0.436  0.00  0.00    +0.210 HD
ENDBRANCH  27  31
ENDBRANCH  26  27
ENDBRANCH  21  26
ENDBRANCH  20  21
ENDBRANCH  10  20
TORSDOF 9
