REMARK  Name = ZINC35636674
REMARK  10 active torsions:
REMARK  status: ('A' for Active; 'I' for Inactive)
REMARK    1  A    between atoms: C_1  and  C_2
REMARK    2  A    between atoms: C_2  and  N_3
REMARK    3  A    between atoms: C_6  and  C_11
REMARK    4  A    between atoms: N_18  and  C_20
REMARK    5  A    between atoms: C_20  and  C_21
REMARK    6  A    between atoms: N_23  and  C_24
REMARK    7  A    between atoms: C_24  and  C_25
REMARK    8  A    between atoms: C_25  and  N_26
REMARK    9  A    between atoms: N_26  and  C_27
REMARK   10  A    between atoms: N_26  and  C_28
REMARK                            x       y       z     vdW  Elec       q    Type
REMARK                         _______ _______ _______ _____ _____    ______ ____
ROOT
ATOM      1  N   UNL     1      -1.372  -0.511   0.012  0.00  0.00    -0.257 N 
ATOM      2  C   UNL     1      -1.968  -0.736   1.220  0.00  0.00    +0.042 C 
ATOM      3  C   UNL     1      -3.231  -1.202   1.301  0.00  0.00    +0.058 C 
ATOM      4  C   UNL     1      -3.968  -1.468   0.004  0.00  0.00    +0.142 C 
ATOM      5  N   UNL     1      -3.238  -1.194  -1.246  0.00  0.00    -0.288 N 
ATOM      6  C   UNL     1      -1.978  -0.724  -1.163  0.00  0.00    +0.307 C 
ATOM      7  O   UNL     1      -1.369  -0.491  -2.189  0.00  0.00    -0.252 OA
ATOM      8  C   UNL     1      -3.615  -1.349   2.650  0.00  0.00    +0.247 C 
ATOM      9  O   UNL     1      -4.704  -1.752   3.015  0.00  0.00    -0.270 OA
ATOM     10  N   UNL     1      -2.620  -0.986   3.480  0.00  0.00    -0.283 N 
ATOM     11  C   UNL     1      -1.487  -0.565   2.644  0.00  0.00    +0.160 C 
ATOM     12  H   UNL     1      -3.656  -1.344  -2.108  0.00  0.00    +0.151 HD
ENDROOT
BRANCH   4  13
ATOM     13  C   UNL     1      -4.380  -2.917  -0.008  0.00  0.00    -0.016 A 
ATOM     14  C   UNL     1      -5.674  -3.282   0.313  0.00  0.00    +0.013 A 
ATOM     15  C   UNL     1      -6.011  -4.594   0.293  0.00  0.00    +0.045 A 
ATOM     16  S   UNL     1      -4.475  -5.363  -0.191  0.00  0.00    -0.105 S 
ATOM     17  C   UNL     1      -3.488  -3.883  -0.339  0.00  0.00    +0.051 A 
ENDBRANCH   4  13
BRANCH   1  19
ATOM     18  C   UNL     1      -0.019   1.526   0.010  0.00  0.00    +0.025 C 
ATOM     19  C   UNL     1       0.002  -0.004   0.002  0.00  0.00    +0.111 C 
ENDBRANCH   1  19
BRANCH  10  20
ATOM     20  C   UNL     1      -2.660  -1.007   4.944  0.00  0.00    +0.204 C 
BRANCH  20  21
ATOM     21  C   UNL     1      -2.182  -2.347   5.441  0.00  0.00    +0.230 C 
ATOM     22  O   UNL     1      -1.841  -3.201   4.649  0.00  0.00    -0.274 OA
ATOM     23  N   UNL     1      -2.132  -2.597   6.764  0.00  0.00    -0.316 N 
ATOM     24  H   UNL     1      -2.404  -1.914   7.397  0.00  0.00    +0.149 HD
BRANCH  23  25
ATOM     25  C   UNL     1      -1.667  -3.900   7.247  0.00  0.00    +0.085 C 
BRANCH  25  26
ATOM     26  C   UNL     1      -1.709  -3.921   8.776  0.00  0.00    -0.061 C 
BRANCH  26  27
ATOM     27  N   UNL     1      -1.243  -5.227   9.260  0.00  0.00    +0.377 N 
ATOM     28  C   UNL     1       0.172  -5.404   8.907  0.00  0.00    -0.097 C 
ATOM     29  C   UNL     1      -1.395  -5.291  10.720  0.00  0.00    -0.097 C 
ATOM     30  H   UNL     1      -1.790  -5.959   8.833  0.00  0.00    -0.083 HD
ENDBRANCH  26  27
ENDBRANCH  25  26
ENDBRANCH  23  25
ENDBRANCH  20  21
ENDBRANCH  10  20
TORSDOF 7
