REMARK  Name = ZINC04885833
REMARK  7 active torsions:
REMARK  status: ('A' for Active; 'I' for Inactive)
REMARK    1  A    between atoms: C_1  and  C_2
REMARK    2  A    between atoms: C_2  and  C_28
REMARK    3  A    between atoms: C_7  and  C_9
REMARK    4  A    between atoms: C_12  and  O_15
REMARK    5  A    between atoms: N_18  and  C_21
REMARK    6  A    between atoms: C_28  and  O_30
REMARK    7  A    between atoms: O_30  and  C_31
REMARK                            x       y       z     vdW  Elec       q    Type
REMARK                         _______ _______ _______ _____ _____    ______ ____
ROOT
ATOM      1  C   UNL     1      -3.608   3.667  -1.037  0.00  0.00    +0.002 C 
ATOM      2  C   UNL     1      -2.351   4.193  -0.341  0.00  0.00    +0.041 C 
ATOM      3  C   UNL     1      -2.490   4.066   1.190  0.00  0.00    +0.086 C 
ATOM      4  C   UNL     1      -1.807   2.717   1.542  0.00  0.00    +0.077 C 
ATOM      5  C   UNL     1      -1.319   2.156   0.190  0.00  0.00    -0.027 C 
ATOM      6  C   UNL     1      -0.612   3.136   2.367  0.00  0.00    +0.229 C 
ATOM      7  O   UNL     1       0.204   2.381   2.852  0.00  0.00    -0.275 OA
ATOM      8  N   UNL     1      -0.595   4.469   2.479  0.00  0.00    -0.207 N 
ATOM      9  C   UNL     1      -1.602   5.092   1.857  0.00  0.00    +0.229 C 
ATOM     10  O   UNL     1      -1.776   6.291   1.832  0.00  0.00    -0.275 OA
ATOM     11  N   UNL     1      -1.204   3.342  -0.660  0.00  0.00    +0.395 N 
ATOM     12  H   UNL     1      -0.328   3.838  -0.461  0.00  0.00    -0.083 HD
ATOM     13  H   UNL     1      -1.227   3.072  -1.651  0.00  0.00    -0.083 HD
ENDROOT
BRANCH   8  14
ATOM     14  C   UNL     1       0.399   5.158   3.191  0.00  0.00    +0.079 A 
ATOM     15  C   UNL     1       0.229   5.424   4.542  0.00  0.00    +0.027 A 
ATOM     16  C   UNL     1       1.209   6.103   5.240  0.00  0.00    +0.002 A 
ATOM     17  C   UNL     1       2.360   6.516   4.595  0.00  0.00    +0.003 A 
ATOM     18  C   UNL     1       2.534   6.254   3.249  0.00  0.00    +0.040 A 
ATOM     19  C   UNL     1       1.559   5.570   2.545  0.00  0.00    +0.145 A 
ATOM     20  F   UNL     1       1.732   5.308   1.231  0.00  0.00    -0.204 F 
ENDBRANCH   8  14
BRANCH   5  21
ATOM     21  C   UNL     1       0.011   1.467   0.356  0.00  0.00    -0.060 A 
ATOM     22  C   UNL     1       1.166   2.217   0.476  0.00  0.00    +0.005 A 
ATOM     23  C   UNL     1       2.387   1.587   0.623  0.00  0.00    +0.045 A 
ATOM     24  C   UNL     1       2.453   0.202   0.650  0.00  0.00    +0.117 A 
ATOM     25  C   UNL     1       1.292  -0.548   0.530  0.00  0.00    +0.045 A 
ATOM     26  C   UNL     1       0.074   0.086   0.384  0.00  0.00    +0.005 A 
BRANCH  24  27
ATOM     27  O   UNL     1       3.653  -0.420   0.794  0.00  0.00    -0.507 OA
ATOM     28  H   UNL     1       4.099  -0.612  -0.042  0.00  0.00    +0.292 HD
ENDBRANCH  24  27
ENDBRANCH   5  21
BRANCH   2  29
ATOM     29  C   UNL     1      -2.097   5.627  -0.728  0.00  0.00    +0.296 C 
ATOM     30  O   UNL     1      -3.012   6.326  -1.093  0.00  0.00    -0.252 OA
BRANCH  29  31
ATOM     31  O   UNL     1      -0.853   6.128  -0.668  0.00  0.00    -0.469 OA
ATOM     32  C   UNL     1      -0.682   7.517  -1.056  0.00  0.00    +0.280 C 
ENDBRANCH  29  31
ENDBRANCH   2  29
TORSDOF 5
