REMARK  Name = ZINC60324368
REMARK  12 active torsions:
REMARK  status: ('A' for Active; 'I' for Inactive)
REMARK    1  A    between atoms: C_1  and  C_2
REMARK    2  A    between atoms: C_2  and  N_3
REMARK    3  A    between atoms: N_3  and  C_4
REMARK    4  A    between atoms: C_4  and  C_5
REMARK    5  A    between atoms: C_8  and  O_11
REMARK    6  A    between atoms: N_14  and  C_15
REMARK    7  A    between atoms: C_15  and  C_16
REMARK    8  A    between atoms: C_16  and  C_17
REMARK    9  A    between atoms: C_16  and  C_18
REMARK   10  A    between atoms: C_16  and  N_19
REMARK   11  A    between atoms: C_21  and  C_28
REMARK   12  A    between atoms: C_24  and  C_27
REMARK                            x       y       z     vdW  Elec       q    Type
REMARK                         _______ _______ _______ _____ _____    ______ ____
ROOT
ATOM      1  N   UNL     1       5.336   0.827   3.095  0.00  0.00    -0.282 N 
ATOM      2  C   UNL     1       4.791   0.060   2.130  0.00  0.00    +0.302 C 
ATOM      3  O   UNL     1       3.895  -0.715   2.402  0.00  0.00    -0.253 OA
ATOM      4  N   UNL     1       5.239   0.155   0.862  0.00  0.00    -0.301 N 
ATOM      5  H   UNL     1       5.902   0.824   0.630  0.00  0.00    +0.150 HD
ENDROOT
BRANCH   1   7
ATOM      6  C   UNL     1       7.718   1.195   2.680  0.00  0.00    +0.024 C 
ATOM      7  C   UNL     1       6.333   1.843   2.749  0.00  0.00    +0.106 C 
ENDBRANCH   1   7
BRANCH   1   8
ATOM      8  C   UNL     1       4.931   0.643   4.492  0.00  0.00    +0.144 C 
BRANCH   8   9
ATOM      9  C   UNL     1       3.756   1.537   4.795  0.00  0.00    -0.030 A 
ATOM     10  C   UNL     1       3.969   2.821   5.261  0.00  0.00    +0.009 A 
ATOM     11  C   UNL     1       2.894   3.643   5.541  0.00  0.00    +0.046 A 
ATOM     12  C   UNL     1       1.600   3.179   5.354  0.00  0.00    +0.117 A 
ATOM     13  C   UNL     1       1.389   1.890   4.885  0.00  0.00    +0.046 A 
ATOM     14  C   UNL     1       2.468   1.074   4.602  0.00  0.00    +0.009 A 
BRANCH  12  15
ATOM     15  O   UNL     1       0.541   3.984   5.628  0.00  0.00    -0.507 OA
ATOM     16  H   UNL     1       0.247   4.518   4.877  0.00  0.00    +0.292 HD
ENDBRANCH  12  15
ENDBRANCH   8   9
ENDBRANCH   1   8
BRANCH   4  17
ATOM     17  C   UNL     1       4.725  -0.754  -0.166  0.00  0.00    +0.093 C 
BRANCH  17  18
ATOM     18  C   UNL     1       5.471  -0.512  -1.479  0.00  0.00    -0.055 C 
ATOM     19  C   UNL     1       6.942  -0.896  -1.308  0.00  0.00    -0.008 C 
ATOM     20  C   UNL     1       4.847  -1.366  -2.585  0.00  0.00    -0.008 C 
BRANCH  18  21
ATOM     21  N   UNL     1       5.375   0.907  -1.844  0.00  0.00    +0.384 N 
ATOM     22  C   UNL     1       3.961   1.288  -1.952  0.00  0.00    -0.075 C 
ATOM     23  C   UNL     1       3.854   2.785  -2.251  0.00  0.00    -0.031 C 
ATOM     24  C   UNL     1       4.568   3.088  -3.571  0.00  0.00    +0.003 C 
ATOM     25  C   UNL     1       6.023   2.619  -3.473  0.00  0.00    -0.031 C 
ATOM     26  C   UNL     1       6.050   1.129  -3.128  0.00  0.00    -0.075 C 
ATOM     27  C   UNL     1       6.725   2.847  -4.813  0.00  0.00    +0.005 C 
ATOM     28  C   UNL     1       2.380   3.179  -2.365  0.00  0.00    +0.005 C 
ATOM     29  H   UNL     1       5.818   1.467  -1.131  0.00  0.00    -0.081 HD
ENDBRANCH  18  21
ENDBRANCH  17  18
ENDBRANCH   4  17
TORSDOF 7
