REMARK  Name = ZINC09815425
REMARK  9 active torsions:
REMARK  status: ('A' for Active; 'I' for Inactive)
REMARK    1  A    between atoms: C_1  and  C_2
REMARK    2  A    between atoms: C_2  and  C_3
REMARK    3  A    between atoms: C_2  and  C_4
REMARK    4  A    between atoms: C_4  and  C_6
REMARK    5  A    between atoms: C_4  and  N_21
REMARK    6  A    between atoms: N_8  and  C_9
REMARK    7  A    between atoms: C_14  and  C_15
REMARK    8  A    between atoms: C_15  and  C_17
REMARK    9  A    between atoms: C_22  and  C_24
REMARK                            x       y       z     vdW  Elec       q    Type
REMARK                         _______ _______ _______ _____ _____    ______ ____
ROOT
ATOM      1  C   UNL     1       3.821   5.941  -0.708  0.00  0.00    +0.162 C 
ENDROOT
BRANCH   1   2
ATOM      2  C   UNL     1       2.636   5.029  -0.517  0.00  0.00    +0.238 C 
ATOM      3  O   UNL     1       1.571   5.486  -0.160  0.00  0.00    -0.273 OA
ATOM      4  N   UNL     1       2.761   3.707  -0.744  0.00  0.00    -0.283 N 
ATOM      5  H   UNL     1       3.626   3.333  -0.971  0.00  0.00    +0.155 HD
BRANCH   4   6
ATOM      6  C   UNL     1       1.646   2.876  -0.652  0.00  0.00    +0.048 A 
ATOM      7  C   UNL     1       0.652   3.147   0.274  0.00  0.00    +0.073 A 
ATOM      8  C   UNL     1      -0.458   2.322   0.366  0.00  0.00    +0.168 A 
ATOM      9  C   UNL     1      -0.585   1.214  -0.478  0.00  0.00    +0.167 A 
ATOM     10  C   UNL     1       0.399   0.931  -1.400  0.00  0.00    +0.062 A 
ATOM     11  C   UNL     1       1.525   1.760  -1.500  0.00  0.00    +0.042 A 
ATOM     12  O   UNL     1      -1.755   0.574  -0.182  0.00  0.00    -0.453 OA
ATOM     13  C   UNL     1      -2.144   1.064   1.115  0.00  0.00    +0.466 C 
ATOM     14  O   UNL     1      -1.552   2.374   1.179  0.00  0.00    -0.453 OA
BRANCH  11  15
ATOM     15  C   UNL     1       2.571   1.466  -2.483  0.00  0.00    +0.162 C 
ATOM     16  O   UNL     1       3.535   2.197  -2.580  0.00  0.00    -0.292 OA
ATOM     17  C   UNL     1       2.450   0.256  -3.372  0.00  0.00    +0.091 C 
ENDBRANCH  11  15
ENDBRANCH   4   6
ENDBRANCH   1   2
BRANCH   1  18
ATOM     18  N   UNL     1       3.366   7.334  -0.727  0.00  0.00    -0.300 N 
ATOM     19  C   UNL     1       4.097   8.272  -1.362  0.00  0.00    +0.246 C 
ATOM     20  O   UNL     1       5.133   7.962  -1.918  0.00  0.00    -0.270 OA
ATOM     21  H   UNL     1       2.540   7.581  -0.283  0.00  0.00    +0.150 HD
BRANCH  19  22
ATOM     22  C   UNL     1       3.639   9.676  -1.382  0.00  0.00    +0.055 A 
ATOM     23  C   UNL     1       2.450  10.035  -0.744  0.00  0.00    +0.016 A 
ATOM     24  C   UNL     1       2.027  11.347  -0.766  0.00  0.00    +0.021 A 
ATOM     25  C   UNL     1       2.780  12.310  -1.419  0.00  0.00    +0.042 A 
ATOM     26  C   UNL     1       3.959  11.962  -2.054  0.00  0.00    +0.040 A 
ATOM     27  C   UNL     1       4.397  10.652  -2.034  0.00  0.00    +0.054 A 
ATOM     28 CL   UNL     1       5.881  10.218  -2.824  0.00  0.00    -0.083 Cl
ATOM     29 CL   UNL     1       2.240  13.960  -1.442  0.00  0.00    -0.083 Cl
ENDBRANCH  19  22
ENDBRANCH   1  18
BRANCH   1  31
ATOM     30  C   UNL     1       6.060   6.585   0.194  0.00  0.00    +0.009 C 
ATOM     31  C   UNL     1       4.807   5.743   0.445  0.00  0.00    +0.012 C 
ATOM     32  C   UNL     1       4.153   6.180   1.757  0.00  0.00    +0.009 C 
ENDBRANCH   1  31
TORSDOF 6
