REMARK  Name = ZINC32814879
REMARK  7 active torsions:
REMARK  status: ('A' for Active; 'I' for Inactive)
REMARK    1  A    between atoms: C_1  and  C_2
REMARK    2  A    between atoms: C_5  and  C_8
REMARK    3  A    between atoms: C_9  and  C_34
REMARK    4  A    between atoms: C_17  and  C_19
REMARK    5  A    between atoms: C_19  and  N_20
REMARK    6  A    between atoms: N_20  and  C_21
REMARK    7  A    between atoms: C_30  and  C_33
REMARK                            x       y       z     vdW  Elec       q    Type
REMARK                         _______ _______ _______ _____ _____    ______ ____
ROOT
ATOM      1  C   UNL     1       3.556  -0.896  -0.037  0.00  0.00    +0.007 A 
ATOM      2  C   UNL     1       3.360  -2.237  -0.042  0.00  0.00    -0.003 A 
ATOM      3  S   UNL     1       1.585  -2.394  -0.026  0.00  0.00    -0.073 S 
ATOM      4  C   UNL     1       1.151  -0.674  -0.013  0.00  0.00    +0.116 A 
ATOM      5  C   UNL     1       2.393  -0.018  -0.021  0.00  0.00    +0.080 A 
ATOM      6  C   UNL     1       2.338   1.413  -0.013  0.00  0.00    +0.260 A 
ATOM      7  O   UNL     1       3.364   2.071  -0.019  0.00  0.00    -0.267 OA
ATOM      8  N   UNL     1       1.137   2.019   0.002  0.00  0.00    -0.309 N 
ATOM      9  H   UNL     1       1.075   3.118   0.008  0.00  0.00    +0.170 HD
ATOM     10  C   UNL     1      -0.016   1.302   0.009  0.00  0.00    +0.128 A 
ATOM     11  N   UNL     1       0.002  -0.004   0.002  0.00  0.00    -0.225 NA
ATOM     12  C   UNL     1       4.395  -3.332  -0.058  0.00  0.00    +0.052 C 
ENDROOT
BRANCH   1  17
ATOM     13  C   UNL     1       8.883   1.291  -0.074  0.00  0.00    +0.044 C 
ATOM     14  C   UNL     1       7.489   0.718  -0.065  0.00  0.00    -0.050 A 
ATOM     15  C   UNL     1       7.034  -0.007  -1.151  0.00  0.00    +0.004 A 
ATOM     16  C   UNL     1       5.759  -0.534  -1.148  0.00  0.00    +0.009 A 
ATOM     17  C   UNL     1       4.928  -0.334  -0.046  0.00  0.00    -0.016 A 
ATOM     18  C   UNL     1       5.389   0.403   1.044  0.00  0.00    +0.009 A 
ATOM     19  C   UNL     1       6.669   0.921   1.031  0.00  0.00    +0.004 A 
ENDBRANCH   1  17
BRANCH  10  20
ATOM     20  C   UNL     1      -1.338   2.025   0.019  0.00  0.00    +0.176 C 
BRANCH  20  21
ATOM     21  N   UNL     1      -2.429   1.047   0.019  0.00  0.00    -0.337 N 
ATOM     22  H   UNL     1      -2.203  -0.030   0.012  0.00  0.00    +0.147 HD
BRANCH  21  23
ATOM     23  C   UNL     1      -3.759   1.482   0.028  0.00  0.00    +0.029 A 
ATOM     24  C   UNL     1      -4.044   2.841   0.036  0.00  0.00    +0.026 A 
ATOM     25  C   UNL     1      -5.356   3.276   0.044  0.00  0.00    +0.049 A 
ATOM     26  C   UNL     1      -6.390   2.356   0.043  0.00  0.00    +0.143 A 
ATOM     27  C   UNL     1      -6.107   0.991   0.035  0.00  0.00    +0.077 A 
ATOM     28  C   UNL     1      -4.793   0.555   0.022  0.00  0.00    +0.050 A 
ATOM     29  N   UNL     1      -7.165   0.071   0.035  0.00  0.00    -0.279 N 
ATOM     30  C   UNL     1      -8.408   0.502  -0.273  0.00  0.00    +0.258 C 
ATOM     31  O   UNL     1      -9.343  -0.270  -0.251  0.00  0.00    -0.271 OA
ATOM     32  C   UNL     1      -8.627   1.946  -0.646  0.00  0.00    +0.256 C 
ATOM     33  O   UNL     1      -7.686   2.770   0.049  0.00  0.00    -0.478 OA
ATOM     34  C   UNL     1     -10.048   2.361  -0.262  0.00  0.00    +0.062 C 
ATOM     35  H   UNL     1      -6.977  -0.984   0.284  0.00  0.00    +0.155 HD
ENDBRANCH  21  23
ENDBRANCH  20  21
ENDBRANCH  10  20
TORSDOF 4
