REMARK  Name = ZINC25679088
REMARK  8 active torsions:
REMARK  status: ('A' for Active; 'I' for Inactive)
REMARK    1  A    between atoms: C_1  and  N_2
REMARK    2  A    between atoms: N_2  and  C_3
REMARK    3  A    between atoms: N_2  and  C_20
REMARK    4  A    between atoms: C_3  and  C_4
REMARK    5  A    between atoms: C_4  and  C_5
REMARK    6  A    between atoms: N_7  and  N_8
REMARK    7  A    between atoms: C_20  and  C_21
REMARK    8  A    between atoms: N_23  and  C_24
REMARK                            x       y       z     vdW  Elec       q    Type
REMARK                         _______ _______ _______ _____ _____    ______ ____
ROOT
ATOM      1  C   UNL     1       4.791   0.713   0.477  0.00  0.00    +0.079 C 
ENDROOT
BRANCH   1   2
ATOM      2  C   UNL     1       6.093   1.430   0.724  0.00  0.00    +0.228 C 
ATOM      3  O   UNL     1       6.128   2.642   0.718  0.00  0.00    -0.274 OA
ATOM      4  N   UNL     1       7.218   0.724   0.953  0.00  0.00    -0.224 N 
ATOM      5  H   UNL     1       7.186  -0.375   0.959  0.00  0.00    +0.174 HD
BRANCH   4   6
ATOM      6  N   UNL     1       8.428   1.391   1.182  0.00  0.00    -0.137 N 
ATOM      7  C   UNL     1       9.011   1.510   2.393  0.00  0.00    +0.263 C 
ATOM      8  O   UNL     1       8.603   1.076   3.450  0.00  0.00    -0.271 OA
ATOM      9  C   UNL     1      10.280   2.296   2.156  0.00  0.00    +0.114 C 
ATOM     10  C   UNL     1      11.499   1.467   2.544  0.00  0.00    +0.035 C 
ATOM     11  C   UNL     1      12.773   2.270   2.270  0.00  0.00    +0.003 C 
ATOM     12  C   UNL     1      12.741   3.568   3.079  0.00  0.00    +0.000 C 
ATOM     13  C   UNL     1      11.526   4.400   2.661  0.00  0.00    +0.003 C 
ATOM     14  C   UNL     1      10.246   3.606   2.937  0.00  0.00    +0.035 C 
ATOM     15  N   UNL     1      10.272   2.557   0.711  0.00  0.00    -0.284 N 
ATOM     16  C   UNL     1       9.154   1.984   0.227  0.00  0.00    +0.326 C 
ATOM     17  O   UNL     1       8.837   2.007  -0.947  0.00  0.00    -0.251 OA
ATOM     18  H   UNL     1      11.093   3.127   0.251  0.00  0.00    +0.151 HD
ENDBRANCH   4   6
ENDBRANCH   1   2
BRANCH   1  19
ATOM     19  C   UNL     1       3.679   1.738   0.248  0.00  0.00    -0.069 C 
BRANCH  19  21
ATOM     20  C   UNL     1       2.455   0.285  -1.253  0.00  0.00    -0.096 C 
ATOM     21  N   UNL     1       2.409   1.039   0.007  0.00  0.00    +0.384 N 
ATOM     22  H   UNL     1       2.259   0.320   0.826  0.00  0.00    -0.082 HD
BRANCH  21  23
ATOM     23  C   UNL     1       1.280   1.979   0.018  0.00  0.00    +0.018 C 
BRANCH  23  24
ATOM     24  C   UNL     1      -0.015   1.208   0.015  0.00  0.00    +0.201 C 
ATOM     25  O   UNL     1       0.001  -0.004   0.004  0.00  0.00    -0.278 OA
ATOM     26  N   UNL     1      -1.191   1.867   0.018  0.00  0.00    -0.286 N 
ATOM     27  H   UNL     1      -1.207   2.963   0.102  0.00  0.00    +0.155 HD
BRANCH  26  28
ATOM     28  C   UNL     1      -2.391   1.155  -0.086  0.00  0.00    +0.047 A 
ATOM     29  C   UNL     1      -2.510  -0.099   0.499  0.00  0.00    +0.024 A 
ATOM     30  C   UNL     1      -3.698  -0.796   0.399  0.00  0.00    +0.002 A 
ATOM     31  C   UNL     1      -4.765  -0.252  -0.291  0.00  0.00    +0.001 A 
ATOM     32  C   UNL     1      -4.649   0.994  -0.880  0.00  0.00    +0.017 A 
ATOM     33  C   UNL     1      -3.465   1.699  -0.779  0.00  0.00    +0.039 A 
ATOM     34 BR   UNL     1      -3.307   3.402  -1.585  0.00  0.00    -0.048 Br
ENDBRANCH  26  28
ENDBRANCH  23  24
ENDBRANCH  21  23
ENDBRANCH  19  21
ENDBRANCH   1  19
TORSDOF 7
