REMARK  Name = ZINC12479862
REMARK  6 active torsions:
REMARK  status: ('A' for Active; 'I' for Inactive)
REMARK    1  A    between atoms: C_3  and  S_26
REMARK    2  A    between atoms: C_6  and  C_7
REMARK    3  A    between atoms: C_7  and  O_9
REMARK    4  A    between atoms: O_9  and  C_10
REMARK    5  A    between atoms: C_10  and  C_11
REMARK    6  A    between atoms: S_26  and  N_29
REMARK                            x       y       z     vdW  Elec       q    Type
REMARK                         _______ _______ _______ _____ _____    ______ ____
ROOT
ATOM      1  C   UNL     1      -2.452  -4.306   0.008  0.00  0.00    +0.170 A 
ATOM      2  N   UNL     1      -2.357  -4.937  -1.149  0.00  0.00    -0.214 NA
ATOM      3  C   UNL     1      -2.001  -6.209  -1.231  0.00  0.00    +0.128 A 
ATOM      4  C   UNL     1      -1.710  -6.924  -0.036  0.00  0.00    +0.051 A 
ATOM      5  C   UNL     1      -1.300  -8.325   0.113  0.00  0.00    -0.025 A 
ATOM      6  C   UNL     1      -1.088  -8.763   1.369  0.00  0.00    -0.004 A 
ATOM      7  S   UNL     1      -1.404  -7.362   2.412  0.00  0.00    -0.073 S 
ATOM      8  C   UNL     1      -1.832  -6.186   1.156  0.00  0.00    +0.114 A 
ATOM      9  N   UNL     1      -2.189  -4.916   1.148  0.00  0.00    -0.221 NA
ATOM     10  C   UNL     1      -0.685 -10.137   1.807  0.00  0.00    +0.043 C 
ATOM     11  C   UNL     1       0.514 -10.604   0.972  0.00  0.00    +0.005 C 
ATOM     12  C   UNL     1      -0.012 -11.316  -0.270  0.00  0.00    +0.001 C 
ATOM     13  C   UNL     1      -1.328 -10.682  -0.717  0.00  0.00    +0.005 C 
ATOM     14  C   UNL     1      -1.115  -9.225  -1.106  0.00  0.00    +0.037 C 
ATOM     15  N   UNL     1      -1.914  -6.834  -2.462  0.00  0.00    -0.343 N 
ATOM     16  H   UNL     1      -1.316  -7.588  -2.582  0.00  0.00    +0.144 HD
ATOM     17  H   UNL     1      -2.452  -6.519  -3.205  0.00  0.00    +0.144 HD
ENDROOT
BRANCH   1  18
ATOM     18  C   UNL     1      -2.863  -2.857   0.026  0.00  0.00    +0.308 C 
BRANCH  18  19
ATOM     19  O   UNL     1      -1.700  -2.031  -0.070  0.00  0.00    -0.453 OA
BRANCH  19  20
ATOM     20  C   UNL     1      -1.895  -0.698  -0.067  0.00  0.00    +0.340 C 
ATOM     21  O   UNL     1      -3.021  -0.249   0.014  0.00  0.00    -0.245 OA
BRANCH  20  27
ATOM     22  C   UNL     1      -0.939   1.600  -0.161  0.00  0.00    +0.017 A 
ATOM     23  C   UNL     1       0.145   2.449  -0.251  0.00  0.00    +0.029 A 
ATOM     24  C   UNL     1       1.426   1.934  -0.343  0.00  0.00    +0.105 A 
ATOM     25  C   UNL     1       1.629   0.566  -0.346  0.00  0.00    +0.029 A 
ATOM     26  C   UNL     1       0.555  -0.295  -0.256  0.00  0.00    +0.017 A 
ATOM     27  C   UNL     1      -0.740   0.218  -0.163  0.00  0.00    +0.059 A 
BRANCH  24  28
ATOM     28  S   UNL     1       2.804   3.027  -0.457  0.00  0.00    +0.056 S 
ATOM     29  O   UNL     1       3.850   2.296  -1.082  0.00  0.00    -0.153 OA
ATOM     30  O   UNL     1       2.309   4.250  -0.984  0.00  0.00    -0.153 OA
BRANCH  28  31
ATOM     31  N   UNL     1       3.306   3.345   1.089  0.00  0.00    -0.204 NA
ATOM     32  H   UNL     1       4.240   3.537   1.265  0.00  0.00    +0.144 HD
ATOM     33  H   UNL     1       2.666   3.339   1.817  0.00  0.00    +0.144 HD
ENDBRANCH  28  31
ENDBRANCH  24  28
ENDBRANCH  20  27
ENDBRANCH  19  20
ENDBRANCH  18  19
ENDBRANCH   1  18
TORSDOF 6
