REMARK  Name = ZINC64409709
REMARK  7 active torsions:
REMARK  status: ('A' for Active; 'I' for Inactive)
REMARK    1  A    between atoms: C_4  and  N_7
REMARK    2  A    between atoms: C_8  and  C_10
REMARK    3  A    between atoms: C_10  and  S_11
REMARK    4  A    between atoms: S_11  and  C_12
REMARK    5  A    between atoms: C_16  and  N_19
REMARK    6  A    between atoms: C_25  and  C_27
REMARK    7  A    between atoms: C_27  and  C_28
REMARK                            x       y       z     vdW  Elec       q    Type
REMARK                         _______ _______ _______ _____ _____    ______ ____
ROOT
ATOM      1  C   UNL     1       6.323  -5.225   0.374  0.00  0.00    +0.187 C 
ATOM      2  N   UNL     1       7.090  -4.633   1.506  0.00  0.00    -0.232 NA
ATOM      3  N   UNL     1       8.515  -4.547   1.209  0.00  0.00    -0.229 NA
ATOM      4  C   UNL     1       8.721  -3.907  -0.128  0.00  0.00    +0.201 C 
ATOM      5  S   UNL     1       7.356  -4.723  -1.067  0.00  0.00    -0.094 S 
ATOM      6  H   UNL     1       6.929  -5.147   2.359  0.00  0.00    +0.143 HD
ATOM      7  H   UNL     1       8.947  -5.458   1.244  0.00  0.00    +0.143 HD
ENDROOT
BRANCH   4   8
ATOM      8  N   UNL     1      10.036  -4.246  -0.689  0.00  0.00    -0.275 NA
ATOM      9  C   UNL     1      10.168  -5.697  -0.879  0.00  0.00    +0.105 C 
ATOM     10  C   UNL     1      11.607  -6.025  -1.290  0.00  0.00    +0.123 C 
ATOM     11  N   UNL     1      11.955  -5.209  -2.464  0.00  0.00    -0.299 N 
ATOM     12  C   UNL     1      11.720  -3.759  -2.398  0.00  0.00    +0.123 C 
ATOM     13  C   UNL     1      10.277  -3.520  -1.943  0.00  0.00    +0.105 C 
ATOM     14  C   UNL     1      12.476  -5.776  -3.571  0.00  0.00    +0.220 C 
ATOM     15  O   UNL     1      12.663  -6.974  -3.608  0.00  0.00    -0.275 OA
BRANCH  14  16
ATOM     16  C   UNL     1      12.825  -4.922  -4.762  0.00  0.00    +0.129 C 
BRANCH  16  17
ATOM     17  C   UNL     1      13.385  -5.792  -5.857  0.00  0.00    -0.033 C 
ATOM     18  C   UNL     1      12.707  -6.324  -6.900  0.00  0.00    -0.001 A 
ATOM     19  C   UNL     1      11.299  -6.256  -7.309  0.00  0.00    +0.010 A 
ATOM     20  C   UNL     1      10.908  -6.910  -8.427  0.00  0.00    +0.001 A 
ATOM     21  C   UNL     1      11.812  -7.649  -9.202  0.00  0.00    +0.002 A 
ATOM     22  C   UNL     1      13.121  -7.759  -8.890  0.00  0.00    +0.026 A 
ATOM     23  C   UNL     1      13.641  -7.111  -7.736  0.00  0.00    +0.043 A 
ATOM     24  N   UNL     1      14.850  -7.067  -7.230  0.00  0.00    -0.380 N 
ATOM     25  C   UNL     1      14.820  -6.241  -6.018  0.00  0.00    +0.145 C 
ATOM     26  H   UNL     1      15.634  -7.504  -7.598  0.00  0.00    +0.160 HD
ENDBRANCH  16  17
ENDBRANCH  14  16
ENDBRANCH   4   8
BRANCH   1  27
ATOM     27  S   UNL     1       4.661  -4.506   0.267  0.00  0.00    -0.121 S 
BRANCH  27  28
ATOM     28  C   UNL     1       4.962  -2.721   0.153  0.00  0.00    +0.167 C 
BRANCH  28  30
ATOM     29  N   UNL     1       3.622  -0.651  -0.037  0.00  0.00    -0.285 N 
ATOM     30  C   UNL     1       3.645  -1.995   0.057  0.00  0.00    +0.227 C 
ATOM     31  O   UNL     1       2.606  -2.620   0.064  0.00  0.00    -0.275 OA
ATOM     32  H   UNL     1       4.452  -0.156  -0.121  0.00  0.00    +0.155 HD
BRANCH  29  36
ATOM     33  C   UNL     1      -0.015   1.381   0.029  0.00  0.00    +0.000 A 
ATOM     34  C   UNL     1       0.140   0.218   0.763  0.00  0.00    +0.002 A 
ATOM     35  C   UNL     1       1.344  -0.457   0.743  0.00  0.00    +0.023 A 
ATOM     36  C   UNL     1       2.400   0.031  -0.015  0.00  0.00    +0.033 A 
ATOM     37  C   UNL     1       2.241   1.198  -0.751  0.00  0.00    +0.023 A 
ATOM     38  C   UNL     1       1.034   1.870  -0.727  0.00  0.00    +0.002 A 
ENDBRANCH  29  36
ENDBRANCH  28  30
ENDBRANCH  27  28
ENDBRANCH   1  27
TORSDOF 7
