REMARK  Name = ZINC21231169
REMARK  8 active torsions:
REMARK  status: ('A' for Active; 'I' for Inactive)
REMARK    1  A    between atoms: C_1  and  C_2
REMARK    2  A    between atoms: C_2  and  C_3
REMARK    3  A    between atoms: C_2  and  C_4
REMARK    4  A    between atoms: C_4  and  O_5
REMARK    5  A    between atoms: O_5  and  C_6
REMARK    6  A    between atoms: C_9  and  C_12
REMARK    7  A    between atoms: C_17  and  C_27
REMARK    8  A    between atoms: C_31  and  N_33
REMARK                            x       y       z     vdW  Elec       q    Type
REMARK                         _______ _______ _______ _____ _____    ______ ____
ROOT
ATOM      1  C   UNL     1       3.539   1.667   4.104  0.00  0.00    +0.032 C 
ATOM      2  C   UNL     1       4.704   1.834   3.131  0.00  0.00    +0.059 C 
ATOM      3  C   UNL     1       4.191   1.841   1.700  0.00  0.00    +0.017 C 
ATOM      4  C   UNL     1       3.102   1.130   1.363  0.00  0.00    +0.036 C 
ATOM      5  C   UNL     1       2.490   1.047  -0.016  0.00  0.00    +0.136 C 
ATOM      6  N   UNL     1       3.312   1.601  -1.070  0.00  0.00    -0.331 N 
ATOM      7  C   UNL     1       3.619   2.958  -1.099  0.00  0.00    +0.049 A 
ATOM      8  C   UNL     1       3.127   3.787  -2.097  0.00  0.00    +0.025 A 
ATOM      9  C   UNL     1       3.388   5.145  -2.043  0.00  0.00    +0.002 A 
ATOM     10  C   UNL     1       4.133   5.676  -1.006  0.00  0.00    +0.002 A 
ATOM     11  C   UNL     1       4.645   4.849  -0.021  0.00  0.00    +0.025 A 
ATOM     12  C   UNL     1       4.402   3.489  -0.085  0.00  0.00    +0.052 A 
ATOM     13  N   UNL     1       4.927   2.592   0.840  0.00  0.00    -0.316 N 
ATOM     14  C   UNL     1       2.416   0.370   2.339  0.00  0.00    +0.163 C 
ATOM     15  O   UNL     1       1.446  -0.281   2.002  0.00  0.00    -0.292 OA
ATOM     16  C   UNL     1       2.844   0.340   3.776  0.00  0.00    +0.088 C 
ATOM     17  H   UNL     1       3.704   0.946  -1.863  0.00  0.00    +0.147 HD
ATOM     18  H   UNL     1       6.024   2.516   0.844  0.00  0.00    +0.152 HD
ENDROOT
BRANCH   1  22
ATOM     19  C   UNL     1       5.004   1.583   8.117  0.00  0.00    +0.121 A 
ATOM     20  C   UNL     1       4.106   2.565   7.726  0.00  0.00    +0.046 A 
ATOM     21  C   UNL     1       3.633   2.590   6.428  0.00  0.00    +0.007 A 
ATOM     22  C   UNL     1       4.056   1.637   5.519  0.00  0.00    -0.043 A 
ATOM     23  C   UNL     1       4.947   0.654   5.908  0.00  0.00    +0.007 A 
ATOM     24  C   UNL     1       5.426   0.628   7.203  0.00  0.00    +0.046 A 
BRANCH  19  25
ATOM     25  O   UNL     1       5.471   1.557   9.393  0.00  0.00    -0.492 OA
BRANCH  25  26
ATOM     26  C   UNL     1       6.393   0.517   9.726  0.00  0.00    +0.232 C 
BRANCH  26  28
ATOM     27  C   UNL     1       7.693  -0.533  11.583  0.00  0.00    +0.010 C 
ATOM     28  C   UNL     1       6.804   0.649  11.194  0.00  0.00    +0.020 C 
ATOM     29  C   UNL     1       7.576   1.955  11.392  0.00  0.00    +0.010 C 
ENDBRANCH  26  28
ENDBRANCH  25  26
ENDBRANCH  19  25
ENDBRANCH   1  22
BRANCH   5  30
ATOM     30  C   UNL     1       1.175   1.783   0.000  0.00  0.00    -0.021 A 
ATOM     31  C   UNL     1       1.146   3.143   0.248  0.00  0.00    +0.006 A 
ATOM     32  C   UNL     1      -0.060   3.818   0.263  0.00  0.00    +0.003 A 
ATOM     33  C   UNL     1      -1.238   3.133   0.029  0.00  0.00    +0.033 A 
ATOM     34  C   UNL     1      -1.209   1.774  -0.223  0.00  0.00    +0.127 A 
ATOM     35  C   UNL     1      -0.003   1.098  -0.232  0.00  0.00    +0.038 A 
BRANCH  34  36
ATOM     36  N   UNL     1      -2.470   1.042  -0.478  0.00  0.00    +0.056 N 
ATOM     37  O   UNL     1      -2.445  -0.156  -0.696  0.00  0.00    -0.126 OA
ATOM     38  O   UNL     1      -3.532   1.637  -0.469  0.00  0.00    -0.126 OA
ENDBRANCH  34  36
ENDBRANCH   5  30
TORSDOF 6
