REMARK  Name = ZINC54617855
REMARK  8 active torsions:
REMARK  status: ('A' for Active; 'I' for Inactive)
REMARK    1  A    between atoms: C_1  and  C_2
REMARK    2  A    between atoms: C_6  and  N_9
REMARK    3  A    between atoms: C_7  and  C_8
REMARK    4  A    between atoms: C_10  and  C_12
REMARK    5  A    between atoms: C_13  and  C_38
REMARK    6  A    between atoms: C_20  and  C_22
REMARK    7  A    between atoms: N_24  and  C_31
REMARK    8  A    between atoms: C_31  and  C_32
REMARK                            x       y       z     vdW  Elec       q    Type
REMARK                         _______ _______ _______ _____ _____    ______ ____
ROOT
ATOM      1  C   UNL     1       0.655  -5.011   3.947  0.00  0.00    +0.060 C 
ATOM      2  C   UNL     1       0.556  -6.312   3.636  0.00  0.00    +0.018 C 
ATOM      3  N   UNL     1       0.623  -7.301   4.587  0.00  0.00    -0.286 N 
ATOM      4  C   UNL     1       0.539  -6.913   5.917  0.00  0.00    +0.240 A 
ATOM      5  N   UNL     1       0.361  -7.613   7.000  0.00  0.00    -0.092 NA
ATOM      6  N   UNL     1       0.340  -6.841   8.033  0.00  0.00    -0.021 NA
ATOM      7  N   UNL     1       0.504  -5.608   7.677  0.00  0.00    -0.042 NA
ATOM      8  N   UNL     1       0.642  -5.611   6.290  0.00  0.00    -0.201 N 
ATOM      9  C   UNL     1       0.864  -4.515   5.353  0.00  0.00    +0.181 C 
ATOM     10  C   UNL     1       0.366  -6.703   2.193  0.00  0.00    +0.061 C 
ATOM     11  H   UNL     1       0.725  -8.233   4.339  0.00  0.00    +0.155 HD
ENDROOT
BRANCH   9  12
ATOM     12  C   UNL     1       2.272  -3.999   5.500  0.00  0.00    +0.007 A 
ATOM     13  C   UNL     1       3.400  -4.725   5.433  0.00  0.00    +0.093 A 
ATOM     14  N   UNL     1       4.487  -3.915   5.613  0.00  0.00    -0.342 N 
ATOM     15  C   UNL     1       4.077  -2.615   5.805  0.00  0.00    +0.050 A 
ATOM     16  C   UNL     1       2.671  -2.610   5.737  0.00  0.00    +0.005 A 
ATOM     17  C   UNL     1       1.971  -1.412   5.892  0.00  0.00    +0.010 A 
ATOM     18  C   UNL     1       2.655  -0.249   6.107  0.00  0.00    +0.001 A 
ATOM     19  C   UNL     1       4.042  -0.248   6.171  0.00  0.00    +0.002 A 
ATOM     20  C   UNL     1       4.752  -1.420   6.030  0.00  0.00    +0.026 A 
BRANCH  14  21
ATOM     21  C   UNL     1       5.882  -4.364   5.603  0.00  0.00    +0.157 C 
BRANCH  21  22
ATOM     22  C   UNL     1       6.335  -4.629   7.015  0.00  0.00    -0.028 A 
ATOM     23  C   UNL     1       6.904  -3.613   7.761  0.00  0.00    +0.005 A 
ATOM     24  C   UNL     1       7.319  -3.856   9.056  0.00  0.00    +0.000 A 
ATOM     25  C   UNL     1       7.165  -5.114   9.607  0.00  0.00    +0.000 A 
ATOM     26  C   UNL     1       6.595  -6.130   8.863  0.00  0.00    +0.000 A 
ATOM     27  C   UNL     1       6.176  -5.886   7.568  0.00  0.00    +0.005 A 
ENDBRANCH  21  22
ENDBRANCH  14  21
ENDBRANCH   9  12
BRANCH   1  29
ATOM     28  N   UNL     1       1.605  -3.873   2.069  0.00  0.00    -0.281 N 
ATOM     29  C   UNL     1       0.563  -4.060   2.903  0.00  0.00    +0.248 C 
ATOM     30  O   UNL     1      -0.457  -3.411   2.759  0.00  0.00    -0.270 OA
ATOM     31  H   UNL     1       2.379  -4.456   2.120  0.00  0.00    +0.155 HD
BRANCH  28  37
ATOM     32  C   UNL     1       3.998  -0.580  -0.687  0.00  0.00    +0.044 C 
ATOM     33  C   UNL     1       2.717  -1.223  -0.224  0.00  0.00    -0.046 A 
ATOM     34  C   UNL     1       1.504  -0.789  -0.729  0.00  0.00    +0.004 A 
ATOM     35  C   UNL     1       0.326  -1.377  -0.307  0.00  0.00    +0.002 A 
ATOM     36  C   UNL     1       0.356  -2.400   0.621  0.00  0.00    +0.023 A 
ATOM     37  C   UNL     1       1.571  -2.838   1.129  0.00  0.00    +0.037 A 
ATOM     38  C   UNL     1       2.754  -2.249   0.699  0.00  0.00    -0.026 A 
ATOM     39  C   UNL     1       4.076  -2.726   1.244  0.00  0.00    +0.046 C 
ENDBRANCH  28  37
ENDBRANCH   1  29
TORSDOF 5
