REMARK  Name = ZINC35636209
REMARK  9 active torsions:
REMARK  status: ('A' for Active; 'I' for Inactive)
REMARK    1  A    between atoms: C_1  and  C_2
REMARK    2  A    between atoms: C_2  and  C_3
REMARK    3  A    between atoms: C_2  and  C_4
REMARK    4  A    between atoms: C_4  and  C_5
REMARK    5  A    between atoms: C_5  and  C_7
REMARK    6  A    between atoms: C_5  and  N_17
REMARK    7  A    between atoms: N_9  and  C_10
REMARK    8  A    between atoms: C_23  and  C_30
REMARK    9  A    between atoms: N_28  and  C_29
REMARK                            x       y       z     vdW  Elec       q    Type
REMARK                         _______ _______ _______ _____ _____    ______ ____
ROOT
ATOM      1  N   UNL     1      -1.169  -1.106   2.343  0.00  0.00    -0.281 N 
ATOM      2  C   UNL     1      -2.567  -0.649   2.352  0.00  0.00    +0.160 C 
ATOM      3  C   UNL     1      -3.390  -1.913   2.241  0.00  0.00    +0.042 C 
ATOM      4  C   UNL     1      -2.511  -2.933   2.179  0.00  0.00    +0.058 C 
ATOM      5  C   UNL     1      -1.189  -2.446   2.236  0.00  0.00    +0.247 C 
ATOM      6  O   UNL     1      -0.195  -3.148   2.195  0.00  0.00    -0.270 OA
ATOM      7  C   UNL     1      -3.069  -4.338   2.062  0.00  0.00    +0.142 C 
ATOM      8  N   UNL     1      -4.535  -4.471   2.026  0.00  0.00    -0.288 N 
ATOM      9  C   UNL     1      -5.284  -3.353   2.097  0.00  0.00    +0.307 C 
ATOM     10  O   UNL     1      -6.495  -3.453   2.068  0.00  0.00    -0.252 OA
ATOM     11  N   UNL     1      -4.737  -2.135   2.199  0.00  0.00    -0.260 N 
ATOM     12  C   UNL     1      -5.632  -0.977   2.271  0.00  0.00    +0.139 C 
ATOM     13  H   UNL     1      -4.952  -5.344   1.952  0.00  0.00    +0.151 HD
ENDROOT
BRANCH   7  14
ATOM     14  C   UNL     1      -2.515  -4.955   0.804  0.00  0.00    -0.022 A 
ATOM     15  C   UNL     1      -3.072  -4.642  -0.422  0.00  0.00    +0.007 A 
ATOM     16  C   UNL     1      -2.565  -5.208  -1.576  0.00  0.00    +0.020 A 
ATOM     17  C   UNL     1      -1.499  -6.087  -1.505  0.00  0.00    +0.041 A 
ATOM     18  C   UNL     1      -0.942  -6.399  -0.277  0.00  0.00    +0.020 A 
ATOM     19  C   UNL     1      -1.447  -5.829   0.876  0.00  0.00    +0.007 A 
ATOM     20 CL   UNL     1      -0.861  -6.798  -2.954  0.00  0.00    -0.084 Cl
ENDBRANCH   7  14
BRANCH   1  21
ATOM     21  C   UNL     1       0.022  -0.258   2.429  0.00  0.00    +0.163 C 
BRANCH  21  22
ATOM     22  C   UNL     1       0.825  -0.642   3.645  0.00  0.00    +0.238 C 
ATOM     23  O   UNL     1       0.440  -1.536   4.369  0.00  0.00    -0.273 OA
ATOM     24  N   UNL     1       1.972   0.008   3.929  0.00  0.00    -0.284 N 
ATOM     25  H   UNL     1       2.320   0.669   3.310  0.00  0.00    +0.155 HD
BRANCH  24  26
ATOM     26  C   UNL     1       2.660  -0.272   5.115  0.00  0.00    +0.034 A 
ATOM     27  C   UNL     1       4.046  -0.201   5.148  0.00  0.00    +0.026 A 
ATOM     28  C   UNL     1       4.723  -0.477   6.320  0.00  0.00    +0.040 A 
ATOM     29  C   UNL     1       4.021  -0.826   7.461  0.00  0.00    +0.124 A 
ATOM     30  C   UNL     1       2.638  -0.897   7.430  0.00  0.00    +0.040 A 
ATOM     31  C   UNL     1       1.957  -0.616   6.262  0.00  0.00    +0.026 A 
ATOM     32  F   UNL     1       4.685  -1.097   8.606  0.00  0.00    -0.205 F 
ENDBRANCH  24  26
ENDBRANCH  21  22
BRANCH  21  33
ATOM     33  C   UNL     1       0.876  -0.450   1.173  0.00  0.00    +0.035 C 
BRANCH  33  35
ATOM     34  C   UNL     1      -0.104   1.567   0.072  0.00  0.00    +0.007 C 
ATOM     35  C   UNL     1       0.106   0.057  -0.048  0.00  0.00    -0.015 C 
ATOM     36  C   UNL     1       0.906  -0.248  -1.317  0.00  0.00    +0.007 C 
ENDBRANCH  33  35
ENDBRANCH  21  33
ENDBRANCH   1  21
TORSDOF 6
