REMARK  Name = ZINC03770050
REMARK  14 active torsions:
REMARK  status: ('A' for Active; 'I' for Inactive)
REMARK    1  A    between atoms: C_1  and  C_2
REMARK    2  A    between atoms: C_5  and  N_8
REMARK    3  A    between atoms: C_9  and  C_11
REMARK    4  A    between atoms: C_16  and  C_19
REMARK    5  A    between atoms: C_19  and  C_20
REMARK    6  A    between atoms: C_20  and  O_22
REMARK    7  A    between atoms: O_22  and  C_23
REMARK    8  A    between atoms: C_24  and  N_40
REMARK    9  A    between atoms: C_25  and  C_38
REMARK   10  A    between atoms: C_26  and  C_28
REMARK   11  A    between atoms: C_31  and  O_36
REMARK   12  A    between atoms: C_33  and  O_34
REMARK   13  A    between atoms: O_34  and  C_35
REMARK   14  A    between atoms: O_36  and  C_37
REMARK                            x       y       z     vdW  Elec       q    Type
REMARK                         _______ _______ _______ _____ _____    ______ ____
ROOT
ATOM      1  C   UNL     1      -1.062  -1.056  -0.011  0.00  0.00    +0.055 C 
ATOM      2  C   UNL     1       0.038  -0.260  -0.025  0.00  0.00    +0.086 C 
ATOM      3  N   UNL     1       1.339  -0.727  -0.053  0.00  0.00    -0.220 N 
ATOM      4  C   UNL     1       2.355   0.162  -0.064  0.00  0.00    +0.239 C 
ATOM      5  O   UNL     1       3.511  -0.204  -0.088  0.00  0.00    -0.274 OA
ATOM      6  C   UNL     1       1.997   1.630  -0.048  0.00  0.00    +0.150 C 
ATOM      7  S   UNL     1       0.167   1.519  -0.015  0.00  0.00    -0.096 S 
ATOM      8  C   UNL     1       1.560  -2.112  -0.066  0.00  0.00    +0.110 C 
ATOM      9  C   UNL     1       0.573  -3.033  -0.054  0.00  0.00    +0.077 C 
ATOM     10  C   UNL     1      -0.866  -2.559  -0.025  0.00  0.00    +0.103 C 
ENDROOT
BRANCH  10  11
ATOM     11  C   UNL     1      -1.571  -3.115  -1.234  0.00  0.00    +0.007 A 
ATOM     12  C   UNL     1      -1.207  -2.696  -2.500  0.00  0.00    +0.012 A 
ATOM     13  C   UNL     1      -1.847  -3.208  -3.611  0.00  0.00    +0.046 A 
ATOM     14  C   UNL     1      -2.867  -4.137  -3.459  0.00  0.00    +0.124 A 
ATOM     15  C   UNL     1      -3.238  -4.556  -2.191  0.00  0.00    +0.091 A 
ATOM     16  C   UNL     1      -2.590  -4.044  -1.077  0.00  0.00    +0.128 A 
BRANCH  16  17
ATOM     17  O   UNL     1      -2.951  -4.452   0.168  0.00  0.00    -0.495 OA
ATOM     18  C   UNL     1      -4.008  -5.410   0.255  0.00  0.00    +0.277 C 
ENDBRANCH  16  17
BRANCH  14  19
ATOM     19  O   UNL     1      -3.501  -4.637  -4.552  0.00  0.00    -0.495 OA
ATOM     20  C   UNL     1      -3.066  -4.161  -5.828  0.00  0.00    +0.277 C 
ENDBRANCH  14  19
ENDBRANCH  10  11
BRANCH   1  22
ATOM     21  N   UNL     1      -3.432  -1.305   0.032  0.00  0.00    -0.282 N 
ATOM     22  C   UNL     1      -2.351  -0.500   0.018  0.00  0.00    +0.248 C 
ATOM     23  O   UNL     1      -2.493   0.711   0.029  0.00  0.00    -0.270 OA
ATOM     24  H   UNL     1      -3.321  -2.266   0.103  0.00  0.00    +0.155 HD
BRANCH  21  29
ATOM     25  C   UNL     1      -8.635   0.926  -0.326  0.00  0.00    +0.044 C 
ATOM     26  C   UNL     1      -7.253   0.333  -0.231  0.00  0.00    -0.050 A 
ATOM     27  C   UNL     1      -6.204   0.917  -0.917  0.00  0.00    +0.005 A 
ATOM     28  C   UNL     1      -4.936   0.376  -0.832  0.00  0.00    +0.023 A 
ATOM     29  C   UNL     1      -4.715  -0.755  -0.056  0.00  0.00    +0.034 A 
ATOM     30  C   UNL     1      -5.772  -1.341   0.628  0.00  0.00    +0.023 A 
ATOM     31  C   UNL     1      -7.037  -0.792   0.543  0.00  0.00    +0.005 A 
ENDBRANCH  21  29
ENDBRANCH   1  22
BRANCH   8  32
ATOM     32  N   UNL     1       2.859  -2.559  -0.094  0.00  0.00    -0.345 N 
ATOM     33  H   UNL     1       3.064  -3.432  -0.463  0.00  0.00    +0.144 HD
ATOM     34  H   UNL     1       3.571  -2.001   0.256  0.00  0.00    +0.144 HD
ENDBRANCH   8  32
BRANCH   9  35
ATOM     35  C   UNL     1       0.880  -4.431  -0.069  0.00  0.00    +0.099 C 
ATOM     36  N   UNL     1       1.123  -5.541  -0.081  0.00  0.00    -0.191 NA
ENDBRANCH   9  35
BRANCH   6  37
ATOM     37  C   UNL     1       2.488   2.335  -1.314  0.00  0.00    +0.144 C 
BRANCH  37  38
ATOM     38  C   UNL     1       2.054   3.778  -1.285  0.00  0.00    +0.308 C 
ATOM     39  O   UNL     1       1.417   4.199  -0.348  0.00  0.00    -0.251 OA
BRANCH  38  40
ATOM     40  O   UNL     1       2.374   4.596  -2.300  0.00  0.00    -0.468 OA
ATOM     41  C   UNL     1       1.922   5.972  -2.206  0.00  0.00    +0.280 C 
ENDBRANCH  38  40
ENDBRANCH  37  38
ENDBRANCH   6  37
TORSDOF 10
