REMARK  Name = ZINC20822273
REMARK  13 active torsions:
REMARK  status: ('A' for Active; 'I' for Inactive)
REMARK    1  A    between atoms: C_1  and  C_2
REMARK    2  A    between atoms: C_2  and  C_4
REMARK    3  A    between atoms: C_2  and  O_33
REMARK    4  A    between atoms: C_4  and  C_6
REMARK    5  A    between atoms: C_4  and  N_21
REMARK    6  A    between atoms: C_6  and  O_8
REMARK    7  A    between atoms: O_8  and  C_9
REMARK    8  A    between atoms: C_9  and  C_10
REMARK    9  A    between atoms: N_12  and  C_13
REMARK   10  A    between atoms: C_13  and  C_14
REMARK   11  A    between atoms: C_14  and  C_15
REMARK   12  A    between atoms: N_21  and  S_22
REMARK   13  A    between atoms: S_22  and  C_25
REMARK                            x       y       z     vdW  Elec       q    Type
REMARK                         _______ _______ _______ _____ _____    ______ ____
ROOT
ATOM      1  C   UNL     1       0.805  -0.580   1.204  0.00  0.00    +0.213 C 
ENDROOT
BRANCH   1   3
ATOM      2  C   UNL     1      -0.190   1.349  -0.034  0.00  0.00    +0.040 C 
ATOM      3  C   UNL     1      -0.067  -0.176   0.014  0.00  0.00    +0.141 C 
BRANCH   3   4
ATOM      4  O   UNL     1       0.532  -0.644  -1.196  0.00  0.00    -0.390 OA
ATOM      5  H   UNL     1       0.702  -1.720  -1.345  0.00  0.00    +0.210 HD
ENDBRANCH   3   4
ENDBRANCH   1   3
BRANCH   1   6
ATOM      6  C   UNL     1       0.943  -2.080   1.239  0.00  0.00    +0.329 C 
ATOM      7  O   UNL     1       0.559  -2.700   2.202  0.00  0.00    -0.249 OA
BRANCH   6   8
ATOM      8  O   UNL     1       1.493  -2.728   0.199  0.00  0.00    -0.454 OA
BRANCH   8   9
ATOM      9  C   UNL     1       1.594  -4.173   0.302  0.00  0.00    +0.327 C 
BRANCH   9  10
ATOM     10  C   UNL     1       2.232  -4.721  -0.949  0.00  0.00    +0.251 C 
ATOM     11  O   UNL     1       2.567  -3.969  -1.839  0.00  0.00    -0.272 OA
ATOM     12  N   UNL     1       2.428  -6.048  -1.078  0.00  0.00    -0.312 N 
ATOM     13  H   UNL     1       2.124  -6.731  -0.271  0.00  0.00    +0.149 HD
BRANCH  12  14
ATOM     14  C   UNL     1       3.048  -6.582  -2.294  0.00  0.00    +0.108 C 
BRANCH  14  15
ATOM     15  C   UNL     1       3.155  -8.104  -2.186  0.00  0.00    +0.049 C 
BRANCH  15  16
ATOM     16  C   UNL     1       3.792  -8.653  -3.436  0.00  0.00    -0.072 C 
ATOM     17  C   UNL     1       5.070  -8.860  -3.425  0.00  0.00    -0.028 C 
ATOM     18  C   UNL     1       5.845  -9.393  -4.595  0.00  0.00    +0.027 C 
ATOM     19  C   UNL     1       4.896 -10.039  -5.607  0.00  0.00    +0.004 C 
ATOM     20  C   UNL     1       3.748  -9.061  -5.887  0.00  0.00    +0.005 C 
ATOM     21  C   UNL     1       2.905  -8.931  -4.615  0.00  0.00    +0.030 C 
ENDBRANCH  15  16
ENDBRANCH  14  15
ENDBRANCH  12  14
ENDBRANCH   9  10
ENDBRANCH   8   9
ENDBRANCH   6   8
ENDBRANCH   1   6
BRANCH   1  22
ATOM     22  N   UNL     1       0.180  -0.119   2.446  0.00  0.00    -0.174 NA
ATOM     23  H   UNL     1      -0.906   0.051   2.486  0.00  0.00    +0.149 HD
BRANCH  22  24
ATOM     24  S   UNL     1       1.124   0.384   3.711  0.00  0.00    +0.059 S 
ATOM     25  O   UNL     1       0.236   0.795   4.742  0.00  0.00    -0.153 OA
ATOM     26  O   UNL     1       2.107  -0.623   3.909  0.00  0.00    -0.153 OA
BRANCH  24  27
ATOM     27  C   UNL     1       1.982   1.828   3.179  0.00  0.00    +0.107 A 
ATOM     28  C   UNL     1       3.183   1.709   2.504  0.00  0.00    +0.030 A 
ATOM     29  C   UNL     1       3.854   2.841   2.082  0.00  0.00    +0.023 A 
ATOM     30  C   UNL     1       3.329   4.094   2.343  0.00  0.00    +0.059 A 
ATOM     31  C   UNL     1       2.130   4.213   3.023  0.00  0.00    +0.061 A 
ATOM     32  C   UNL     1       1.456   3.079   3.441  0.00  0.00    +0.050 A 
ATOM     33 CL   UNL     1       1.470   5.785   3.352  0.00  0.00    -0.082 Cl
ATOM     34 CL   UNL     1       4.175   5.516   1.818  0.00  0.00    -0.082 Cl
ENDBRANCH  24  27
ENDBRANCH  22  24
ENDBRANCH   1  22
TORSDOF 12
