REMARK  Name = ZINC26994314
REMARK  19 active torsions:
REMARK  status: ('A' for Active; 'I' for Inactive)
REMARK    1  A    between atoms: C_1  and  C_2
REMARK    2  A    between atoms: C_3  and  O_27
REMARK    3  A    between atoms: N_8  and  C_9
REMARK    4  A    between atoms: C_9  and  C_10
REMARK    5  A    between atoms: C_10  and  C_11
REMARK    6  A    between atoms: C_11  and  C_12
REMARK    7  A    between atoms: C_14  and  C_23
REMARK    8  A    between atoms: C_15  and  O_22
REMARK    9  A    between atoms: C_16  and  C_18
REMARK   10  A    between atoms: C_18  and  C_19
REMARK   11  A    between atoms: C_18  and  C_20
REMARK   12  A    between atoms: C_18  and  C_21
REMARK   13  A    between atoms: C_23  and  C_24
REMARK   14  A    between atoms: C_23  and  C_25
REMARK   15  A    between atoms: C_23  and  C_26
REMARK   16  A    between atoms: O_27  and  C_28
REMARK   17  A    between atoms: C_28  and  C_30
REMARK   18  A    between atoms: C_30  and  C_31
REMARK   19  A    between atoms: C_31  and  N_32
REMARK                            x       y       z     vdW  Elec       q    Type
REMARK                         _______ _______ _______ _____ _____    ______ ____
ROOT
ATOM      1  C   UNL     1      -4.604  -0.362  -2.453  0.00  0.00    +0.122 C 
ENDROOT
BRANCH   1   9
ATOM      2  C   UNL     1      -5.484  -1.711  -0.138  0.00  0.00    +0.067 C 
ATOM      3  C   UNL     1      -4.428  -0.640  -0.039  0.00  0.00    +0.062 A 
ATOM      4  C   UNL     1      -3.905  -0.323   1.169  0.00  0.00    +0.197 A 
ATOM      5  C   UNL     1      -2.907   0.682   1.248  0.00  0.00    +0.224 A 
ATOM      6  O   UNL     1      -2.413   0.988   2.324  0.00  0.00    -0.284 OA
ATOM      7  C   UNL     1      -2.497   1.324   0.058  0.00  0.00    +0.072 A 
ATOM      8  C   UNL     1      -3.063   0.965  -1.117  0.00  0.00    +0.090 A 
ATOM      9  N   UNL     1      -4.014   0.001  -1.162  0.00  0.00    -0.348 N 
BRANCH   4  10
ATOM     10  O   UNL     1      -4.326  -0.965   2.293  0.00  0.00    -0.420 OA
BRANCH  10  11
ATOM     11  C   UNL     1      -5.363  -0.423   2.951  0.00  0.00    +0.311 C 
ATOM     12  O   UNL     1      -5.879   0.593   2.538  0.00  0.00    -0.250 OA
BRANCH  11  13
ATOM     13  C   UNL     1      -5.889  -1.082   4.200  0.00  0.00    +0.101 C 
BRANCH  13  14
ATOM     14  C   UNL     1      -7.067  -0.272   4.746  0.00  0.00    -0.075 C 
BRANCH  14  15
ATOM     15  N   UNL     1      -7.580  -0.914   5.964  0.00  0.00    +0.378 N 
ATOM     16  H   UNL     1      -8.427  -0.332   6.356  0.00  0.00    -0.090 HD
ATOM     17  H   UNL     1      -6.782  -0.956   6.720  0.00  0.00    -0.090 HD
ATOM     18  H   UNL     1      -7.915  -1.935   5.727  0.00  0.00    -0.090 HD
ENDBRANCH  14  15
ENDBRANCH  13  14
ENDBRANCH  11  13
ENDBRANCH  10  11
ENDBRANCH   4  10
ENDBRANCH   1   9
BRANCH   1  19
ATOM     19  C   UNL     1      -3.841  -1.548  -3.047  0.00  0.00    +0.026 C 
BRANCH  19  20
ATOM     20  C   UNL     1      -4.457  -1.927  -4.396  0.00  0.00    +0.037 C 
BRANCH  20  21
ATOM     21  C   UNL     1      -3.705  -3.095  -4.981  0.00  0.00    -0.047 A 
ATOM     22  C   UNL     1      -2.619  -2.872  -5.807  0.00  0.00    +0.011 A 
ATOM     23  C   UNL     1      -1.925  -3.941  -6.340  0.00  0.00    -0.000 A 
ATOM     24  C   UNL     1      -2.326  -5.238  -6.055  0.00  0.00    +0.124 A 
ATOM     25  C   UNL     1      -3.419  -5.459  -5.230  0.00  0.00    -0.000 A 
ATOM     26  C   UNL     1      -4.107  -4.387  -4.695  0.00  0.00    +0.011 A 
BRANCH  25  27
ATOM     27  C   UNL     1      -3.857  -6.867  -4.919  0.00  0.00    -0.009 C 
ATOM     28  C   UNL     1      -5.077  -6.829  -3.996  0.00  0.00    +0.015 C 
ATOM     29  C   UNL     1      -4.224  -7.586  -6.219  0.00  0.00    +0.015 C 
ATOM     30  C   UNL     1      -2.716  -7.615  -4.226  0.00  0.00    +0.015 C 
ENDBRANCH  25  27
BRANCH  23  31
ATOM     31  C   UNL     1      -0.738  -3.698  -7.235  0.00  0.00    -0.009 C 
ATOM     32  C   UNL     1      -0.512  -2.192  -7.385  0.00  0.00    +0.015 C 
ATOM     33  C   UNL     1       0.506  -4.341  -6.619  0.00  0.00    +0.015 C 
ATOM     34  C   UNL     1      -1.002  -4.314  -8.611  0.00  0.00    +0.015 C 
ENDBRANCH  23  31
BRANCH  24  35
ATOM     35  O   UNL     1      -1.648  -6.292  -6.582  0.00  0.00    -0.506 OA
ATOM     36  H   UNL     1      -1.966  -7.320  -6.356  0.00  0.00    +0.292 HD
ENDBRANCH  24  35
ENDBRANCH  20  21
ENDBRANCH  19  20
ENDBRANCH   1  19
TORSDOF 12
