REMARK  Name = ZINC35705798
REMARK  10 active torsions:
REMARK  status: ('A' for Active; 'I' for Inactive)
REMARK    1  A    between atoms: C_7  and  C_11
REMARK    2  A    between atoms: C_11  and  C_12
REMARK    3  A    between atoms: C_12  and  N_13
REMARK    4  A    between atoms: N_13  and  C_14
REMARK    5  A    between atoms: N_13  and  C_24
REMARK    6  A    between atoms: C_14  and  C_15
REMARK    7  A    between atoms: C_24  and  C_25
REMARK    8  A    between atoms: C_27  and  C_30
REMARK    9  A    between atoms: N_32  and  C_33
REMARK   10  A    between atoms: C_33  and  C_34
REMARK                            x       y       z     vdW  Elec       q    Type
REMARK                         _______ _______ _______ _____ _____    ______ ____
ROOT
ATOM      1  N   UNL     1      -0.364  -4.912  -1.256  0.00  0.00    +0.388 N 
ATOM      2  H   UNL     1      -0.109  -5.732  -0.726  0.00  0.00    -0.081 HD
ENDROOT
BRANCH   1   3
ATOM      3  C   UNL     1       0.583  -3.828  -0.966  0.00  0.00    -0.073 C 
BRANCH   3   4
ATOM      4  C   UNL     1       0.636  -3.586   0.544  0.00  0.00    +0.019 C 
BRANCH   4  11
ATOM      5  C   UNL     1       0.242   1.084   0.608  0.00  0.00    +0.001 A 
ATOM      6  C   UNL     1       1.428   1.723   0.945  0.00  0.00    +0.002 A 
ATOM      7  C   UNL     1       2.564   0.994   1.220  0.00  0.00    +0.026 A 
ATOM      8  C   UNL     1       2.526  -0.395   1.159  0.00  0.00    +0.047 A 
ATOM      9  C   UNL     1       1.322  -1.037   0.817  0.00  0.00    +0.003 A 
ATOM     10  C   UNL     1       0.182  -0.279   0.542  0.00  0.00    +0.010 A 
ATOM     11  C   UNL     1       1.608  -2.474   0.841  0.00  0.00    -0.024 A 
ATOM     12  C   UNL     1       2.900  -2.611   1.178  0.00  0.00    +0.087 A 
ATOM     13  N   UNL     1       3.465  -1.380   1.372  0.00  0.00    -0.360 N 
ATOM     14  H   UNL     1       4.389  -1.224   1.623  0.00  0.00    +0.165 HD
ENDBRANCH   4  11
ENDBRANCH   3   4
ENDBRANCH   1   3
BRANCH   1  15
ATOM     15  C   UNL     1      -1.721  -4.490  -0.882  0.00  0.00    -0.042 C 
BRANCH  15  16
ATOM     16  C   UNL     1      -2.672  -5.647  -1.052  0.00  0.00    -0.060 A 
ATOM     17  C   UNL     1      -3.404  -5.772  -2.219  0.00  0.00    +0.005 A 
ATOM     18  C   UNL     1      -4.277  -6.832  -2.380  0.00  0.00    +0.050 A 
ATOM     19  C   UNL     1      -4.420  -7.771  -1.372  0.00  0.00    +0.166 A 
ATOM     20  C   UNL     1      -3.683  -7.645  -0.197  0.00  0.00    +0.166 A 
ATOM     21  C   UNL     1      -2.805  -6.584  -0.045  0.00  0.00    +0.051 A 
ATOM     22  O   UNL     1      -3.999  -8.684   0.630  0.00  0.00    -0.453 OA
ATOM     23  C   UNL     1      -5.235  -9.219   0.121  0.00  0.00    +0.466 C 
ATOM     24  O   UNL     1      -5.199  -8.889  -1.281  0.00  0.00    -0.453 OA
ENDBRANCH  15  16
ENDBRANCH   1  15
BRANCH   1  25
ATOM     25  C   UNL     1      -0.326  -5.226  -2.690  0.00  0.00    +0.019 C 
BRANCH  25  26
ATOM     26  C   UNL     1       1.030  -5.776  -3.049  0.00  0.00    +0.179 A 
ATOM     27  N   UNL     1       1.398  -7.015  -2.919  0.00  0.00    -0.210 NA
ATOM     28  C   UNL     1       2.685  -7.130  -3.345  0.00  0.00    +0.163 A 
ATOM     29  C   UNL     1       3.087  -5.892  -3.743  0.00  0.00    +0.230 A 
ATOM     30  O   UNL     1       2.046  -5.064  -3.558  0.00  0.00    -0.449 OA
BRANCH  28  31
ATOM     31  C   UNL     1       3.493  -8.363  -3.369  0.00  0.00    +0.266 C 
ATOM     32  O   UNL     1       4.666  -8.315  -3.686  0.00  0.00    -0.268 OA
ATOM     33  N   UNL     1       2.931  -9.543  -3.040  0.00  0.00    -0.303 N 
ATOM     34  H   UNL     1       1.979  -9.594  -2.862  0.00  0.00    +0.150 HD
BRANCH  33  35
ATOM     35  C   UNL     1       3.759 -10.748  -2.949  0.00  0.00    +0.179 C 
BRANCH  35  36
ATOM     36  C   UNL     1       2.896 -11.923  -2.568  0.00  0.00    +0.122 A 
ATOM     37  C   UNL     1       2.264 -12.746  -3.424  0.00  0.00    +0.046 A 
ATOM     38  C   UNL     1       1.574 -13.700  -2.642  0.00  0.00    +0.041 A 
ATOM     39  C   UNL     1       1.825 -13.403  -1.354  0.00  0.00    +0.195 A 
ATOM     40  O   UNL     1       2.631 -12.330  -1.315  0.00  0.00    -0.466 OA
ENDBRANCH  35  36
ENDBRANCH  33  35
ENDBRANCH  28  31
ENDBRANCH  25  26
ENDBRANCH   1  25
TORSDOF 10
