REMARK  Name = ZINC63980847
REMARK  13 active torsions:
REMARK  status: ('A' for Active; 'I' for Inactive)
REMARK    1  A    between atoms: C_1  and  C_2
REMARK    2  A    between atoms: C_2  and  C_4
REMARK    3  A    between atoms: C_2  and  N_9
REMARK    4  A    between atoms: C_4  and  C_5
REMARK    5  A    between atoms: N_9  and  C_10
REMARK    6  A    between atoms: N_16  and  C_29
REMARK    7  A    between atoms: C_17  and  C_25
REMARK    8  A    between atoms: C_19  and  N_21
REMARK    9  A    between atoms: C_22  and  C_24
REMARK   10  A    between atoms: C_25  and  O_27
REMARK   11  A    between atoms: O_27  and  C_28
REMARK   12  A    between atoms: C_29  and  C_30
REMARK   13  A    between atoms: C_30  and  C_31
REMARK                            x       y       z     vdW  Elec       q    Type
REMARK                         _______ _______ _______ _____ _____    ______ ____
ROOT
ATOM      1  C   UNL     1      -2.077  -0.648  -1.190  0.00  0.00    +0.044 A 
ATOM      2  C   UNL     1      -3.388  -1.124  -1.194  0.00  0.00    +0.033 A 
ATOM      3  C   UNL     1      -4.042  -1.241  -2.406  0.00  0.00    +0.015 A 
ATOM      4  C   UNL     1      -3.394  -0.889  -3.582  0.00  0.00    +0.105 A 
ATOM      5  N   UNL     1      -2.141  -0.438  -3.533  0.00  0.00    -0.348 N 
ATOM      6  C   UNL     1      -1.487  -0.307  -2.397  0.00  0.00    +0.107 A 
ATOM      7  N   UNL     1      -4.215  -1.077  -4.692  0.00  0.00    -0.301 N 
ATOM      8  C   UNL     1      -5.521  -1.593  -4.275  0.00  0.00    +0.208 C 
ATOM      9  C   UNL     1      -5.436  -1.714  -2.744  0.00  0.00    +0.138 C 
ATOM     10  H   UNL     1      -1.697  -0.195  -4.360  0.00  0.00    +0.167 HD
ENDROOT
BRANCH   9  11
ATOM     11  N   UNL     1      -6.437  -0.855  -2.107  0.00  0.00    -0.306 N 
ATOM     12  C   UNL     1      -6.838  -1.109  -0.846  0.00  0.00    +0.210 C 
ATOM     13  O   UNL     1      -6.371  -2.050  -0.239  0.00  0.00    -0.276 OA
ATOM     14  C   UNL     1      -7.868  -0.225  -0.190  0.00  0.00    +0.109 C 
ATOM     15  H   UNL     1      -6.810  -0.103  -2.592  0.00  0.00    +0.149 HD
ENDBRANCH   9  11
BRANCH   1  16
ATOM     16  N   UNL     1      -1.372  -0.511   0.012  0.00  0.00    -0.340 N 
ATOM     17  H   UNL     1      -1.794  -0.752   0.852  0.00  0.00    +0.146 HD
BRANCH  16  19
ATOM     18  C   UNL     1      -0.019   1.526   0.010  0.00  0.00    +0.028 C 
ATOM     19  C   UNL     1       0.002  -0.004   0.002  0.00  0.00    +0.076 C 
BRANCH  19  20
ATOM     20  C   UNL     1       0.742  -0.511   1.242  0.00  0.00    +0.135 C 
BRANCH  20  21
ATOM     21  C   UNL     1       0.872  -2.034   1.171  0.00  0.00    +0.392 C 
ATOM     22  F   UNL     1       1.589  -2.388   0.023  0.00  0.00    -0.171 F 
ATOM     23  F   UNL     1       1.549  -2.497   2.304  0.00  0.00    -0.171 F 
ATOM     24  F   UNL     1      -0.403  -2.609   1.121  0.00  0.00    -0.171 F 
ENDBRANCH  20  21
ENDBRANCH  19  20
ENDBRANCH  16  19
ENDBRANCH   1  16
BRANCH   8  25
ATOM     25  C   UNL     1      -6.612  -0.630  -4.666  0.00  0.00    +0.330 C 
ATOM     26  O   UNL     1      -6.341   0.518  -4.926  0.00  0.00    -0.249 OA
BRANCH  25  27
ATOM     27  O   UNL     1      -7.887  -1.048  -4.724  0.00  0.00    -0.467 OA
ATOM     28  C   UNL     1      -8.870  -0.082  -5.101  0.00  0.00    +0.280 C 
ENDBRANCH  25  27
ENDBRANCH   8  25
BRANCH   7  29
ATOM     29  C   UNL     1      -3.828  -0.797  -6.077  0.00  0.00    +0.112 C 
BRANCH  29  30
ATOM     30  C   UNL     1      -3.202  -2.050  -6.695  0.00  0.00    +0.052 C 
BRANCH  30  31
ATOM     31  C   UNL     1      -2.804  -1.763  -8.119  0.00  0.00    -0.040 C 
ATOM     32  C   UNL     1      -1.584  -1.382  -8.562  0.00  0.00    -0.001 A 
ATOM     33  C   UNL     1      -0.311  -1.129  -7.875  0.00  0.00    +0.010 A 
ATOM     34  C   UNL     1       0.763  -0.749  -8.603  0.00  0.00    +0.001 A 
ATOM     35  C   UNL     1       0.692  -0.592  -9.994  0.00  0.00    +0.002 A 
ATOM     36  C   UNL     1      -0.441  -0.805 -10.695  0.00  0.00    +0.026 A 
ATOM     37  C   UNL     1      -1.632  -1.208 -10.031  0.00  0.00    +0.043 A 
ATOM     38  N   UNL     1      -2.835  -1.472 -10.480  0.00  0.00    -0.380 N 
ATOM     39  C   UNL     1      -3.686  -1.849  -9.345  0.00  0.00    +0.144 C 
ATOM     40  H   UNL     1      -3.115  -1.429 -11.407  0.00  0.00    +0.160 HD
ENDBRANCH  30  31
ENDBRANCH  29  30
ENDBRANCH   7  29
TORSDOF 10
