REMARK  Name = ZINC59842822
REMARK  3 active torsions:
REMARK  status: ('A' for Active; 'I' for Inactive)
REMARK    1  A    between atoms: C_4  and  C_7
REMARK    2  A    between atoms: C_10  and  C_21
REMARK    3  A    between atoms: C_12  and  C_18
REMARK                            x       y       z     vdW  Elec       q    Type
REMARK                         _______ _______ _______ _____ _____    ______ ____
ROOT
ATOM      1  C   UNL     1       3.711  -0.707  -0.038  0.00  0.00    +0.033 C 
ATOM      2  C   UNL     1       3.817  -1.592   1.206  0.00  0.00    +0.025 C 
ATOM      3  C   UNL     1       5.152  -2.339   1.188  0.00  0.00    +0.117 C 
ATOM      4  C   UNL     1       5.232  -3.211  -0.066  0.00  0.00    +0.117 C 
ATOM      5  C   UNL     1       5.126  -2.326  -1.310  0.00  0.00    +0.031 C 
ATOM      6  C   UNL     1       3.791  -1.579  -1.292  0.00  0.00    +0.065 C 
ATOM      7 BR   UNL     1       3.655  -0.443  -2.890  0.00  0.00    -0.087 Br
ENDROOT
BRANCH   1  11
ATOM      8  C   UNL     1      -0.017   1.378   0.010  0.00  0.00    +0.000 A 
ATOM      9  C   UNL     1       1.171   2.086   0.002  0.00  0.00    +0.000 A 
ATOM     10  C   UNL     1       2.377   1.411  -0.013  0.00  0.00    +0.004 A 
ATOM     11  C   UNL     1       2.396   0.029  -0.020  0.00  0.00    -0.043 A 
ATOM     12  C   UNL     1       1.208  -0.679  -0.012  0.00  0.00    +0.004 A 
ATOM     13  C   UNL     1       0.002  -0.004   0.002  0.00  0.00    +0.000 A 
ENDBRANCH   1  11
BRANCH   4  14
ATOM     14  C   UNL     1       6.547  -3.946  -0.084  0.00  0.00    +0.360 C 
ATOM     15  O   UNL     1       6.591  -5.108  -0.451  0.00  0.00    -0.246 OA
ATOM     16  O   UNL     1       7.568  -3.380   0.270  0.00  0.00    -0.246 OA
ENDBRANCH   4  14
BRANCH   3  17
ATOM     17  C   UNL     1       6.284  -1.344   1.182  0.00  0.00    +0.360 C 
ATOM     18  O   UNL     1       6.404  -0.549   2.099  0.00  0.00    -0.246 OA
ATOM     19  O   UNL     1       7.081  -1.333   0.259  0.00  0.00    -0.246 OA
ENDBRANCH   3  17
TORSDOF 3
