REMARK  Name = ZINC48539114
REMARK  6 active torsions:
REMARK  status: ('A' for Active; 'I' for Inactive)
REMARK    1  A    between atoms: C_1  and  C_2
REMARK    2  A    between atoms: C_12  and  C_15
REMARK    3  A    between atoms: C_15  and  N_16
REMARK    4  A    between atoms: N_19  and  C_20
REMARK    5  A    between atoms: C_27  and  C_29
REMARK    6  A    between atoms: C_27  and  C_30
REMARK                            x       y       z     vdW  Elec       q    Type
REMARK                         _______ _______ _______ _____ _____    ______ ____
ROOT
ATOM      1  N   UNL     1      -3.376  -5.782  -4.378  0.00  0.00    -0.295 N 
ATOM      2  C   UNL     1      -3.830  -6.639  -5.313  0.00  0.00    +0.304 C 
ATOM      3  O   UNL     1      -4.918  -7.165  -5.180  0.00  0.00    -0.252 OA
ATOM      4  N   UNL     1      -3.077  -6.914  -6.397  0.00  0.00    -0.269 N 
ATOM      5  H   UNL     1      -2.507  -5.363  -4.484  0.00  0.00    +0.151 HD
ATOM      6  H   UNL     1      -2.177  -6.559  -6.466  0.00  0.00    +0.156 HD
ENDROOT
BRANCH   4   7
ATOM      7  C   UNL     1      -3.595  -7.713  -7.425  0.00  0.00    +0.038 A 
ATOM      8  C   UNL     1      -2.760  -8.579  -8.119  0.00  0.00    +0.027 A 
ATOM      9  C   UNL     1      -3.269  -9.368  -9.133  0.00  0.00    +0.051 A 
ATOM     10  C   UNL     1      -4.614  -9.298  -9.460  0.00  0.00    +0.167 A 
ATOM     11  C   UNL     1      -5.454  -8.430  -8.766  0.00  0.00    +0.169 A 
ATOM     12  C   UNL     1      -4.943  -7.644  -7.746  0.00  0.00    +0.073 A 
ATOM     13  O   UNL     1      -6.716  -8.547  -9.272  0.00  0.00    -0.448 OA
ATOM     14  C   UNL     1      -6.560  -9.191 -10.550  0.00  0.00    +0.248 C 
ATOM     15  O   UNL     1      -5.351  -9.958 -10.402  0.00  0.00    -0.448 OA
ATOM     16  C   UNL     1      -7.748 -10.110 -10.838  0.00  0.00    +0.104 C 
ATOM     17  C   UNL     1      -6.403  -8.150 -11.661  0.00  0.00    +0.104 C 
ENDBRANCH   4   7
BRANCH   1  18
ATOM     18  C   UNL     1      -4.194  -5.484  -3.200  0.00  0.00    +0.142 C 
BRANCH  18  29
ATOM     19  C   UNL     1      -0.036   1.573  -0.052  0.00  0.00    +0.039 C 
ATOM     20  C   UNL     1      -0.018   0.043  -0.044  0.00  0.00    +0.132 C 
ATOM     21  C   UNL     1      -1.457  -0.486  -0.033  0.00  0.00    +0.137 C 
ATOM     22  N   UNL     1      -1.413  -1.944   0.163  0.00  0.00    -0.312 N 
ATOM     23  C   UNL     1      -0.610  -2.467   1.280  0.00  0.00    +0.134 C 
ATOM     24  C   UNL     1       0.787  -1.842   1.205  0.00  0.00    +0.179 C 
ATOM     25  O   UNL     1       0.663  -0.420   1.125  0.00  0.00    -0.374 OA
ATOM     26  C   UNL     1      -2.111  -2.800  -0.680  0.00  0.00    +0.099 A 
ATOM     27  C   UNL     1      -2.948  -2.274  -1.659  0.00  0.00    +0.042 A 
ATOM     28  C   UNL     1      -3.636  -3.138  -2.491  0.00  0.00    +0.010 A 
ATOM     29  C   UNL     1      -3.464  -4.505  -2.316  0.00  0.00    -0.014 A 
ATOM     30  C   UNL     1      -2.618  -4.958  -1.324  0.00  0.00    +0.089 A 
ATOM     31  N   UNL     1      -1.970  -4.110  -0.548  0.00  0.00    -0.349 N 
ATOM     32  H   UNL     1      -1.378  -4.455   0.139  0.00  0.00    +0.167 HD
ENDBRANCH  18  29
ENDBRANCH   1  18
TORSDOF 3
