REMARK  Name = ZINC39792270
REMARK  8 active torsions:
REMARK  status: ('A' for Active; 'I' for Inactive)
REMARK    1  A    between atoms: C_1  and  C_2
REMARK    2  A    between atoms: C_2  and  C_3
REMARK    3  A    between atoms: C_3  and  C_30
REMARK    4  A    between atoms: N_6  and  N_10
REMARK    5  A    between atoms: C_11  and  C_13
REMARK    6  A    between atoms: C_13  and  S_14
REMARK    7  A    between atoms: S_14  and  C_15
REMARK    8  A    between atoms: C_19  and  C_21
REMARK                            x       y       z     vdW  Elec       q    Type
REMARK                         _______ _______ _______ _____ _____    ______ ____
ROOT
ATOM      1  N   UNL     1       0.872   1.536  -4.285  0.00  0.00    -0.223 N 
ATOM      2  C   UNL     1       0.759   2.878  -4.253  0.00  0.00    +0.240 C 
ATOM      3  O   UNL     1       0.810   3.466  -3.194  0.00  0.00    -0.273 OA
ATOM      4  H   UNL     1       0.832   1.066  -5.133  0.00  0.00    +0.174 HD
ENDROOT
BRANCH   1   8
ATOM      5  C   UNL     1       0.718  -0.497  -1.257  0.00  0.00    +0.139 C 
ATOM      6  C   UNL     1       0.081   0.093  -2.499  0.00  0.00    +0.268 C 
ATOM      7  O   UNL     1      -1.061  -0.057  -2.878  0.00  0.00    -0.271 OA
ATOM      8  N   UNL     1       1.047   0.819  -3.095  0.00  0.00    -0.137 N 
ATOM      9  C   UNL     1       2.195   0.770  -2.408  0.00  0.00    +0.327 C 
ATOM     10  O   UNL     1       3.210   1.345  -2.748  0.00  0.00    -0.251 OA
ATOM     11  N   UNL     1       2.099   0.013  -1.301  0.00  0.00    -0.280 N 
ATOM     12  H   UNL     1       2.803  -0.163  -0.657  0.00  0.00    +0.152 HD
BRANCH   5  13
ATOM     13  C   UNL     1       0.707  -2.003  -1.315  0.00  0.00    -0.015 A 
ATOM     14  C   UNL     1      -0.340  -2.709  -0.752  0.00  0.00    +0.006 A 
ATOM     15  C   UNL     1      -0.350  -4.090  -0.806  0.00  0.00    +0.000 A 
ATOM     16  C   UNL     1       0.686  -4.766  -1.424  0.00  0.00    +0.000 A 
ATOM     17  C   UNL     1       1.732  -4.060  -1.988  0.00  0.00    +0.000 A 
ATOM     18  C   UNL     1       1.740  -2.679  -1.938  0.00  0.00    +0.006 A 
ENDBRANCH   5  13
BRANCH   5  20
ATOM     19  C   UNL     1      -0.019   1.526   0.010  0.00  0.00    +0.007 C 
ATOM     20  C   UNL     1       0.002  -0.004   0.002  0.00  0.00    +0.037 C 
ENDBRANCH   5  20
ENDBRANCH   1   8
BRANCH   2  21
ATOM     21  C   UNL     1       0.571   3.650  -5.535  0.00  0.00    +0.171 C 
BRANCH  21  22
ATOM     22  S   UNL     1       0.454   5.421  -5.162  0.00  0.00    -0.087 S 
BRANCH  22  23
ATOM     23  C   UNL     1       0.233   6.197  -6.787  0.00  0.00    +0.339 C 
ATOM     24  N   UNL     1       1.361   5.865  -7.673  0.00  0.00    -0.219 N 
ATOM     25  N   UNL     1       0.798   5.171  -8.755  0.00  0.00    -0.145 NA
ATOM     26  C   UNL     1      -0.495   5.067  -8.598  0.00  0.00    +0.238 C 
ATOM     27  O   UNL     1      -0.919   5.654  -7.448  0.00  0.00    -0.443 OA
ATOM     28  H   UNL     1       2.297   6.081  -7.538  0.00  0.00    +0.173 HD
BRANCH  26  29
ATOM     29  C   UNL     1      -1.346   4.427  -9.509  0.00  0.00    +0.043 C 
ATOM     30  C   UNL     1      -0.986   3.800 -10.703  0.00  0.00    +0.008 A 
ATOM     31  C   UNL     1       0.257   3.615 -11.345  0.00  0.00    +0.010 A 
ATOM     32  C   UNL     1       0.312   2.950 -12.527  0.00  0.00    +0.001 A 
ATOM     33  C   UNL     1      -0.838   2.439 -13.133  0.00  0.00    +0.002 A 
ATOM     34  C   UNL     1      -2.065   2.581 -12.573  0.00  0.00    +0.026 A 
ATOM     35  C   UNL     1      -2.201   3.264 -11.337  0.00  0.00    +0.043 A 
ATOM     36  N   UNL     1      -3.262   3.530 -10.600  0.00  0.00    -0.380 N 
ATOM     37  C   UNL     1      -2.846   4.265  -9.401  0.00  0.00    +0.154 C 
ATOM     38  H   UNL     1      -4.173   3.276 -10.815  0.00  0.00    +0.160 HD
ENDBRANCH  26  29
ENDBRANCH  22  23
ENDBRANCH  21  22
ENDBRANCH   2  21
TORSDOF 7
