REMARK  Name = ZINC03908919
REMARK  5 active torsions:
REMARK  status: ('A' for Active; 'I' for Inactive)
REMARK    1  A    between atoms: C_1  and  C_2
REMARK    2  A    between atoms: C_2  and  N_12
REMARK    3  A    between atoms: C_8  and  O_11
REMARK    4  A    between atoms: N_12  and  N_13
REMARK    5  A    between atoms: N_13  and  C_14
REMARK                            x       y       z     vdW  Elec       q    Type
REMARK                         _______ _______ _______ _____ _____    ______ ____
ROOT
ATOM      1  C   UNL     1       0.226   1.438  -0.237  0.00  0.00    +0.063 C 
ATOM      2  C   UNL     1       0.007  -0.036  -0.013  0.00  0.00    +0.030 C 
ATOM      3  C   UNL     1       0.099  -0.567   1.274  0.00  0.00    +0.044 C 
ATOM      4  C   UNL     1       0.253   0.291   2.386  0.00  0.00    +0.017 C 
ATOM      5  C   UNL     1       0.342  -0.223   3.637  0.00  0.00    +0.055 C 
ATOM      6  C   UNL     1       0.283  -1.616   3.840  0.00  0.00    +0.224 C 
ATOM      7  O   UNL     1       0.365  -2.071   4.974  0.00  0.00    -0.284 OA
ATOM      8  C   UNL     1       0.129  -2.484   2.745  0.00  0.00    +0.212 C 
ATOM      9  C   UNL     1       0.032  -1.971   1.471  0.00  0.00    +0.232 C 
ATOM     10  O   UNL     1      -0.122  -2.802   0.410  0.00  0.00    -0.283 OA
ENDROOT
BRANCH   8  11
ATOM     11  O   UNL     1       0.072  -3.830   2.945  0.00  0.00    -0.501 OA
ATOM     12  H   UNL     1       0.145  -4.094   3.872  0.00  0.00    +0.292 HD
ENDBRANCH   8  11
BRANCH   2  13
ATOM     13  N   UNL     1      -0.277  -0.839  -1.052  0.00  0.00    -0.270 N 
ATOM     14  H   UNL     1      -0.494  -1.772  -0.899  0.00  0.00    +0.170 HD
BRANCH  13  15
ATOM     15  N   UNL     1      -0.261  -0.328  -2.356  0.00  0.00    -0.267 N 
ATOM     16  H   UNL     1       0.016   0.588  -2.515  0.00  0.00    +0.170 HD
BRANCH  15  17
ATOM     17  C   UNL     1      -0.642  -1.139  -3.429  0.00  0.00    +0.044 A 
ATOM     18  C   UNL     1      -1.044  -2.449  -3.203  0.00  0.00    +0.027 A 
ATOM     19  C   UNL     1      -1.421  -3.249  -4.264  0.00  0.00    +0.040 A 
ATOM     20  C   UNL     1      -1.398  -2.745  -5.554  0.00  0.00    +0.124 A 
ATOM     21  C   UNL     1      -0.998  -1.439  -5.782  0.00  0.00    +0.040 A 
ATOM     22  C   UNL     1      -0.626  -0.634  -4.723  0.00  0.00    +0.027 A 
ATOM     23  F   UNL     1      -1.766  -3.529  -6.591  0.00  0.00    -0.205 F 
ENDBRANCH  15  17
ENDBRANCH  13  15
ENDBRANCH   2  13
TORSDOF 4
