REMARK  Name = ZINC39768567
REMARK  11 active torsions:
REMARK  status: ('A' for Active; 'I' for Inactive)
REMARK    1  A    between atoms: C_1  and  C_2
REMARK    2  A    between atoms: C_6  and  C_8
REMARK    3  A    between atoms: N_10  and  CA_11
REMARK    4  A    between atoms: CA_11  and  C_13
REMARK    5  A    between atoms: CA_11  and  C_15
REMARK    6  A    between atoms: C_13  and  O_14
REMARK    7  A    between atoms: C_18  and  S_26
REMARK    8  A    between atoms: N_19  and  C_20
REMARK    9  A    between atoms: S_26  and  C_27
REMARK   10  A    between atoms: C_27  and  C_28
REMARK   11  A    between atoms: C_28  and  C_30
REMARK                            x       y       z     vdW  Elec       q    Type
REMARK                         _______ _______ _______ _____ _____    ______ ____
ROOT
ATOM      1  C   UNL     1       0.703  -6.293   3.483  0.00  0.00    +0.161 A 
ATOM      2  N   UNL     1       0.453  -7.101   2.491  0.00  0.00    -0.131 NA
ATOM      3  N   UNL     1       1.153  -8.173   2.607  0.00  0.00    -0.122 NA
ATOM      4  C   UNL     1       1.895  -8.109   3.688  0.00  0.00    +0.197 A 
ATOM      5  N   UNL     1       1.635  -6.903   4.280  0.00  0.00    -0.273 N 
ENDROOT
BRANCH   5   6
ATOM      6  C   UNL     1       2.203  -6.397   5.458  0.00  0.00    +0.050 A 
ATOM      7  C   UNL     1       3.000  -5.261   5.415  0.00  0.00    +0.026 A 
ATOM      8  C   UNL     1       3.558  -4.766   6.577  0.00  0.00    +0.002 A 
ATOM      9  C   UNL     1       3.324  -5.401   7.783  0.00  0.00    +0.000 A 
ATOM     10  C   UNL     1       2.531  -6.532   7.830  0.00  0.00    +0.002 A 
ATOM     11  C   UNL     1       1.965  -7.029   6.671  0.00  0.00    +0.026 A 
ENDBRANCH   5   6
BRANCH   1  12
ATOM     12  CA  UNL     1       0.086  -4.937   3.707  0.00  0.00    +0.167 C 
BRANCH  12  15
ATOM     13  C   UNL     1       0.052  -2.845   2.458  0.00  0.00    +0.245 C 
ATOM     14  O   UNL     1       0.049  -2.248   3.516  0.00  0.00    -0.270 OA
ATOM     15  N   UNL     1       0.070  -4.193   2.445  0.00  0.00    -0.299 N 
ATOM     16  H   UNL     1       0.072  -4.670   1.601  0.00  0.00    +0.150 HD
BRANCH  13  22
ATOM     17  C   UNL     1      -0.018   1.503   0.010  0.00  0.00    +0.044 C 
ATOM     18  C   UNL     1       0.002  -0.004   0.002  0.00  0.00    -0.050 A 
ATOM     19  C   UNL     1       0.006  -0.688  -1.201  0.00  0.00    +0.003 A 
ATOM     20  C   UNL     1       0.025  -2.071  -1.218  0.00  0.00    +0.001 A 
ATOM     21  C   UNL     1       0.040  -2.778  -0.033  0.00  0.00    +0.013 A 
ATOM     22  C   UNL     1       0.036  -2.095   1.184  0.00  0.00    +0.037 A 
ATOM     23  C   UNL     1       0.023  -0.699   1.194  0.00  0.00    +0.016 A 
ENDBRANCH  13  22
ENDBRANCH  12  15
BRANCH  12  24
ATOM     24  C   UNL     1      -1.347  -5.107   4.216  0.00  0.00    +0.186 C 
BRANCH  24  25
ATOM     25  O   UNL     1      -2.083  -5.925   3.304  0.00  0.00    -0.393 OA
ATOM     26  H   UNL     1      -3.002  -6.075   3.565  0.00  0.00    +0.209 HD
ENDBRANCH  24  25
ENDBRANCH  12  24
ENDBRANCH   1  12
BRANCH   4  27
ATOM     27  S   UNL     1       3.017  -9.339   4.264  0.00  0.00    -0.078 S 
BRANCH  27  28
ATOM     28  C   UNL     1       2.889 -10.662   3.030  0.00  0.00    +0.157 C 
BRANCH  28  29
ATOM     29  C   UNL     1       3.812 -11.792   3.408  0.00  0.00    +0.173 C 
ATOM     30  O   UNL     1       4.489 -11.713   4.411  0.00  0.00    -0.291 OA
BRANCH  29  31
ATOM     31  C   UNL     1       3.891 -12.991   2.560  0.00  0.00    +0.019 A 
ATOM     32  C   UNL     1       3.107 -13.076   1.392  0.00  0.00    +0.012 A 
ATOM     33  C   UNL     1       3.163 -14.172   0.595  0.00  0.00    +0.009 A 
ATOM     34  C   UNL     1       4.012 -15.244   0.929  0.00  0.00    -0.018 A 
ATOM     35  C   UNL     1       4.087 -16.388   0.118  0.00  0.00    +0.008 A 
ATOM     36  C   UNL     1       4.917 -17.410   0.466  0.00  0.00    +0.001 A 
ATOM     37  C   UNL     1       5.698 -17.340   1.618  0.00  0.00    +0.001 A 
ATOM     38  C   UNL     1       5.653 -16.248   2.429  0.00  0.00    +0.008 A 
ATOM     39  C   UNL     1       4.807 -15.172   2.102  0.00  0.00    -0.017 A 
ATOM     40  C   UNL     1       4.742 -14.030   2.912  0.00  0.00    +0.020 A 
ENDBRANCH  29  31
ENDBRANCH  28  29
ENDBRANCH  27  28
ENDBRANCH   4  27
TORSDOF 10
