REMARK  Name = ZINC01630118
REMARK  8 active torsions:
REMARK  status: ('A' for Active; 'I' for Inactive)
REMARK    1  A    between atoms: C_1  and  C_2
REMARK    2  A    between atoms: C_11  and  O_20
REMARK    3  A    between atoms: C_14  and  O_19
REMARK    4  A    between atoms: C_17  and  O_18
REMARK    5  A    between atoms: O_20  and  C_21
REMARK    6  A    between atoms: C_26  and  O_29
REMARK    7  A    between atoms: O_29  and  C_30
REMARK    8  A    between atoms: C_32  and  N_59
REMARK                            x       y       z     vdW  Elec       q    Type
REMARK                         _______ _______ _______ _____ _____    ______ ____
ROOT
ATOM      1  C   UNL     1      -1.462   3.066  -2.931  0.00  0.00    +0.060 C 
ATOM      2  C   UNL     1      -1.488   4.268  -1.984  0.00  0.00    +0.155 C 
ATOM      3  C   UNL     1      -0.848   3.916  -0.638  0.00  0.00    +0.052 C 
ATOM      4  C   UNL     1      -0.239   2.539  -0.610  0.00  0.00    -0.002 C 
ATOM      5  C   UNL     1       0.347   2.221   0.767  0.00  0.00    -0.078 C 
ATOM      6  C   UNL     1      -1.084   3.843   1.825  0.00  0.00    -0.049 C 
ATOM      7  C   UNL     1      -1.817   4.140   0.543  0.00  0.00    +0.020 C 
ATOM      8  C   UNL     1      -3.034   3.296   0.246  0.00  0.00    -0.017 C 
ATOM      9  C   UNL     1      -3.605   3.600  -0.928  0.00  0.00    +0.013 C 
ATOM     10  C   UNL     1      -2.936   4.728  -1.722  0.00  0.00    +0.156 C 
ATOM     11  C   UNL     1      -2.853   5.899  -0.762  0.00  0.00    +0.041 A 
ATOM     12  C   UNL     1      -2.256   5.584   0.459  0.00  0.00    +0.013 A 
ATOM     13  C   UNL     1      -2.111   6.532   1.434  0.00  0.00    +0.121 A 
ATOM     14  C   UNL     1      -2.569   7.825   1.186  0.00  0.00    +0.049 A 
ATOM     15  C   UNL     1      -3.158   8.139  -0.023  0.00  0.00    +0.049 A 
ATOM     16  C   UNL     1      -3.304   7.167  -1.012  0.00  0.00    +0.124 A 
ATOM     17  C   UNL     1       0.204   4.654   2.014  0.00  0.00    +0.021 C 
ATOM     18  C   UNL     1       0.651   5.394   0.799  0.00  0.00    -0.041 A 
ATOM     19  C   UNL     1       0.127   5.035  -0.428  0.00  0.00    +0.012 A 
ATOM     20  C   UNL     1       0.240   5.751  -1.603  0.00  0.00    +0.167 A 
ATOM     21  C   UNL     1       1.169   6.801  -1.626  0.00  0.00    +0.162 A 
ATOM     22  C   UNL     1       1.822   7.090  -0.430  0.00  0.00    +0.050 A 
ATOM     23  C   UNL     1       1.564   6.430   0.763  0.00  0.00    +0.007 A 
ATOM     24  O   UNL     1      -0.691   5.353  -2.492  0.00  0.00    -0.478 OA
ATOM     25  C   UNL     1      -0.194   1.983   3.118  0.00  0.00    -0.096 C 
ATOM     26  N   UNL     1      -0.698   2.414   1.786  0.00  0.00    +0.381 N 
ATOM     27  H   UNL     1      -1.519   1.849   1.540  0.00  0.00    -0.082 HD
ENDROOT
BRANCH  16  28
ATOM     28  O   UNL     1      -3.884   7.474  -2.203  0.00  0.00    -0.506 OA
ATOM     29  H   UNL     1      -4.850   7.424  -2.194  0.00  0.00    +0.292 HD
ENDBRANCH  16  28
BRANCH  13  30
ATOM     30  O   UNL     1      -1.530   6.219   2.623  0.00  0.00    -0.506 OA
ATOM     31  H   UNL     1      -2.154   5.911   3.296  0.00  0.00    +0.292 HD
ENDBRANCH  13  30
BRANCH  10  32
ATOM     32  O   UNL     1      -3.631   5.056  -2.927  0.00  0.00    -0.364 OA
ATOM     33  C   UNL     1      -2.941   5.989  -3.761  0.00  0.00    +0.195 C 
ENDBRANCH  10  32
BRANCH  21  34
ATOM     34  O   UNL     1       1.421   7.504  -2.763  0.00  0.00    -0.491 OA
ATOM     35  C   UNL     1       2.386   8.554  -2.676  0.00  0.00    +0.277 C 
ENDBRANCH  21  34
TORSDOF 4
