REMARK  Name = ZINC44713705
REMARK  9 active torsions:
REMARK  status: ('A' for Active; 'I' for Inactive)
REMARK    1  A    between atoms: C_1  and  C_2
REMARK    2  A    between atoms: C_3  and  C_9
REMARK    3  A    between atoms: C_4  and  C_8
REMARK    4  A    between atoms: C_9  and  C_11
REMARK    5  A    between atoms: C_9  and  N_12
REMARK    6  A    between atoms: C_13  and  C_15
REMARK    7  A    between atoms: C_26  and  C_28
REMARK    8  A    between atoms: C_28  and  C_29
REMARK    9  A    between atoms: C_29  and  C_30
REMARK                            x       y       z     vdW  Elec       q    Type
REMARK                         _______ _______ _______ _____ _____    ______ ____
ROOT
ATOM      1  C   UNL     1      -2.701  -1.535  -5.084  0.00  0.00    +0.100 C 
ATOM      2  C   UNL     1      -2.054  -2.801  -5.688  0.00  0.00    +0.121 C 
ATOM      3  N   UNL     1      -2.757  -3.002  -6.977  0.00  0.00    -0.300 N 
ATOM      4  C   UNL     1      -2.929  -1.633  -7.520  0.00  0.00    +0.115 C 
ATOM      5  C   UNL     1      -3.273  -0.770  -6.289  0.00  0.00    -0.004 C 
ATOM      6  C   UNL     1      -2.615   0.601  -6.406  0.00  0.00    -0.010 C 
ATOM      7  C   UNL     1      -3.241   1.365  -7.576  0.00  0.00    -0.082 C 
ATOM      8  N   UNL     1      -4.685   1.510  -7.351  0.00  0.00    +0.379 N 
ATOM      9  C   UNL     1      -5.324   0.189  -7.333  0.00  0.00    -0.082 C 
ATOM     10  C   UNL     1      -4.786  -0.624  -6.153  0.00  0.00    -0.010 C 
ATOM     11  C   UNL     1      -3.150  -4.166  -7.531  0.00  0.00    +0.216 C 
ATOM     12  O   UNL     1      -3.719  -4.166  -8.603  0.00  0.00    -0.276 OA
ATOM     13  H   UNL     1      -4.841   1.971  -6.467  0.00  0.00    -0.086 HD
ATOM     14  H   UNL     1      -5.085   2.066  -8.093  0.00  0.00    -0.086 HD
ENDROOT
BRANCH   1  16
ATOM     15  N   UNL     1      -2.016   0.071  -3.332  0.00  0.00    -0.308 N 
ATOM     16  C   UNL     1      -1.663  -0.701  -4.378  0.00  0.00    +0.219 C 
ATOM     17  O   UNL     1      -0.509  -0.725  -4.752  0.00  0.00    -0.275 OA
ATOM     18  H   UNL     1      -2.939   0.090  -3.033  0.00  0.00    +0.149 HD
BRANCH  15  19
ATOM     19  C   UNL     1      -1.007   0.882  -2.646  0.00  0.00    +0.104 C 
ATOM     20  C   UNL     1      -0.293   0.028  -1.597  0.00  0.00    +0.033 C 
BRANCH  19  23
ATOM     21  C   UNL     1      -3.603   0.765  -0.905  0.00  0.00    +0.065 C 
ATOM     22  C   UNL     1      -2.799   2.001  -1.218  0.00  0.00    +0.038 A 
ATOM     23  C   UNL     1      -1.676   2.052  -1.971  0.00  0.00    +0.015 A 
ATOM     24  C   UNL     1      -1.245   3.382  -2.013  0.00  0.00    +0.065 A 
ATOM     25  N   UNL     1      -2.080   4.104  -1.309  0.00  0.00    -0.179 NA
ATOM     26  N   UNL     1      -3.072   3.255  -0.802  0.00  0.00    -0.281 N 
ATOM     27  H   UNL     1      -3.822   3.521  -0.247  0.00  0.00    +0.189 HD
ATOM     28  C   UNL     1      -0.030   3.895  -2.741  0.00  0.00    +0.068 C 
ENDBRANCH  19  23
ENDBRANCH  15  19
ENDBRANCH   1  16
BRANCH  11  29
ATOM     29  C   UNL     1      -2.883  -5.467  -6.820  0.00  0.00    +0.096 C 
BRANCH  29  30
ATOM     30  C   UNL     1      -3.427  -6.627  -7.657  0.00  0.00    +0.013 C 
BRANCH  30  31
ATOM     31  C   UNL     1      -3.156  -7.948  -6.935  0.00  0.00    -0.011 C 
ATOM     32  C   UNL     1      -1.640  -8.233  -6.904  0.00  0.00    +0.003 C 
ATOM     33  C   UNL     1      -1.538  -9.767  -7.091  0.00  0.00    +0.000 C 
ATOM     34  C   UNL     1      -2.663 -10.063  -8.113  0.00  0.00    +0.000 C 
ATOM     35  C   UNL     1      -3.806  -9.112  -7.704  0.00  0.00    +0.003 C 
ENDBRANCH  30  31
ENDBRANCH  29  30
ENDBRANCH  11  29
TORSDOF 6
