REMARK  Name = ZINC00662647
REMARK  7 active torsions:
REMARK  status: ('A' for Active; 'I' for Inactive)
REMARK    1  A    between atoms: C_1  and  O_2
REMARK    2  A    between atoms: O_2  and  C_3
REMARK    3  A    between atoms: C_5  and  N_12
REMARK    4  A    between atoms: C_7  and  N_9
REMARK    5  A    between atoms: C_13  and  C_15
REMARK    6  A    between atoms: C_20  and  C_33
REMARK    7  A    between atoms: C_23  and  C_26
REMARK                            x       y       z     vdW  Elec       q    Type
REMARK                         _______ _______ _______ _____ _____    ______ ____
ROOT
ATOM      1  C   UNL     1      -2.143   2.248  -2.841  0.00  0.00    +0.149 A 
ATOM      2  C   UNL     1      -1.155   3.253  -2.943  0.00  0.00    +0.078 A 
ATOM      3  C   UNL     1      -0.289   3.079  -1.926  0.00  0.00    +0.119 A 
ATOM      4  N   UNL     1      -0.702   2.000  -1.196  0.00  0.00    -0.238 N 
ATOM      5  N   UNL     1      -1.862   1.501  -1.787  0.00  0.00    -0.164 NA
ATOM      6  C   UNL     1      -0.000   1.505  -0.008  0.00  0.00    +0.215 C 
ATOM      7  C   UNL     1       1.437   2.038  -0.024  0.00  0.00    +0.063 C 
ATOM      8  C   UNL     1       1.429   3.552  -0.262  0.00  0.00    +0.104 C 
ATOM      9  N   UNL     1       0.852   3.815  -1.595  0.00  0.00    -0.322 N 
ATOM     10  H   UNL     1       1.321   4.554  -2.262  0.00  0.00    +0.148 HD
ENDROOT
BRANCH   8  11
ATOM     11  C   UNL     1       0.592   4.227   0.794  0.00  0.00    -0.027 A 
ATOM     12  C   UNL     1      -0.785   4.244   0.677  0.00  0.00    +0.006 A 
ATOM     13  C   UNL     1      -1.553   4.859   1.648  0.00  0.00    +0.015 A 
ATOM     14  C   UNL     1      -0.943   5.466   2.731  0.00  0.00    +0.018 A 
ATOM     15  C   UNL     1       0.435   5.453   2.844  0.00  0.00    +0.015 A 
ATOM     16  C   UNL     1       1.202   4.834   1.876  0.00  0.00    +0.006 A 
ATOM     17 BR   UNL     1      -1.994   6.314   4.055  0.00  0.00    -0.050 Br
ENDBRANCH   8  11
BRANCH   1  19
ATOM     18  N   UNL     1      -4.165   1.059  -3.541  0.00  0.00    -0.280 N 
ATOM     19  C   UNL     1      -3.290   2.063  -3.752  0.00  0.00    +0.268 C 
ATOM     20  O   UNL     1      -3.446   2.817  -4.694  0.00  0.00    -0.268 OA
ATOM     21  H   UNL     1      -3.983   0.332  -2.736  0.00  0.00    +0.155 HD
BRANCH  18  24
ATOM     22  C   UNL     1      -6.372   1.165  -6.484  0.00  0.00    +0.124 A 
ATOM     23  C   UNL     1      -5.242   1.283  -5.689  0.00  0.00    +0.069 A 
ATOM     24  C   UNL     1      -5.303   0.943  -4.346  0.00  0.00    +0.039 A 
ATOM     25  C   UNL     1      -6.494   0.480  -3.801  0.00  0.00    +0.056 A 
ATOM     26  C   UNL     1      -7.620   0.369  -4.595  0.00  0.00    +0.131 A 
ATOM     27  C   UNL     1      -7.561   0.708  -5.933  0.00  0.00    +0.078 A 
BRANCH  26  28
ATOM     28  N   UNL     1      -8.889  -0.119  -4.011  0.00  0.00    +0.057 N 
ATOM     29  O   UNL     1      -9.881  -0.222  -4.711  0.00  0.00    -0.126 OA
ATOM     30  O   UNL     1      -8.943  -0.418  -2.832  0.00  0.00    -0.126 OA
ENDBRANCH  26  28
BRANCH  22  32
ATOM     31  C   UNL     1      -7.518   1.352  -8.558  0.00  0.00    +0.277 C 
ATOM     32  O   UNL     1      -6.315   1.498  -7.800  0.00  0.00    -0.495 OA
ENDBRANCH  22  32
ENDBRANCH  18  24
ENDBRANCH   1  19
BRANCH   6  33
ATOM     33  C   UNL     1       0.020  -0.025  -0.026  0.00  0.00    +0.412 C 
ATOM     34  F   UNL     1       0.703  -0.495   1.101  0.00  0.00    -0.168 F 
ATOM     35  F   UNL     1      -1.292  -0.509  -0.012  0.00  0.00    -0.168 F 
ATOM     36  F   UNL     1       0.669  -0.469  -1.183  0.00  0.00    -0.168 F 
ENDBRANCH   6  33
TORSDOF 6
