REMARK  Name = ZINC20701493
REMARK  6 active torsions:
REMARK  status: ('A' for Active; 'I' for Inactive)
REMARK    1  A    between atoms: C_4  and  C_7
REMARK    2  A    between atoms: C_7  and  N_8
REMARK    3  A    between atoms: N_8  and  S_9
REMARK    4  A    between atoms: S_9  and  C_12
REMARK    5  A    between atoms: C_25  and  C_28
REMARK    6  A    between atoms: C_33  and  O_34
REMARK                            x       y       z     vdW  Elec       q    Type
REMARK                         _______ _______ _______ _____ _____    ______ ____
ROOT
ATOM      1  C   UNL     1      -3.305  -3.482  -1.626  0.00  0.00    +0.106 A 
ATOM      2  C   UNL     1      -3.279  -3.755  -0.270  0.00  0.00    +0.030 A 
ATOM      3  C   UNL     1      -2.136  -3.511   0.464  0.00  0.00    +0.025 A 
ATOM      4  C   UNL     1      -1.005  -2.989  -0.152  0.00  0.00    +0.031 A 
ATOM      5  C   UNL     1      -1.044  -2.700  -1.520  0.00  0.00    -0.018 A 
ATOM      6  C   UNL     1      -2.187  -2.956  -2.247  0.00  0.00    +0.034 A 
ATOM      7  C   UNL     1       0.164  -2.099  -2.126  0.00  0.00    +0.049 C 
ATOM      8  C   UNL     1       0.481  -2.253  -3.568  0.00  0.00    -0.023 C 
ATOM      9  C   UNL     1       1.801  -2.246  -3.714  0.00  0.00    -0.030 C 
ATOM     10  C   UNL     1       2.478  -2.118  -2.348  0.00  0.00    +0.033 C 
ATOM     11  C   UNL     1       1.410  -2.709  -1.418  0.00  0.00    +0.029 C 
ATOM     12  C   UNL     1       1.365  -2.182   0.005  0.00  0.00    +0.109 C 
ATOM     13  N   UNL     1       0.148  -2.765   0.610  0.00  0.00    -0.336 N 
ATOM     14  H   UNL     1       0.138  -3.032   1.677  0.00  0.00    +0.147 HD
ENDROOT
BRANCH  12  15
ATOM     15  C   UNL     1       1.274  -0.678  -0.000  0.00  0.00    +0.017 A 
ATOM     16  C   UNL     1       0.038  -0.060   0.016  0.00  0.00    +0.029 A 
ATOM     17  C   UNL     1      -0.048   1.321   0.011  0.00  0.00    +0.043 A 
ATOM     18  C   UNL     1       1.105   2.087  -0.011  0.00  0.00    +0.043 A 
ATOM     19  C   UNL     1       2.343   1.473  -0.028  0.00  0.00    +0.084 A 
ATOM     20  C   UNL     1       2.430   0.088  -0.022  0.00  0.00    +0.140 A 
ATOM     21 CL   UNL     1       3.788   2.434  -0.056  0.00  0.00    -0.080 Cl
ATOM     22 CL   UNL     1      -1.602   2.093   0.024  0.00  0.00    -0.083 Cl
BRANCH  20  23
ATOM     23  O   UNL     1       3.647  -0.518  -0.039  0.00  0.00    -0.505 OA
ATOM     24  H   UNL     1       4.564   0.089  -0.057  0.00  0.00    +0.292 HD
ENDBRANCH  20  23
ENDBRANCH  12  15
BRANCH   1  25
ATOM     25  S   UNL     1      -4.763  -3.806  -2.562  0.00  0.00    +0.059 S 
ATOM     26  O   UNL     1      -5.847  -3.786  -1.644  0.00  0.00    -0.153 OA
ATOM     27  O   UNL     1      -4.712  -2.956  -3.699  0.00  0.00    -0.153 OA
BRANCH  25  28
ATOM     28  N   UNL     1      -4.648  -5.358  -3.126  0.00  0.00    -0.186 NA
ATOM     29  H   UNL     1      -4.410  -5.529  -4.186  0.00  0.00    +0.148 HD
BRANCH  28  30
ATOM     30  C   UNL     1      -4.645  -6.481  -2.185  0.00  0.00    +0.141 C 
BRANCH  30  34
ATOM     31  C   UNL     1      -5.374 -10.118  -4.304  0.00  0.00    +0.000 A 
ATOM     32  C   UNL     1      -4.079  -9.667  -4.130  0.00  0.00    +0.000 A 
ATOM     33  C   UNL     1      -3.843  -8.490  -3.444  0.00  0.00    +0.005 A 
ATOM     34  C   UNL     1      -4.902  -7.764  -2.933  0.00  0.00    -0.032 A 
ATOM     35  C   UNL     1      -6.197  -8.217  -3.103  0.00  0.00    +0.005 A 
ATOM     36  C   UNL     1      -6.433  -9.392  -3.793  0.00  0.00    +0.000 A 
ENDBRANCH  30  34
ENDBRANCH  28  30
ENDBRANCH  25  28
ENDBRANCH   1  25
TORSDOF 6
