REMARK  Name = ZINC63376296
REMARK  7 active torsions:
REMARK  status: ('A' for Active; 'I' for Inactive)
REMARK    1  A    between atoms: C_7  and  C_10
REMARK    2  A    between atoms: C_10  and  C_11
REMARK    3  A    between atoms: C_11  and  C_13
REMARK    4  A    between atoms: C_11  and  N_23
REMARK    5  A    between atoms: C_19  and  C_21
REMARK    6  A    between atoms: C_21  and  O_22
REMARK    7  A    between atoms: C_24  and  O_35
REMARK                            x       y       z     vdW  Elec       q    Type
REMARK                         _______ _______ _______ _____ _____    ______ ____
ROOT
ATOM      1  C   UNL     1       0.457  -3.653  -1.456  0.00  0.00    +0.170 C 
ENDROOT
BRANCH   1   2
ATOM      2  N   UNL     1       1.810  -4.109  -1.784  0.00  0.00    -0.244 N 
ATOM      3  C   UNL     1       2.486  -3.564  -2.961  0.00  0.00    +0.300 C 
ATOM      4  N   UNL     1       3.933  -3.484  -2.726  0.00  0.00    -0.303 N 
ATOM      5  C   UNL     1       4.571  -4.555  -2.110  0.00  0.00    +0.042 A 
ATOM      6  C   UNL     1       5.901  -4.851  -2.358  0.00  0.00    +0.024 A 
ATOM      7  C   UNL     1       6.495  -5.919  -1.713  0.00  0.00    +0.002 A 
ATOM      8  C   UNL     1       5.771  -6.695  -0.821  0.00  0.00    +0.001 A 
ATOM      9  C   UNL     1       4.444  -6.416  -0.567  0.00  0.00    +0.015 A 
ATOM     10  C   UNL     1       3.831  -5.346  -1.214  0.00  0.00    +0.058 A 
ATOM     11  C   UNL     1       2.412  -5.019  -0.993  0.00  0.00    +0.252 C 
ATOM     12  O   UNL     1       1.788  -5.569  -0.105  0.00  0.00    -0.270 OA
ATOM     13  H   UNL     1       4.434  -2.699  -2.996  0.00  0.00    +0.150 HD
BRANCH   3  14
ATOM     14  O   UNL     1       2.239  -4.412  -4.084  0.00  0.00    -0.359 OA
ATOM     15  H   UNL     1       2.657  -4.113  -4.903  0.00  0.00    +0.213 HD
ENDBRANCH   3  14
ENDBRANCH   1   2
BRANCH   1  16
ATOM     16  C   UNL     1      -0.484  -4.830  -1.460  0.00  0.00    +0.237 C 
ATOM     17  O   UNL     1      -0.043  -5.960  -1.476  0.00  0.00    -0.274 OA
ATOM     18  N   UNL     1      -1.817  -4.628  -1.446  0.00  0.00    -0.295 N 
ATOM     19  C   UNL     1      -2.488  -3.319  -1.542  0.00  0.00    +0.108 C 
ATOM     20  C   UNL     1      -3.871  -3.533  -0.878  0.00  0.00    +0.021 C 
ATOM     21  C   UNL     1      -4.216  -4.975  -1.334  0.00  0.00    +0.026 C 
ATOM     22  C   UNL     1      -2.842  -5.677  -1.339  0.00  0.00    +0.101 C 
BRANCH  22  23
ATOM     23  C   UNL     1      -2.743  -6.625  -2.535  0.00  0.00    +0.178 C 
BRANCH  23  24
ATOM     24  O   UNL     1      -3.060  -5.915  -3.734  0.00  0.00    -0.393 OA
ATOM     25  H   UNL     1      -3.017  -6.456  -4.534  0.00  0.00    +0.209 HD
ENDBRANCH  23  24
ENDBRANCH  22  23
ENDBRANCH   1  16
BRANCH   1  26
ATOM     26  C   UNL     1       0.458  -3.006  -0.070  0.00  0.00    +0.065 C 
BRANCH  26  33
ATOM     27  C   UNL     1      -0.611   1.413  -0.687  0.00  0.00    +0.001 A 
ATOM     28  C   UNL     1       0.496   2.271  -0.643  0.00  0.00    +0.002 A 
ATOM     29  C   UNL     1       1.754   1.827  -0.436  0.00  0.00    +0.026 A 
ATOM     30  C   UNL     1       2.006   0.440  -0.253  0.00  0.00    +0.043 A 
ATOM     31  N   UNL     1       3.116  -0.226  -0.042  0.00  0.00    -0.380 N 
ATOM     32  C   UNL     1       2.791  -1.652   0.074  0.00  0.00    +0.144 C 
ATOM     33  C   UNL     1       1.292  -1.752  -0.102  0.00  0.00    -0.039 C 
ATOM     34  C   UNL     1       0.853  -0.487  -0.295  0.00  0.00    -0.001 A 
ATOM     35  C   UNL     1      -0.483   0.077  -0.524  0.00  0.00    +0.010 A 
ATOM     36  H   UNL     1       4.003   0.160   0.026  0.00  0.00    +0.160 HD
ENDBRANCH  26  33
ENDBRANCH   1  26
TORSDOF 7
