REMARK  Name = ZINC27345905
REMARK  8 active torsions:
REMARK  status: ('A' for Active; 'I' for Inactive)
REMARK    1  A    between atoms: C_1  and  C_2
REMARK    2  A    between atoms: C_2  and  C_3
REMARK    3  A    between atoms: C_2  and  C_4
REMARK    4  A    between atoms: C_12  and  N_29
REMARK    5  A    between atoms: C_15  and  S_17
REMARK    6  A    between atoms: S_17  and  C_18
REMARK    7  A    between atoms: C_18  and  C_19
REMARK    8  A    between atoms: N_21  and  C_22
REMARK                            x       y       z     vdW  Elec       q    Type
REMARK                         _______ _______ _______ _____ _____    ______ ____
ROOT
ATOM      1  C   UNL     1      14.249  -4.184  -0.909  0.00  0.00    +0.126 C 
ATOM      2  C   UNL     1      13.470  -2.997  -0.334  0.00  0.00    +0.068 C 
ATOM      3  C   UNL     1      11.978  -3.298  -0.474  0.00  0.00    -0.027 A 
ATOM      4  C   UNL     1      11.581  -4.584  -0.691  0.00  0.00    +0.021 A 
ATOM      5  S   UNL     1       9.815  -4.476  -0.801  0.00  0.00    -0.071 S 
ATOM      6  C   UNL     1       9.675  -2.729  -0.556  0.00  0.00    +0.107 A 
ATOM      7  C   UNL     1      10.984  -2.322  -0.392  0.00  0.00    -0.009 A 
ATOM      8  C   UNL     1      11.237  -0.839  -0.123  0.00  0.00    +0.045 C 
ATOM      9  N   UNL     1      10.079  -0.109  -0.666  0.00  0.00    -0.334 N 
ATOM     10  C   UNL     1       8.806  -0.613  -0.539  0.00  0.00    +0.154 C 
ATOM     11  N   UNL     1       8.597  -1.919  -0.524  0.00  0.00    -0.219 NA
ATOM     12  C   UNL     1      12.465  -5.782  -0.805  0.00  0.00    +0.203 C 
ATOM     13  O   UNL     1      13.774  -5.409  -0.344  0.00  0.00    -0.371 OA
ATOM     14  H   UNL     1      10.227   0.852  -1.181  0.00  0.00    +0.146 HD
ENDROOT
BRANCH   8  15
ATOM     15  N   UNL     1      11.356  -0.604   1.322  0.00  0.00    +0.393 N 
ATOM     16  H   UNL     1      11.538   0.465   1.506  0.00  0.00    -0.087 HD
ATOM     17  H   UNL     1      12.194  -1.192   1.722  0.00  0.00    -0.087 HD
ATOM     18  H   UNL     1      10.424  -0.908   1.821  0.00  0.00    -0.087 HD
ENDBRANCH   8  15
BRANCH   1  20
ATOM     19  C   UNL     1      16.517  -5.202  -1.157  0.00  0.00    +0.010 C 
ATOM     20  C   UNL     1      15.735  -4.018  -0.584  0.00  0.00    +0.012 C 
ATOM     21  C   UNL     1      16.251  -2.718  -1.205  0.00  0.00    +0.010 C 
ENDBRANCH   1  20
BRANCH  10  22
ATOM     22  S   UNL     1       7.439   0.491  -0.402  0.00  0.00    -0.081 S 
BRANCH  22  23
ATOM     23  C   UNL     1       6.083  -0.701  -0.275  0.00  0.00    +0.173 C 
BRANCH  23  24
ATOM     24  C   UNL     1       4.776   0.037  -0.145  0.00  0.00    +0.227 C 
ATOM     25  O   UNL     1       4.762   1.250  -0.139  0.00  0.00    -0.275 OA
ATOM     26  N   UNL     1       3.622  -0.651  -0.036  0.00  0.00    -0.285 N 
ATOM     27  H   UNL     1       3.641  -1.748   0.045  0.00  0.00    +0.155 HD
BRANCH  26  28
ATOM     28  C   UNL     1       2.399   0.031  -0.027  0.00  0.00    +0.033 A 
ATOM     29  C   UNL     1       2.246   1.194  -0.769  0.00  0.00    +0.024 A 
ATOM     30  C   UNL     1       1.038   1.865  -0.758  0.00  0.00    +0.017 A 
ATOM     31  C   UNL     1      -0.018   1.378  -0.008  0.00  0.00    +0.018 A 
ATOM     32  C   UNL     1       0.133   0.219   0.732  0.00  0.00    +0.017 A 
ATOM     33  C   UNL     1       1.338  -0.456   0.725  0.00  0.00    +0.024 A 
ATOM     34 BR   UNL     1      -1.667   2.303   0.011  0.00  0.00    -0.050 Br
ENDBRANCH  26  28
ENDBRANCH  23  24
ENDBRANCH  22  23
ENDBRANCH  10  22
TORSDOF 6
