REMARK  Name = ZINC08756676
REMARK  5 active torsions:
REMARK  status: ('A' for Active; 'I' for Inactive)
REMARK    1  A    between atoms: C_1  and  C_2
REMARK    2  A    between atoms: C_2  and  C_4
REMARK    3  A    between atoms: C_2  and  N_10
REMARK    4  A    between atoms: C_20  and  S_23
REMARK    5  A    between atoms: S_23  and  C_26
REMARK                            x       y       z     vdW  Elec       q    Type
REMARK                         _______ _______ _______ _____ _____    ______ ____
ROOT
ATOM      1  N   UNL     1       4.723  -0.834   2.797  0.00  0.00    -0.322 N 
ATOM      2  C   UNL     1       3.374  -0.941   3.091  0.00  0.00    +0.138 A 
ATOM      3  C   UNL     1       2.964  -1.347   4.364  0.00  0.00    +0.077 A 
ATOM      4  C   UNL     1       1.611  -1.468   4.698  0.00  0.00    +0.087 A 
ATOM      5  C   UNL     1       1.342  -1.883   6.003  0.00  0.00    +0.036 A 
ATOM      6  C   UNL     1       2.356  -2.142   6.858  0.00  0.00    +0.048 A 
ATOM      7  S   UNL     1       3.799  -1.811   5.860  0.00  0.00    -0.092 S 
ATOM      8  N   UNL     1       0.712  -1.155   3.674  0.00  0.00    -0.192 N 
ATOM      9  C   UNL     1       1.160  -0.768   2.443  0.00  0.00    +0.204 A 
ATOM     10  N   UNL     1       2.471  -0.660   2.167  0.00  0.00    -0.209 NA
ATOM     11  C   UNL     1       0.025  -0.534   1.682  0.00  0.00    +0.249 A 
ATOM     12  N   UNL     1      -1.041  -0.783   2.433  0.00  0.00    -0.108 NA
ATOM     13  N   UNL     1      -0.685  -1.151   3.614  0.00  0.00    -0.057 NA
ATOM     14  H   UNL     1       5.384  -1.041   3.475  0.00  0.00    +0.148 HD
ENDROOT
BRANCH  11  15
ATOM     15  S   UNL     1       0.002  -0.004   0.002  0.00  0.00    +0.047 S 
ATOM     16  O   UNL     1      -1.243  -0.424  -0.539  0.00  0.00    -0.163 OA
ATOM     17  O   UNL     1       1.248  -0.390  -0.563  0.00  0.00    -0.163 OA
BRANCH  15  18
ATOM     18  C   UNL     1      -0.022   1.758   0.012  0.00  0.00    +0.096 A 
ATOM     19  C   UNL     1      -1.228   2.432   0.021  0.00  0.00    +0.028 A 
ATOM     20  C   UNL     1      -1.248   3.814   0.034  0.00  0.00    +0.017 A 
ATOM     21  C   UNL     1      -0.059   4.522   0.026  0.00  0.00    +0.018 A 
ATOM     22  C   UNL     1       1.148   3.847   0.011  0.00  0.00    +0.017 A 
ATOM     23  C   UNL     1       1.166   2.465   0.004  0.00  0.00    +0.028 A 
ATOM     24 BR   UNL     1      -0.085   6.413   0.036  0.00  0.00    -0.050 Br
ENDBRANCH  15  18
ENDBRANCH  11  15
BRANCH   1  26
ATOM     25  C   UNL     1       5.194  -1.620   0.530  0.00  0.00    +0.033 C 
ATOM     26  C   UNL     1       5.150  -0.408   1.462  0.00  0.00    +0.099 C 
BRANCH  26  27
ATOM     27  C   UNL     1       6.522   0.209   1.548  0.00  0.00    -0.028 A 
ATOM     28  C   UNL     1       7.479  -0.345   2.377  0.00  0.00    +0.005 A 
ATOM     29  C   UNL     1       8.739   0.219   2.452  0.00  0.00    +0.000 A 
ATOM     30  C   UNL     1       9.039   1.343   1.705  0.00  0.00    +0.000 A 
ATOM     31  C   UNL     1       8.081   1.900   0.879  0.00  0.00    +0.000 A 
ATOM     32  C   UNL     1       6.822   1.333   0.800  0.00  0.00    +0.005 A 
ENDBRANCH  26  27
ENDBRANCH   1  26
TORSDOF 4
