REMARK  Name = ZINC10959062
REMARK  12 active torsions:
REMARK  status: ('A' for Active; 'I' for Inactive)
REMARK    1  A    between atoms: C_1  and  C_2
REMARK    2  A    between atoms: C_2  and  C_3
REMARK    3  A    between atoms: C_2  and  C_4
REMARK    4  A    between atoms: C_2  and  C_5
REMARK    5  A    between atoms: C_8  and  S_11
REMARK    6  A    between atoms: S_11  and  N_14
REMARK    7  A    between atoms: N_14  and  C_15
REMARK    8  A    between atoms: C_15  and  C_16
REMARK    9  A    between atoms: C_19  and  C_22
REMARK   10  A    between atoms: N_24  and  C_25
REMARK   11  A    between atoms: C_30  and  C_31
REMARK   12  A    between atoms: C_30  and  N_68
REMARK                            x       y       z     vdW  Elec       q    Type
REMARK                         _______ _______ _______ _____ _____    ______ ____
ROOT
ATOM      1  C   UNL     1      -3.285   4.768  -4.574  0.00  0.00    -0.032 A 
ATOM      2  C   UNL     1      -2.993   5.655  -3.553  0.00  0.00    +0.006 A 
ATOM      3  C   UNL     1      -2.281   5.230  -2.450  0.00  0.00    +0.013 A 
ATOM      4  C   UNL     1      -1.856   3.903  -2.365  0.00  0.00    +0.037 A 
ATOM      5  C   UNL     1      -2.149   3.016  -3.402  0.00  0.00    +0.013 A 
ATOM      6  C   UNL     1      -2.866   3.452  -4.497  0.00  0.00    +0.006 A 
ENDROOT
BRANCH   4   7
ATOM      7  C   UNL     1      -1.093   3.442  -1.186  0.00  0.00    +0.244 C 
ATOM      8  O   UNL     1      -0.834   4.218  -0.287  0.00  0.00    -0.270 OA
ATOM      9  N   UNL     1      -0.684   2.160  -1.108  0.00  0.00    -0.309 N 
ATOM     10  H   UNL     1      -0.890   1.540  -1.825  0.00  0.00    +0.149 HD
BRANCH   9  11
ATOM     11  C   UNL     1       0.073   1.702   0.060  0.00  0.00    +0.070 C 
ATOM     12  C   UNL     1       1.560   2.003  -0.143  0.00  0.00    +0.004 C 
ATOM     13  C   UNL     1       2.352   1.469   1.052  0.00  0.00    -0.076 C 
ATOM     14  C   UNL     1       0.724  -0.289   1.417  0.00  0.00    -0.076 C 
ATOM     15  C   UNL     1      -0.116   0.193   0.233  0.00  0.00    +0.004 C 
ATOM     16  N   UNL     1       2.148   0.008   1.149  0.00  0.00    +0.385 N 
ATOM     17  H   UNL     1       2.416  -0.425   0.257  0.00  0.00    -0.081 HD
BRANCH  16  18
ATOM     18  C   UNL     1       2.991  -0.550   2.226  0.00  0.00    +0.018 C 
BRANCH  18  19
ATOM     19  C   UNL     1       2.944  -2.054   2.150  0.00  0.00    +0.194 C 
ATOM     20  O   UNL     1       2.359  -2.597   1.236  0.00  0.00    -0.278 OA
ATOM     21  N   UNL     1       3.550  -2.797   3.097  0.00  0.00    -0.331 N 
ATOM     22  H   UNL     1       4.017  -2.362   3.828  0.00  0.00    +0.145 HD
ATOM     23  H   UNL     1       3.519  -3.765   3.048  0.00  0.00    +0.145 HD
ENDBRANCH  18  19
ENDBRANCH  16  18
ENDBRANCH   9  11
ENDBRANCH   4   7
BRANCH   1  24
ATOM     24  C   UNL     1      -4.063   5.239  -5.776  0.00  0.00    +0.141 C 
BRANCH  24  25
ATOM     25  N   UNL     1      -3.135   5.730  -6.797  0.00  0.00    -0.186 NA
ATOM     26  H   UNL     1      -2.213   5.920  -6.563  0.00  0.00    +0.148 HD
BRANCH  25  27
ATOM     27  S   UNL     1      -3.660   5.962  -8.351  0.00  0.00    +0.059 S 
ATOM     28  O   UNL     1      -2.550   6.461  -9.084  0.00  0.00    -0.153 OA
ATOM     29  O   UNL     1      -4.351   4.778  -8.726  0.00  0.00    -0.153 OA
BRANCH  27  33
ATOM     30  C   UNL     1      -6.739   9.278  -8.243  0.00  0.00    -0.042 A 
ATOM     31  C   UNL     1      -5.403   9.581  -8.431  0.00  0.00    +0.006 A 
ATOM     32  C   UNL     1      -4.463   8.568  -8.464  0.00  0.00    +0.029 A 
ATOM     33  C   UNL     1      -4.858   7.253  -8.309  0.00  0.00    +0.105 A 
ATOM     34  C   UNL     1      -6.195   6.950  -8.126  0.00  0.00    +0.029 A 
ATOM     35  C   UNL     1      -7.134   7.963  -8.088  0.00  0.00    +0.006 A 
BRANCH  30  37
ATOM     36  C   UNL     1      -7.740  11.144  -9.534  0.00  0.00    +0.015 C 
ATOM     37  C   UNL     1      -7.763  10.383  -8.207  0.00  0.00    -0.013 C 
ATOM     38  C   UNL     1      -9.153   9.782  -7.989  0.00  0.00    +0.015 C 
ATOM     39  C   UNL     1      -7.438  11.344  -7.062  0.00  0.00    +0.015 C 
ENDBRANCH  30  37
ENDBRANCH  27  33
ENDBRANCH  25  27
ENDBRANCH  24  25
ENDBRANCH   1  24
TORSDOF 9
