REMARK  Name = ZINC12486452
REMARK  9 active torsions:
REMARK  status: ('A' for Active; 'I' for Inactive)
REMARK    1  A    between atoms: C_1  and  C_2
REMARK    2  A    between atoms: C_2  and  C_3
REMARK    3  A    between atoms: N_5  and  C_6
REMARK    4  A    between atoms: C_9  and  C_12
REMARK    5  A    between atoms: N_14  and  N_15
REMARK    6  A    between atoms: C_16  and  C_18
REMARK    7  A    between atoms: C_18  and  O_19
REMARK    8  A    between atoms: O_19  and  C_20
REMARK    9  A    between atoms: C_21  and  C_28
REMARK                            x       y       z     vdW  Elec       q    Type
REMARK                         _______ _______ _______ _____ _____    ______ ____
ROOT
ATOM      1  C   UNL     1      -0.024   1.194   0.038  0.00  0.00    +0.260 C 
ATOM      2  O   UNL     1      -0.012  -0.022   0.041  0.00  0.00    -0.269 OA
ATOM      3  N   UNL     1       1.136   1.879   0.026  0.00  0.00    -0.230 N 
ATOM      4  H   UNL     1       1.126   2.849   0.024  0.00  0.00    +0.173 HD
ENDROOT
BRANCH   1   8
ATOM      5  C   UNL     1      -3.723   3.281   0.045  0.00  0.00    +0.033 A 
ATOM      6  C   UNL     1      -3.711   1.889   0.049  0.00  0.00    +0.024 A 
ATOM      7  C   UNL     1      -2.514   1.210   0.046  0.00  0.00    +0.015 A 
ATOM      8  C   UNL     1      -1.310   1.919   0.040  0.00  0.00    +0.038 A 
ATOM      9  C   UNL     1      -1.325   3.317   0.043  0.00  0.00    +0.015 A 
ATOM     10  C   UNL     1      -2.526   3.990   0.040  0.00  0.00    +0.024 A 
BRANCH   5  13
ATOM     11  C   UNL     1      -5.996   3.464  -0.621  0.00  0.00    +0.217 C 
ATOM     12  O   UNL     1      -5.917   2.377  -1.153  0.00  0.00    -0.275 OA
ATOM     13  N   UNL     1      -4.938   3.966   0.047  0.00  0.00    -0.286 N 
ATOM     14  H   UNL     1      -5.021   4.803   0.529  0.00  0.00    +0.155 HD
BRANCH  11  16
ATOM     15  C   UNL     1      -8.309   3.464  -1.512  0.00  0.00    +0.013 C 
ATOM     16  C   UNL     1      -7.277   4.253  -0.705  0.00  0.00    +0.093 C 
ENDBRANCH  11  16
ENDBRANCH   5  13
ENDBRANCH   1   8
BRANCH   3  17
ATOM     17  N   UNL     1       2.356   1.191   0.018  0.00  0.00    -0.231 N 
ATOM     18  C   UNL     1       3.517   1.877   0.007  0.00  0.00    +0.267 C 
ATOM     19  O   UNL     1       3.505   3.089   0.004  0.00  0.00    -0.271 OA
ATOM     20  H   UNL     1       2.366   0.221   0.021  0.00  0.00    +0.173 HD
BRANCH  18  21
ATOM     21  C   UNL     1       4.829   1.136  -0.002  0.00  0.00    +0.326 C 
BRANCH  21  22
ATOM     22  O   UNL     1       5.906   2.075  -0.013  0.00  0.00    -0.481 OA
BRANCH  22  23
ATOM     23  C   UNL     1       7.167   1.569  -0.021  0.00  0.00    +0.138 A 
ATOM     24  C   UNL     1       7.802   1.306  -1.227  0.00  0.00    -0.007 A 
ATOM     25  C   UNL     1       9.084   0.792  -1.234  0.00  0.00    +0.022 A 
ATOM     26  C   UNL     1       9.735   0.537  -0.040  0.00  0.00    +0.019 A 
ATOM     27  C   UNL     1       9.105   0.797   1.163  0.00  0.00    +0.034 A 
ATOM     28  C   UNL     1       7.824   1.318   1.175  0.00  0.00    +0.061 A 
ATOM     29 BR   UNL     1       6.965   1.681   2.820  0.00  0.00    -0.046 Br
ATOM     30 BR   UNL     1      11.490  -0.167  -0.053  0.00  0.00    -0.050 Br
ATOM     31  C   UNL     1       7.093   1.583  -2.528  0.00  0.00    +0.047 C 
ENDBRANCH  22  23
ENDBRANCH  21  22
ENDBRANCH  18  21
ENDBRANCH   3  17
TORSDOF 7
