REMARK  Name = ZINC17218659
REMARK  17 active torsions:
REMARK  status: ('A' for Active; 'I' for Inactive)
REMARK    1  A    between atoms: C_1  and  C_2
REMARK    2  A    between atoms: C_7  and  C_31
REMARK    3  A    between atoms: C_8  and  C_9
REMARK    4  A    between atoms: C_8  and  C_10
REMARK    5  A    between atoms: C_10  and  C_11
REMARK    6  A    between atoms: C_11  and  C_12
REMARK    7  A    between atoms: C_12  and  C_30
REMARK    8  A    between atoms: C_13  and  C_14
REMARK    9  A    between atoms: C_14  and  C_15
REMARK   10  A    between atoms: C_15  and  C_16
REMARK   11  A    between atoms: C_16  and  C_28
REMARK   12  A    between atoms: C_17  and  C_18
REMARK   13  A    between atoms: C_18  and  S_19
REMARK   14  A    between atoms: S_19  and  C_22
REMARK   15  A    between atoms: C_22  and  C_23
REMARK   16  A    between atoms: C_23  and  N_24
REMARK   17  A    between atoms: C_28  and  O_29
REMARK                            x       y       z     vdW  Elec       q    Type
REMARK                         _______ _______ _______ _____ _____    ______ ____
ROOT
ATOM      1  C   UNL     1      -0.486   2.226   4.657  0.00  0.00    -0.047 C 
ATOM      2  C   UNL     1      -0.921   1.285   3.856  0.00  0.00    -0.003 C 
ENDROOT
BRANCH   1   3
ATOM      3  C   UNL     1       0.187   1.859   5.954  0.00  0.00    +0.037 C 
BRANCH   3   4
ATOM      4  C   UNL     1       1.704   1.834   5.753  0.00  0.00    +0.031 C 
BRANCH   4   6
ATOM      5  C   UNL     1       3.215   0.462   7.093  0.00  0.00    -0.076 C 
ATOM      6  C   UNL     1       2.377   1.468   7.051  0.00  0.00    -0.028 C 
ATOM      7  C   UNL     1       3.772   0.000   8.415  0.00  0.00    +0.039 C 
BRANCH   5   8
ATOM      8  C   UNL     1       3.624  -0.232   5.819  0.00  0.00    +0.031 C 
BRANCH   8   9
ATOM      9  C   UNL     1       4.925   0.382   5.298  0.00  0.00    +0.015 C 
BRANCH   9  16
ATOM     10  C   UNL     1       6.574  -2.149   4.882  0.00  0.00    +0.008 C 
ATOM     11  C   UNL     1       5.335  -1.756   4.074  0.00  0.00    -0.004 C 
ATOM     12  C   UNL     1       5.423  -2.363   2.668  0.00  0.00    +0.008 C 
ATOM     13  C   UNL     1       4.098  -2.105   1.947  0.00  0.00    +0.027 C 
ATOM     14  C   UNL     1       3.716  -0.659   2.068  0.00  0.00    -0.027 C 
ATOM     15  C   UNL     1       4.223   0.154   2.938  0.00  0.00    -0.070 C 
ATOM     16  C   UNL     1       5.271  -0.233   3.940  0.00  0.00    -0.008 C 
ATOM     17  C   UNL     1       6.632   0.292   3.479  0.00  0.00    +0.016 C 
ATOM     18  C   UNL     1       3.730   1.579   2.946  0.00  0.00    +0.039 C 
ENDBRANCH   9  16
ENDBRANCH   8   9
ENDBRANCH   5   8
ENDBRANCH   4   6
ENDBRANCH   3   4
ENDBRANCH   1   3
BRANCH   2  19
ATOM     19  C   UNL     1      -1.443   1.641   2.488  0.00  0.00    +0.193 C 
BRANCH  19  20
ATOM     20  S   UNL     1      -0.390   0.880   1.222  0.00  0.00    -0.026 S 
ATOM     21  O   UNL     1      -0.517  -0.532   1.322  0.00  0.00    -0.174 OA
ATOM     22  O   UNL     1       0.902   1.465   1.301  0.00  0.00    -0.174 OA
BRANCH  20  23
ATOM     23  C   UNL     1      -1.170   1.418  -0.325  0.00  0.00    +0.187 C 
BRANCH  23  24
ATOM     24  C   UNL     1      -0.391   0.852  -1.513  0.00  0.00    +0.138 C 
BRANCH  24  25
ATOM     25  N   UNL     1      -1.021   1.286  -2.762  0.00  0.00    -0.356 N 
ATOM     26  C   UNL     1      -0.361   2.038  -3.598  0.00  0.00    +0.166 C 
ATOM     27  N   UNL     1       0.968   2.312  -3.374  0.00  0.00    -0.372 N 
ATOM     28  N   UNL     1      -0.993   2.557  -4.703  0.00  0.00    -0.372 N 
ATOM     29  H   UNL     1       1.525   2.946  -4.080  0.00  0.00    +0.159 HD
ATOM     30  H   UNL     1       1.474   1.897  -2.490  0.00  0.00    +0.159 HD
ATOM     31  H   UNL     1      -0.436   3.191  -5.408  0.00  0.00    +0.159 HD
ATOM     32  H   UNL     1      -2.056   2.338  -4.882  0.00  0.00    +0.159 HD
ATOM     33  H   UNL     1      -2.051   0.979  -2.995  0.00  0.00    +0.162 HD
ENDBRANCH  24  25
ENDBRANCH  23  24
ENDBRANCH  20  23
ENDBRANCH  19  20
ENDBRANCH   2  19
BRANCH   1  34
ATOM     34  C   UNL     1      -0.657   3.675   4.280  0.00  0.00    +0.186 C 
BRANCH  34  35
ATOM     35  O   UNL     1      -1.301   4.372   5.348  0.00  0.00    -0.391 OA
ATOM     36  H   UNL     1      -1.512   5.447   5.255  0.00  0.00    +0.210 HD
ENDBRANCH  34  35
ENDBRANCH   1  34
TORSDOF 13
