REMARK  Name = ZINC09264145
REMARK  3 active torsions:
REMARK  status: ('A' for Active; 'I' for Inactive)
REMARK    1  A    between atoms: C_10  and  C_21
REMARK    2  A    between atoms: N_12  and  C_13
REMARK    3  A    between atoms: C_13  and  C_14
REMARK                            x       y       z     vdW  Elec       q    Type
REMARK                         _______ _______ _______ _____ _____    ______ ____
ROOT
ATOM      1  C   UNL     1       3.928   0.184   2.758  0.00  0.00    +0.002 A 
ATOM      2  C   UNL     1       3.438  -1.096   2.576  0.00  0.00    +0.002 A 
ATOM      3  C   UNL     1       2.555  -1.370   1.546  0.00  0.00    +0.025 A 
ATOM      4  C   UNL     1       2.164  -0.346   0.692  0.00  0.00    +0.052 A 
ATOM      5  C   UNL     1       2.669   0.926   0.868  0.00  0.00    +0.052 A 
ATOM      6  C   UNL     1       3.546   1.204   1.904  0.00  0.00    +0.025 A 
ATOM      7  N   UNL     1       2.288   1.900  -0.051  0.00  0.00    -0.316 N 
ATOM      8  C   UNL     1       1.009   2.338  -0.185  0.00  0.00    +0.017 C 
ATOM      9  C   UNL     1      -0.060   1.523  -0.204  0.00  0.00    +0.037 C 
ATOM     10  C   UNL     1      -0.035   0.014  -0.147  0.00  0.00    +0.139 C 
ATOM     11  N   UNL     1       1.264  -0.587  -0.340  0.00  0.00    -0.313 N 
ATOM     12  C   UNL     1      -1.362   2.072  -0.277  0.00  0.00    +0.163 C 
ATOM     13  O   UNL     1      -2.315   1.317  -0.292  0.00  0.00    -0.292 OA
ATOM     14  C   UNL     1      -1.613   3.548  -0.341  0.00  0.00    +0.080 C 
ATOM     15  C   UNL     1      -0.456   4.279   0.350  0.00  0.00    +0.014 C 
ATOM     16  C   UNL     1       0.843   3.840  -0.325  0.00  0.00    +0.051 C 
ATOM     17  H   UNL     1       2.969   2.285  -0.624  0.00  0.00    +0.152 HD
ENDROOT
BRANCH  10  18
ATOM     18  C   UNL     1      -0.961  -0.516  -1.212  0.00  0.00    -0.022 A 
ATOM     19  C   UNL     1      -0.540  -0.573  -2.528  0.00  0.00    +0.007 A 
ATOM     20  C   UNL     1      -1.387  -1.063  -3.504  0.00  0.00    +0.020 A 
ATOM     21  C   UNL     1      -2.659  -1.488  -3.166  0.00  0.00    +0.041 A 
ATOM     22  C   UNL     1      -3.082  -1.425  -1.850  0.00  0.00    +0.020 A 
ATOM     23  C   UNL     1      -2.233  -0.939  -0.874  0.00  0.00    +0.007 A 
ATOM     24 CL   UNL     1      -3.726  -2.097  -4.392  0.00  0.00    -0.084 Cl
ENDBRANCH  10  18
BRANCH  11  25
ATOM     25  C   UNL     1       1.144  -2.026  -0.608  0.00  0.00    +0.141 C 
BRANCH  25  26
ATOM     26  C   UNL     1       2.412  -2.525  -1.252  0.00  0.00    -0.030 A 
ATOM     27  C   UNL     1       2.599  -2.379  -2.614  0.00  0.00    +0.006 A 
ATOM     28  C   UNL     1       3.764  -2.831  -3.204  0.00  0.00    +0.020 A 
ATOM     29  C   UNL     1       4.738  -3.440  -2.434  0.00  0.00    +0.041 A 
ATOM     30  C   UNL     1       4.548  -3.591  -1.072  0.00  0.00    +0.020 A 
ATOM     31  C   UNL     1       3.385  -3.134  -0.482  0.00  0.00    +0.006 A 
ATOM     32 CL   UNL     1       6.199  -4.013  -3.176  0.00  0.00    -0.084 Cl
ENDBRANCH  25  26
ENDBRANCH  11  25
TORSDOF 3
