REMARK  Name = ZINC65468061
REMARK  9 active torsions:
REMARK  status: ('A' for Active; 'I' for Inactive)
REMARK    1  A    between atoms: C_1  and  C_2
REMARK    2  A    between atoms: C_2  and  N_3
REMARK    3  A    between atoms: C_10  and  C_23
REMARK    4  A    between atoms: C_10  and  C_25
REMARK    5  A    between atoms: C_12  and  C_14
REMARK    6  A    between atoms: C_17  and  O_21
REMARK    7  A    between atoms: C_18  and  O_20
REMARK    8  A    between atoms: O_21  and  C_22
REMARK    9  A    between atoms: C_23  and  O_24
REMARK                            x       y       z     vdW  Elec       q    Type
REMARK                         _______ _______ _______ _____ _____    ______ ____
ROOT
ATOM      1  N   UNL     1      -1.435  -0.347  -0.144  0.00  0.00    +0.380 N 
ATOM      2  C   UNL     1      -2.106  -0.135  -1.451  0.00  0.00    -0.073 C 
ATOM      3  C   UNL     1      -3.234  -1.193  -1.454  0.00  0.00    -0.003 C 
ATOM      4  C   UNL     1      -2.573  -2.408  -0.741  0.00  0.00    +0.002 C 
ATOM      5  C   UNL     1      -1.401  -1.811   0.058  0.00  0.00    -0.073 C 
ATOM      6  C   UNL     1      -2.025  -3.289  -1.877  0.00  0.00    +0.070 C 
ATOM      7  N   UNL     1      -2.266  -2.567  -3.144  0.00  0.00    -0.298 NA
ATOM      8  C   UNL     1      -3.450  -1.682  -2.904  0.00  0.00    +0.086 C 
ATOM      9  H   UNL     1      -1.462  -2.014  -3.404  0.00  0.00    +0.123 HD
ATOM     10  H   UNL     1      -1.962   0.094   0.595  0.00  0.00    -0.082 HD
ENDROOT
BRANCH   8  11
ATOM     11  C   UNL     1      -3.483  -0.515  -3.857  0.00  0.00    -0.027 A 
ATOM     12  C   UNL     1      -2.305  -0.024  -4.388  0.00  0.00    +0.009 A 
ATOM     13  C   UNL     1      -2.330   1.046  -5.263  0.00  0.00    +0.050 A 
ATOM     14  C   UNL     1      -3.539   1.629  -5.609  0.00  0.00    +0.161 A 
ATOM     15  C   UNL     1      -4.725   1.135  -5.076  0.00  0.00    +0.159 A 
ATOM     16  C   UNL     1      -4.693   0.059  -4.203  0.00  0.00    +0.054 A 
BRANCH  15  17
ATOM     17  O   UNL     1      -5.913   1.703  -5.413  0.00  0.00    -0.503 OA
ATOM     18  H   UNL     1      -6.331   1.310  -6.191  0.00  0.00    +0.292 HD
ENDBRANCH  15  17
BRANCH  14  19
ATOM     19  O   UNL     1      -3.565   2.682  -6.469  0.00  0.00    -0.491 OA
ATOM     20  C   UNL     1      -2.309   3.137  -6.977  0.00  0.00    +0.277 C 
ENDBRANCH  14  19
ENDBRANCH   8  11
BRANCH   6  21
ATOM     21  C   UNL     1      -2.746  -4.612  -1.895  0.00  0.00    -0.025 A 
ATOM     22  C   UNL     1      -3.247  -5.142  -0.721  0.00  0.00    +0.005 A 
ATOM     23  C   UNL     1      -3.909  -6.355  -0.738  0.00  0.00    +0.000 A 
ATOM     24  C   UNL     1      -4.071  -7.038  -1.929  0.00  0.00    +0.000 A 
ATOM     25  C   UNL     1      -3.571  -6.507  -3.103  0.00  0.00    +0.000 A 
ATOM     26  C   UNL     1      -2.913  -5.292  -3.087  0.00  0.00    +0.005 A 
ENDBRANCH   6  21
BRANCH   1  28
ATOM     27  C   UNL     1      -0.124   1.718  -0.267  0.00  0.00    -0.017 C 
ATOM     28  C   UNL     1      -0.069   0.191  -0.183  0.00  0.00    -0.082 C 
ENDBRANCH   1  28
BRANCH   6  29
ATOM     29  C   UNL     1      -0.523  -3.513  -1.683  0.00  0.00    +0.183 C 
BRANCH  29  30
ATOM     30  O   UNL     1      -0.294  -4.134  -0.416  0.00  0.00    -0.393 OA
ATOM     31  H   UNL     1       0.638  -4.306  -0.226  0.00  0.00    +0.209 HD
ENDBRANCH  29  30
ENDBRANCH   6  29
TORSDOF 7
