REMARK  Name = ZINC39685769
REMARK  11 active torsions:
REMARK  status: ('A' for Active; 'I' for Inactive)
REMARK    1  A    between atoms: C_1  and  C_2
REMARK    2  A    between atoms: C_2  and  C_3
REMARK    3  A    between atoms: C_2  and  C_4
REMARK    4  A    between atoms: C_4  and  C_6
REMARK    5  A    between atoms: C_4  and  N_13
REMARK    6  A    between atoms: N_8  and  C_9
REMARK    7  A    between atoms: C_9  and  C_10
REMARK    8  A    between atoms: C_9  and  C_11
REMARK    9  A    between atoms: C_9  and  C_12
REMARK   10  A    between atoms: C_14  and  C_16
REMARK   11  A    between atoms: C_27  and  C_29
REMARK                            x       y       z     vdW  Elec       q    Type
REMARK                         _______ _______ _______ _____ _____    ______ ____
ROOT
ATOM      1  C   UNL     1       0.570  -4.337   1.816  0.00  0.00    +0.100 C 
ATOM      2  C   UNL     1       1.777  -4.111   0.879  0.00  0.00    +0.121 C 
ATOM      3  N   UNL     1       2.876  -3.688   1.780  0.00  0.00    -0.296 N 
ATOM      4  C   UNL     1       2.712  -4.538   2.983  0.00  0.00    +0.115 C 
ATOM      5  C   UNL     1       1.188  -4.621   3.195  0.00  0.00    -0.004 C 
ATOM      6  C   UNL     1       0.738  -3.567   4.202  0.00  0.00    -0.010 C 
ATOM      7  C   UNL     1       1.319  -3.902   5.579  0.00  0.00    -0.082 C 
ATOM      8  N   UNL     1       0.860  -5.233   5.995  0.00  0.00    +0.379 N 
ATOM      9  C   UNL     1       1.375  -6.252   5.071  0.00  0.00    -0.082 C 
ATOM     10  C   UNL     1       0.796  -6.016   3.674  0.00  0.00    -0.010 C 
ATOM     11  C   UNL     1       3.812  -2.745   1.555  0.00  0.00    +0.247 C 
ATOM     12  O   UNL     1       3.747  -2.049   0.561  0.00  0.00    -0.270 OA
ATOM     13  H   UNL     1       1.195  -5.426   6.927  0.00  0.00    -0.086 HD
ATOM     14  H   UNL     1      -0.148  -5.256   5.990  0.00  0.00    -0.086 HD
ENDROOT
BRANCH  11  15
ATOM     15  C   UNL     1       4.918  -2.557   2.518  0.00  0.00    +0.037 A 
ATOM     16  C   UNL     1       5.283  -3.595   3.377  0.00  0.00    +0.013 A 
ATOM     17  C   UNL     1       6.316  -3.413   4.273  0.00  0.00    +0.001 A 
ATOM     18  C   UNL     1       6.990  -2.206   4.320  0.00  0.00    +0.000 A 
ATOM     19  C   UNL     1       6.634  -1.174   3.471  0.00  0.00    +0.001 A 
ATOM     20  C   UNL     1       5.606  -1.344   2.567  0.00  0.00    +0.013 A 
ENDBRANCH  11  15
BRANCH   1  22
ATOM     21  N   UNL     1      -1.603  -3.207   2.162  0.00  0.00    -0.303 N 
ATOM     22  C   UNL     1      -0.291  -3.102   1.870  0.00  0.00    +0.219 C 
ATOM     23  O   UNL     1       0.196  -2.013   1.652  0.00  0.00    -0.275 OA
ATOM     24  H   UNL     1      -1.993  -4.078   2.336  0.00  0.00    +0.149 HD
BRANCH  21  25
ATOM     25  C   UNL     1      -2.440  -2.006   2.215  0.00  0.00    +0.161 C 
BRANCH  25  26
ATOM     26  C   UNL     1      -3.625  -2.258   3.111  0.00  0.00    +0.234 C 
ATOM     27  O   UNL     1      -3.973  -3.395   3.351  0.00  0.00    -0.274 OA
ATOM     28  N   UNL     1      -4.298  -1.220   3.647  0.00  0.00    -0.309 N 
ATOM     29  H   UNL     1      -3.979  -0.314   3.512  0.00  0.00    +0.149 HD
BRANCH  28  30
ATOM     30  C   UNL     1      -5.510  -1.461   4.434  0.00  0.00    +0.026 C 
ATOM     31  C   UNL     1      -5.170  -2.343   5.637  0.00  0.00    +0.031 C 
ATOM     32  C   UNL     1      -6.074  -0.126   4.922  0.00  0.00    +0.031 C 
ATOM     33  C   UNL     1      -6.551  -2.167   3.562  0.00  0.00    +0.031 C 
ENDBRANCH  28  30
ENDBRANCH  25  26
BRANCH  25  35
ATOM     34  C   UNL     1      -1.736  -1.281  -0.071  0.00  0.00    +0.009 C 
ATOM     35  C   UNL     1      -2.930  -1.663   0.806  0.00  0.00    +0.012 C 
ATOM     36  C   UNL     1      -3.639  -2.877   0.203  0.00  0.00    +0.009 C 
ENDBRANCH  25  35
ENDBRANCH  21  25
ENDBRANCH   1  22
TORSDOF 6
