REMARK  Name = ZINC34672989
REMARK  7 active torsions:
REMARK  status: ('A' for Active; 'I' for Inactive)
REMARK    1  A    between atoms: C_1  and  C_2
REMARK    2  A    between atoms: C_2  and  C_3
REMARK    3  A    between atoms: C_3  and  C_4
REMARK    4  A    between atoms: C_4  and  C_6
REMARK    5  A    between atoms: C_4  and  N_18
REMARK    6  A    between atoms: C_9  and  C_11
REMARK    7  A    between atoms: N_18  and  C_19
REMARK                            x       y       z     vdW  Elec       q    Type
REMARK                         _______ _______ _______ _____ _____    ______ ____
ROOT
ATOM      1  C   UNL     1       1.173  -2.424  -2.406  0.00  0.00    -0.024 A 
ATOM      2  C   UNL     1       0.504  -2.957  -3.460  0.00  0.00    +0.010 A 
ATOM      3  C   UNL     1       1.193  -3.240  -4.619  0.00  0.00    +0.016 A 
ATOM      4  C   UNL     1       2.535  -2.974  -4.668  0.00  0.00    +0.020 A 
ATOM      5  S   UNL     1       2.836  -2.300  -3.043  0.00  0.00    -0.095 S 
ENDROOT
BRANCH   4   6
ATOM      6  C   UNL     1       3.486  -3.184  -5.780  0.00  0.00    -0.011 A 
ATOM      7  C   UNL     1       3.042  -3.721  -6.990  0.00  0.00    +0.010 A 
ATOM      8  C   UNL     1       3.935  -3.915  -8.024  0.00  0.00    +0.015 A 
ATOM      9  C   UNL     1       5.268  -3.578  -7.863  0.00  0.00    +0.013 A 
ATOM     10  C   UNL     1       5.714  -3.046  -6.666  0.00  0.00    +0.015 A 
ATOM     11  C   UNL     1       4.831  -2.842  -5.627  0.00  0.00    +0.010 A 
ATOM     12  I   UNL     1       6.616  -3.877  -9.439  0.00  0.00    -0.044 I 
ENDBRANCH   4   6
BRANCH   1  13
ATOM     13  C   UNL     1       0.647  -2.033  -1.049  0.00  0.00    -0.034 C 
BRANCH  13  14
ATOM     14  N   UNL     1       1.625  -2.406  -0.018  0.00  0.00    +0.382 N 
ATOM     15  C   UNL     1       1.750  -3.868   0.032  0.00  0.00    -0.100 C 
ATOM     16  H   UNL     1       2.520  -1.998  -0.241  0.00  0.00    -0.085 HD
ATOM     17  H   UNL     1       1.314  -2.064   0.879  0.00  0.00    -0.085 HD
ENDBRANCH  13  14
BRANCH  13  18
ATOM     18  C   UNL     1       0.414  -0.521  -1.009  0.00  0.00    -0.011 C 
BRANCH  18  20
ATOM     19  C   UNL     1      -0.592   1.348   0.309  0.00  0.00    +0.004 C 
ATOM     20  C   UNL     1      -0.245  -0.142   0.319  0.00  0.00    -0.005 C 
ENDBRANCH  18  20
ENDBRANCH  13  18
ENDBRANCH   1  13
TORSDOF 5
