REMARK  Name = ZINC05369819
REMARK  6 active torsions:
REMARK  status: ('A' for Active; 'I' for Inactive)
REMARK    1  A    between atoms: C_4  and  C_7
REMARK    2  A    between atoms: N_8  and  N_9
REMARK    3  A    between atoms: C_10  and  S_12
REMARK    4  A    between atoms: S_12  and  C_13
REMARK    5  A    between atoms: N_18  and  C_21
REMARK    6  A    between atoms: C_25  and  N_27
REMARK                            x       y       z     vdW  Elec       q    Type
REMARK                         _______ _______ _______ _____ _____    ______ ____
ROOT
ATOM      1  C   UNL     1       6.132  -6.539  -0.020  0.00  0.00    +0.149 C 
ATOM      2  C   UNL     1       7.178  -7.648  -0.258  0.00  0.00    +0.120 C 
ATOM      3  C   UNL     1       7.084  -8.498   0.991  0.00  0.00    +0.228 C 
ATOM      4  O   UNL     1       7.745  -9.489   1.217  0.00  0.00    -0.275 OA
ATOM      5  N   UNL     1       6.157  -7.981   1.806  0.00  0.00    -0.209 N 
ATOM      6  C   UNL     1       5.555  -6.877   1.337  0.00  0.00    +0.240 C 
ATOM      7  O   UNL     1       4.689  -6.249   1.907  0.00  0.00    -0.274 OA
ENDROOT
BRANCH   5   8
ATOM      8  C   UNL     1       5.839  -8.547   3.049  0.00  0.00    +0.046 A 
ATOM      9  C   UNL     1       4.593  -9.126   3.251  0.00  0.00    +0.024 A 
ATOM     10  C   UNL     1       4.283  -9.683   4.476  0.00  0.00    +0.004 A 
ATOM     11  C   UNL     1       5.211  -9.665   5.500  0.00  0.00    +0.033 A 
ATOM     12  C   UNL     1       6.452  -9.089   5.302  0.00  0.00    +0.128 A 
ATOM     13  C   UNL     1       6.771  -8.536   4.077  0.00  0.00    +0.056 A 
BRANCH  12  14
ATOM     14  N   UNL     1       7.443  -9.071   6.402  0.00  0.00    +0.056 N 
ATOM     15  O   UNL     1       7.167  -9.560   7.472  0.00  0.00    -0.126 OA
ATOM     16  O   UNL     1       8.529  -8.568   6.229  0.00  0.00    -0.126 OA
ENDBRANCH  12  14
ENDBRANCH   5   8
BRANCH   1  17
ATOM     17  S   UNL     1       6.927  -4.909   0.012  0.00  0.00    -0.078 S 
BRANCH  17  19
ATOM     18  N   UNL     1       5.826  -2.430   0.270  0.00  0.00    -0.217 N 
ATOM     19  C   UNL     1       5.585  -3.784   0.205  0.00  0.00    +0.146 C 
ATOM     20  N   UNL     1       4.363  -4.234   0.288  0.00  0.00    -0.380 N 
ATOM     21  H   UNL     1       6.734  -2.095   0.209  0.00  0.00    +0.176 HD
ATOM     22  H   UNL     1       4.194  -5.188   0.242  0.00  0.00    +0.158 HD
ATOM     23  H   UNL     1       3.624  -3.615   0.394  0.00  0.00    +0.158 HD
BRANCH  18  25
ATOM     24  C   UNL     1       4.985  -0.259   0.485  0.00  0.00    +0.138 C 
ATOM     25  N   UNL     1       4.758  -1.535   0.424  0.00  0.00    -0.188 NA
BRANCH  24  29
ATOM     26  C   UNL     1       1.752   2.451   0.951  0.00  0.00    +0.000 A 
ATOM     27  C   UNL     1       3.046   2.932   0.865  0.00  0.00    +0.001 A 
ATOM     28  C   UNL     1       4.102   2.057   0.714  0.00  0.00    +0.009 A 
ATOM     29  C   UNL     1       3.862   0.682   0.647  0.00  0.00    -0.005 A 
ATOM     30  C   UNL     1       2.552   0.204   0.735  0.00  0.00    +0.009 A 
ATOM     31  C   UNL     1       1.506   1.091   0.886  0.00  0.00    +0.001 A 
ENDBRANCH  24  29
ENDBRANCH  18  25
ENDBRANCH  17  19
ENDBRANCH   1  17
TORSDOF 6
