REMARK  Name = ZINC06137146
REMARK  11 active torsions:
REMARK  status: ('A' for Active; 'I' for Inactive)
REMARK    1  A    between atoms: C_1  and  C_2
REMARK    2  A    between atoms: C_3  and  C_25
REMARK    3  A    between atoms: C_4  and  C_16
REMARK    4  A    between atoms: C_10  and  C_14
REMARK    5  A    between atoms: C_10  and  C_15
REMARK    6  A    between atoms: C_19  and  O_24
REMARK    7  A    between atoms: C_20  and  O_22
REMARK    8  A    between atoms: O_22  and  C_23
REMARK    9  A    between atoms: N_27  and  C_28
REMARK   10  A    between atoms: C_33  and  O_34
REMARK   11  A    between atoms: O_34  and  C_35
REMARK                            x       y       z     vdW  Elec       q    Type
REMARK                         _______ _______ _______ _____ _____    ______ ____
ROOT
ATOM      1  C   UNL     1      -3.409   3.251  -0.344  0.00  0.00    +0.061 C 
ATOM      2  C   UNL     1      -3.511   1.750  -0.247  0.00  0.00    +0.014 C 
ATOM      3  C   UNL     1      -2.400   1.016  -0.072  0.00  0.00    +0.043 C 
ATOM      4  C   UNL     1      -2.462  -0.480   0.030  0.00  0.00    +0.090 C 
ATOM      5  C   UNL     1      -3.772  -1.005  -0.495  0.00  0.00    +0.024 C 
ATOM      6  C   UNL     1      -4.832  -0.184  -0.655  0.00  0.00    +0.016 C 
ATOM      7  N   UNL     1      -4.734   1.145  -0.340  0.00  0.00    -0.321 N 
ATOM      8  C   UNL     1      -6.145  -0.704  -1.185  0.00  0.00    +0.058 C 
ATOM      9  C   UNL     1      -6.322  -2.168  -0.776  0.00  0.00    -0.023 C 
ATOM     10  C   UNL     1      -5.140  -2.972  -1.326  0.00  0.00    +0.086 C 
ATOM     11  C   UNL     1      -3.859  -2.372  -0.815  0.00  0.00    +0.162 C 
ATOM     12  O   UNL     1      -2.881  -3.080  -0.676  0.00  0.00    -0.292 OA
ATOM     13  C   UNL     1      -6.350  -2.274   0.750  0.00  0.00    +0.011 C 
ATOM     14  C   UNL     1      -7.631  -2.709  -1.353  0.00  0.00    +0.011 C 
ATOM     15  H   UNL     1      -5.650   1.726  -0.161  0.00  0.00    +0.152 HD
ENDROOT
BRANCH   4  16
ATOM     16  C   UNL     1      -2.317  -0.884   1.474  0.00  0.00    -0.032 A 
ATOM     17  C   UNL     1      -3.230  -0.437   2.411  0.00  0.00    +0.008 A 
ATOM     18  C   UNL     1      -3.104  -0.809   3.736  0.00  0.00    +0.049 A 
ATOM     19  C   UNL     1      -2.054  -1.623   4.130  0.00  0.00    +0.158 A 
ATOM     20  C   UNL     1      -1.131  -2.069   3.188  0.00  0.00    +0.162 A 
ATOM     21  C   UNL     1      -1.267  -1.696   1.861  0.00  0.00    +0.054 A 
BRANCH  20  22
ATOM     22  O   UNL     1      -0.099  -2.867   3.570  0.00  0.00    -0.491 OA
ATOM     23  C   UNL     1       0.809  -3.286   2.549  0.00  0.00    +0.277 C 
ENDBRANCH  20  22
BRANCH  19  24
ATOM     24  O   UNL     1      -1.925  -1.986   5.434  0.00  0.00    -0.503 OA
ATOM     25  H   UNL     1      -1.091  -2.632   5.746  0.00  0.00    +0.292 HD
ENDBRANCH  19  24
ENDBRANCH   4  16
BRANCH   3  26
ATOM     26  C   UNL     1      -1.144   1.666   0.013  0.00  0.00    +0.247 C 
ATOM     27  O   UNL     1      -0.448   1.778  -0.980  0.00  0.00    -0.270 OA
ATOM     28  N   UNL     1      -0.720   2.161   1.192  0.00  0.00    -0.279 N 
ATOM     29  H   UNL     1      -1.305   1.982   2.106  0.00  0.00    +0.155 HD
BRANCH  28  30
ATOM     30  C   UNL     1       0.466   2.904   1.254  0.00  0.00    +0.076 A 
ATOM     31  C   UNL     1       0.932   3.566   0.127  0.00  0.00    +0.027 A 
ATOM     32  C   UNL     1       2.099   4.303   0.192  0.00  0.00    +0.002 A 
ATOM     33  C   UNL     1       2.811   4.374   1.375  0.00  0.00    +0.004 A 
ATOM     34  C   UNL     1       2.357   3.712   2.501  0.00  0.00    +0.047 A 
ATOM     35  C   UNL     1       1.184   2.975   2.446  0.00  0.00    +0.141 A 
BRANCH  35  36
ATOM     36  O   UNL     1       0.736   2.324   3.552  0.00  0.00    -0.493 OA
ATOM     37  C   UNL     1       1.524   2.442   4.738  0.00  0.00    +0.277 C 
ENDBRANCH  35  36
ENDBRANCH  28  30
ENDBRANCH   3  26
TORSDOF 6
