REMARK  Name = ZINC21916657
REMARK  15 active torsions:
REMARK  status: ('A' for Active; 'I' for Inactive)
REMARK    1  A    between atoms: C_1  and  C_2
REMARK    2  A    between atoms: C_2  and  C_3
REMARK    3  A    between atoms: C_2  and  C_4
REMARK    4  A    between atoms: C_4  and  N_5
REMARK    5  A    between atoms: C_6  and  N_37
REMARK    6  A    between atoms: C_7  and  N_14
REMARK    7  A    between atoms: N_14  and  C_15
REMARK    8  A    between atoms: C_15  and  C_16
REMARK    9  A    between atoms: C_16  and  C_17
REMARK   10  A    between atoms: C_16  and  C_18
REMARK   11  A    between atoms: C_19  and  C_21
REMARK   12  A    between atoms: C_21  and  N_22
REMARK   13  A    between atoms: N_22  and  C_23
REMARK   14  A    between atoms: N_22  and  C_24
REMARK   15  A    between atoms: C_24  and  C_25
REMARK                            x       y       z     vdW  Elec       q    Type
REMARK                         _______ _______ _______ _____ _____    ______ ____
ROOT
ATOM      1  N   UNL     1      -1.434  -4.654  -2.889  0.00  0.00    -0.263 N 
ATOM      2  C   UNL     1      -1.345  -4.008  -4.071  0.00  0.00    +0.234 C 
ATOM      3  O   UNL     1      -1.375  -2.796  -4.103  0.00  0.00    -0.274 OA
ENDROOT
BRANCH   1   6
ATOM      4  N   UNL     1      -0.516  -3.360   0.425  0.00  0.00    -0.280 N 
ATOM      5  C   UNL     1      -0.466  -4.090  -0.740  0.00  0.00    +0.127 A 
ATOM      6  C   UNL     1      -1.457  -3.920  -1.684  0.00  0.00    +0.140 A 
ATOM      7  C   UNL     1      -2.492  -3.002  -1.425  0.00  0.00    +0.277 A 
ATOM      8  O   UNL     1      -3.381  -2.833  -2.243  0.00  0.00    -0.266 OA
ATOM      9  N   UNL     1      -2.494  -2.312  -0.268  0.00  0.00    -0.273 N 
ATOM     10  H   UNL     1      -3.207  -1.679  -0.088  0.00  0.00    +0.173 HD
ATOM     11  C   UNL     1      -1.522  -2.495   0.643  0.00  0.00    +0.331 A 
ATOM     12  O   UNL     1      -1.552  -1.863   1.682  0.00  0.00    -0.246 OA
BRANCH   5  13
ATOM     13  N   UNL     1       0.560  -4.978  -0.960  0.00  0.00    -0.343 N 
ATOM     14  H   UNL     1       1.289  -5.044  -0.324  0.00  0.00    +0.144 HD
ATOM     15  H   UNL     1       0.554  -5.538  -1.752  0.00  0.00    +0.144 HD
ENDBRANCH   5  13
BRANCH   4  16
ATOM     16  C   UNL     1       0.530  -3.531   1.437  0.00  0.00    +0.131 C 
BRANCH  16  18
ATOM     17  C   UNL     1       1.269  -4.905   3.388  0.00  0.00    +0.009 C 
ATOM     18  C   UNL     1       0.125  -4.641   2.408  0.00  0.00    +0.003 C 
ATOM     19  C   UNL     1      -1.122  -4.211   3.183  0.00  0.00    +0.009 C 
ENDBRANCH  16  18
ENDBRANCH   4  16
ENDBRANCH   1   6
BRANCH   1  20
ATOM     20  C   UNL     1      -1.506  -6.117  -2.858  0.00  0.00    +0.117 C 
BRANCH  20  21
ATOM     21  C   UNL     1      -2.957  -6.560  -3.055  0.00  0.00    +0.001 C 
ATOM     22  C   UNL     1      -3.012  -8.084  -3.177  0.00  0.00    +0.009 C 
ATOM     23  C   UNL     1      -3.794  -6.115  -1.854  0.00  0.00    +0.009 C 
ENDBRANCH  20  21
ENDBRANCH   1  20
BRANCH   2  24
ATOM     24  C   UNL     1      -1.208  -4.793  -5.350  0.00  0.00    +0.181 C 
BRANCH  24  25
ATOM     25  N   UNL     1      -1.130  -3.866  -6.487  0.00  0.00    -0.290 NA
ATOM     26  C   UNL     1      -2.394  -3.136  -6.658  0.00  0.00    +0.105 C 
BRANCH  25  27
ATOM     27  C   UNL     1      -0.760  -4.575  -7.720  0.00  0.00    +0.158 C 
BRANCH  27  28
ATOM     28  C   UNL     1      -0.452  -3.572  -8.802  0.00  0.00    +0.124 A 
ATOM     29  N   UNL     1      -0.092  -4.037 -10.027  0.00  0.00    -0.309 N 
ATOM     30  H   UNL     1      -0.041  -4.993 -10.182  0.00  0.00    +0.170 HD
ATOM     31  C   UNL     1       0.195  -3.178 -11.033  0.00  0.00    +0.259 A 
ATOM     32  O   UNL     1       0.518  -3.581 -12.135  0.00  0.00    -0.267 OA
ATOM     33  C   UNL     1       0.100  -1.740 -10.742  0.00  0.00    +0.065 A 
ATOM     34  C   UNL     1       0.375  -0.773 -11.707  0.00  0.00    +0.015 A 
ATOM     35  C   UNL     1       0.271   0.561 -11.380  0.00  0.00    +0.001 A 
ATOM     36  C   UNL     1      -0.104   0.948 -10.100  0.00  0.00    +0.002 A 
ATOM     37  C   UNL     1      -0.379   0.008  -9.132  0.00  0.00    +0.028 A 
ATOM     38  C   UNL     1      -0.281  -1.350  -9.439  0.00  0.00    +0.078 A 
ATOM     39  N   UNL     1      -0.548  -2.309  -8.517  0.00  0.00    -0.232 NA
ENDBRANCH  27  28
ENDBRANCH  25  27
ENDBRANCH  24  25
ENDBRANCH   2  24
TORSDOF 10
