REMARK  Name = ZINC39726916
REMARK  7 active torsions:
REMARK  status: ('A' for Active; 'I' for Inactive)
REMARK    1  A    between atoms: C_1  and  C_2
REMARK    2  A    between atoms: N_10  and  N_14
REMARK    3  A    between atoms: C_15  and  C_17
REMARK    4  A    between atoms: C_17  and  S_18
REMARK    5  A    between atoms: S_18  and  C_19
REMARK    6  A    between atoms: C_23  and  C_28
REMARK    7  A    between atoms: N_24  and  C_25
REMARK                            x       y       z     vdW  Elec       q    Type
REMARK                         _______ _______ _______ _____ _____    ______ ____
ROOT
ATOM      1  S   UNL     1       7.854  -4.529   2.762  0.00  0.00    -0.109 S 
ENDROOT
BRANCH   1   2
ATOM      2  C   UNL     1       9.635  -4.276   2.532  0.00  0.00    +0.237 C 
ATOM      3  N   UNL     1      10.167  -5.228   1.543  0.00  0.00    -0.237 N 
ATOM      4  N   UNL     1      10.678  -4.462   0.489  0.00  0.00    -0.169 NA
ATOM      5  C   UNL     1      10.525  -3.184   0.713  0.00  0.00    +0.147 C 
ATOM      6  N   UNL     1       9.896  -2.953   1.942  0.00  0.00    -0.282 N 
ATOM      7  H   UNL     1      10.164  -6.196   1.609  0.00  0.00    +0.171 HD
BRANCH   5   8
ATOM      8  C   UNL     1      10.940  -2.172  -0.166  0.00  0.00    +0.022 C 
ATOM      9  C   UNL     1      11.481  -2.331  -1.442  0.00  0.00    +0.006 A 
ATOM     10  C   UNL     1      11.769  -3.474  -2.219  0.00  0.00    +0.010 A 
ATOM     11  C   UNL     1      12.305  -3.328  -3.458  0.00  0.00    +0.001 A 
ATOM     12  C   UNL     1      12.582  -2.067  -3.991  0.00  0.00    +0.002 A 
ATOM     13  C   UNL     1      12.331  -0.928  -3.301  0.00  0.00    +0.026 A 
ATOM     14  C   UNL     1      11.771  -1.000  -1.999  0.00  0.00    +0.043 A 
ATOM     15  N   UNL     1      11.439  -0.058  -1.139  0.00  0.00    -0.380 N 
ATOM     16  C   UNL     1      10.889  -0.678   0.071  0.00  0.00    +0.152 C 
ATOM     17  H   UNL     1      11.538   0.896  -1.285  0.00  0.00    +0.160 HD
ENDBRANCH   5   8
BRANCH   6  18
ATOM     18  C   UNL     1       9.561  -1.652   2.527  0.00  0.00    +0.078 C 
ATOM     19  C   UNL     1       8.955  -1.644   3.932  0.00  0.00    +0.024 C 
ATOM     20  C   UNL     1       8.079  -1.324   2.719  0.00  0.00    +0.024 C 
ENDBRANCH   6  18
ENDBRANCH   1   2
BRANCH   1  21
ATOM     21  C   UNL     1       7.165  -4.340   1.095  0.00  0.00    +0.169 C 
BRANCH  21  23
ATOM     22  N   UNL     1       4.941  -4.433   0.015  0.00  0.00    -0.223 N 
ATOM     23  C   UNL     1       5.670  -4.529   1.144  0.00  0.00    +0.240 C 
ATOM     24  O   UNL     1       5.124  -4.767   2.201  0.00  0.00    -0.273 OA
ATOM     25  H   UNL     1       5.378  -4.243  -0.830  0.00  0.00    +0.174 HD
BRANCH  22  35
ATOM     26  C   UNL     1      -0.852  -0.524  -0.281  0.00  0.00    +0.007 C 
ATOM     27  C   UNL     1      -0.562  -2.019  -0.130  0.00  0.00    -0.014 C 
ATOM     28  C   UNL     1       0.218  -2.513  -1.350  0.00  0.00    +0.006 C 
ATOM     29  C   UNL     1       0.497  -4.011  -1.204  0.00  0.00    +0.035 C 
ATOM     30  C   UNL     1       1.300  -4.259   0.069  0.00  0.00    +0.114 C 
ATOM     31  C   UNL     1       0.545  -3.749   1.292  0.00  0.00    +0.035 C 
ATOM     32  C   UNL     1       0.267  -2.252   1.135  0.00  0.00    +0.006 C 
ATOM     33  C   UNL     1       2.657  -3.602  -0.027  0.00  0.00    +0.263 C 
ATOM     34  O   UNL     1       2.893  -2.420  -0.155  0.00  0.00    -0.271 OA
ATOM     35  N   UNL     1       3.552  -4.608   0.061  0.00  0.00    -0.137 N 
ATOM     36  C   UNL     1       2.947  -5.795   0.197  0.00  0.00    +0.326 C 
ATOM     37  O   UNL     1       3.543  -6.850   0.296  0.00  0.00    -0.251 OA
ATOM     38  N   UNL     1       1.605  -5.689   0.212  0.00  0.00    -0.284 N 
ATOM     39  H   UNL     1       0.966  -6.413   0.300  0.00  0.00    +0.151 HD
ENDBRANCH  22  35
ENDBRANCH  21  23
ENDBRANCH   1  21
TORSDOF 6
