REMARK  Name = ZINC40475625
REMARK  1 active torsions:
REMARK  status: ('A' for Active; 'I' for Inactive)
REMARK    1  A    between atoms: C_3  and  C_6
REMARK                            x       y       z     vdW  Elec       q    Type
REMARK                         _______ _______ _______ _____ _____    ______ ____
ROOT
ATOM      1  C   UNL     1       3.761   1.845  -0.024  0.00  0.00    +0.079 C 
ATOM      2  C   UNL     1       4.416   1.402   1.221  0.00  0.00    +0.033 A 
ATOM      3  C   UNL     1       5.684   0.948   1.421  0.00  0.00    +0.110 A 
ATOM      4  N   UNL     1       6.001   0.687   2.689  0.00  0.00    -0.225 NA
ATOM      5  C   UNL     1       5.125   0.814   3.662  0.00  0.00    +0.147 A 
ATOM      6  S   UNL     1       5.349   0.512   5.383  0.00  0.00    -0.023 SA
ATOM      7  S   UNL     1       3.738   1.337   2.864  0.00  0.00    -0.063 S 
ATOM      8  S   UNL     1       6.769   0.709   0.037  0.00  0.00    -0.091 S 
ATOM      9  C   UNL     1       5.941   1.521  -1.320  0.00  0.00    +0.153 C 
ATOM     10  C   UNL     1       4.414   1.400  -1.331  0.00  0.00    +0.112 C 
ATOM     11  C   UNL     1       4.120   2.577  -2.288  0.00  0.00    +0.245 C 
ATOM     12  O   UNL     1       3.036   2.712  -3.067  0.00  0.00    -0.273 OA
ATOM     13  N   UNL     1       5.117   3.421  -2.202  0.00  0.00    -0.145 NA
ATOM     14  C   UNL     1       6.142   3.001  -1.443  0.00  0.00    +0.253 C 
ATOM     15  O   UNL     1       7.037   3.672  -0.971  0.00  0.00    -0.272 OA
ENDROOT
BRANCH   1  18
ATOM     16  C   UNL     1      -0.016   1.351   0.009  0.00  0.00    +0.008 A 
ATOM     17  C   UNL     1       1.183   2.038   0.002  0.00  0.00    +0.012 A 
ATOM     18  C   UNL     1       2.343   1.336  -0.013  0.00  0.00    -0.001 A 
ATOM     19  S   UNL     1       1.754  -0.349  -0.017  0.00  0.00    -0.101 S 
ATOM     20  C   UNL     1       0.002  -0.004   0.002  0.00  0.00    +0.045 A 
ENDBRANCH   1  18
TORSDOF 1
