REMARK  Name = ZINC35094597
REMARK  13 active torsions:
REMARK  status: ('A' for Active; 'I' for Inactive)
REMARK    1  A    between atoms: C_1  and  C_2
REMARK    2  A    between atoms: C_2  and  O_3
REMARK    3  A    between atoms: O_3  and  C_4
REMARK    4  A    between atoms: C_9  and  N_10
REMARK    5  A    between atoms: C_20  and  C_21
REMARK    6  A    between atoms: C_21  and  C_23
REMARK    7  A    between atoms: C_21  and  N_24
REMARK    8  A    between atoms: N_24  and  C_25
REMARK    9  A    between atoms: C_25  and  C_26
REMARK   10  A    between atoms: C_26  and  N_27
REMARK   11  A    between atoms: N_27  and  C_28
REMARK   12  A    between atoms: N_27  and  C_29
REMARK   13  A    between atoms: C_30  and  C_32
REMARK                            x       y       z     vdW  Elec       q    Type
REMARK                         _______ _______ _______ _____ _____    ______ ____
ROOT
ATOM      1  N   UNL     1       0.661  -3.047  -7.195  0.00  0.00    -0.259 N 
ATOM      2  C   UNL     1       1.833  -2.823  -7.834  0.00  0.00    +0.266 A 
ATOM      3  O   UNL     1       2.277  -3.622  -8.638  0.00  0.00    -0.267 OA
ATOM      4  C   UNL     1       2.549  -1.578  -7.519  0.00  0.00    +0.065 A 
ATOM      5  C   UNL     1       3.762  -1.254  -8.123  0.00  0.00    +0.015 A 
ATOM      6  C   UNL     1       4.390  -0.073  -7.791  0.00  0.00    +0.001 A 
ATOM      7  C   UNL     1       3.824   0.792  -6.864  0.00  0.00    +0.002 A 
ATOM      8  C   UNL     1       2.627   0.490  -6.256  0.00  0.00    +0.028 A 
ATOM      9  C   UNL     1       1.970  -0.701  -6.575  0.00  0.00    +0.078 A 
ATOM     10  N   UNL     1       0.788  -1.038  -6.002  0.00  0.00    -0.231 NA
ATOM     11  C   UNL     1       0.176  -2.142  -6.303  0.00  0.00    +0.138 A 
ENDROOT
BRANCH   1  17
ATOM     12  C   UNL     1       0.191  -5.376  -6.725  0.00  0.00    +0.144 A 
ATOM     13  C   UNL     1      -0.530  -6.530  -6.987  0.00  0.00    +0.048 A 
ATOM     14  C   UNL     1      -1.493  -6.533  -7.978  0.00  0.00    +0.004 A 
ATOM     15  C   UNL     1      -1.740  -5.386  -8.711  0.00  0.00    +0.002 A 
ATOM     16  C   UNL     1      -1.026  -4.232  -8.456  0.00  0.00    +0.030 A 
ATOM     17  C   UNL     1      -0.061  -4.219  -7.459  0.00  0.00    +0.093 A 
BRANCH  12  18
ATOM     18  O   UNL     1       1.139  -5.371  -5.750  0.00  0.00    -0.490 OA
BRANCH  18  20
ATOM     19  C   UNL     1       2.439  -6.395  -3.989  0.00  0.00    +0.048 C 
ATOM     20  C   UNL     1       1.343  -6.593  -5.038  0.00  0.00    +0.226 C 
ENDBRANCH  18  20
ENDBRANCH  12  18
ENDBRANCH   1  17
BRANCH  11  21
ATOM     21  C   UNL     1      -1.137  -2.440  -5.625  0.00  0.00    +0.140 C 
ATOM     22  C   UNL     1      -0.875  -2.925  -4.197  0.00  0.00    +0.036 C 
BRANCH  21  23
ATOM     23  N   UNL     1      -1.953  -1.224  -5.586  0.00  0.00    -0.290 N 
ATOM     24  C   UNL     1      -2.954  -1.056  -6.473  0.00  0.00    +0.247 C 
ATOM     25  O   UNL     1      -3.202  -1.928  -7.282  0.00  0.00    -0.270 OA
BRANCH  24  26
ATOM     26  C   UNL     1      -3.747   0.189  -6.463  0.00  0.00    +0.041 A 
ATOM     27  C   UNL     1      -3.105   1.429  -6.490  0.00  0.00    +0.017 A 
ATOM     28  C   UNL     1      -3.847   2.590  -6.481  0.00  0.00    +0.050 A 
ATOM     29  C   UNL     1      -5.234   2.532  -6.445  0.00  0.00    +0.166 A 
ATOM     30  C   UNL     1      -5.882   1.296  -6.417  0.00  0.00    +0.167 A 
ATOM     31  C   UNL     1      -5.143   0.129  -6.431  0.00  0.00    +0.062 A 
ATOM     32  O   UNL     1      -7.230   1.512  -6.384  0.00  0.00    -0.453 OA
ATOM     33  C   UNL     1      -7.389   2.884  -5.980  0.00  0.00    +0.466 C 
ATOM     34  O   UNL     1      -6.177   3.517  -6.430  0.00  0.00    -0.453 OA
ENDBRANCH  24  26
BRANCH  23  35
ATOM     35  C   UNL     1      -1.682  -0.192  -4.582  0.00  0.00    +0.090 C 
BRANCH  35  36
ATOM     36  C   UNL     1      -0.484   0.650  -5.027  0.00  0.00    -0.060 C 
BRANCH  36  37
ATOM     37  N   UNL     1      -0.665   2.036  -4.575  0.00  0.00    +0.377 N 
ATOM     38  C   UNL     1      -0.647   2.079  -3.107  0.00  0.00    -0.097 C 
ATOM     39  C   UNL     1       0.424   2.869  -5.103  0.00  0.00    -0.097 C 
ATOM     40  H   UNL     1      -1.550   2.386  -4.911  0.00  0.00    -0.083 HD
ENDBRANCH  36  37
ENDBRANCH  35  36
ENDBRANCH  23  35
ENDBRANCH  21  23
ENDBRANCH  11  21
TORSDOF 9
