REMARK  Name = ZINC13087936
REMARK  5 active torsions:
REMARK  status: ('A' for Active; 'I' for Inactive)
REMARK    1  A    between atoms: C_1  and  C_2
REMARK    2  A    between atoms: C_5  and  S_7
REMARK    3  A    between atoms: S_7  and  N_10
REMARK    4  A    between atoms: N_10  and  C_11
REMARK    5  A    between atoms: C_16  and  C_17
REMARK                            x       y       z     vdW  Elec       q    Type
REMARK                         _______ _______ _______ _____ _____    ______ ____
ROOT
ATOM      1  N   UNL     1      -2.421   1.045   0.020  0.00  0.00    -0.097 NA
ENDROOT
BRANCH   1   2
ATOM      2  C   UNL     1      -1.293   1.838   0.189  0.00  0.00    +0.088 A 
ATOM      3  C   UNL     1      -0.033   1.256   0.254  0.00  0.00    +0.029 A 
ATOM      4  C   UNL     1       1.086   2.045   0.416  0.00  0.00    +0.022 A 
ATOM      5  C   UNL     1       0.965   3.423   0.522  0.00  0.00    +0.042 A 
ATOM      6  C   UNL     1      -0.277   4.019   0.465  0.00  0.00    +0.037 A 
ATOM      7  C   UNL     1      -1.421   3.232   0.301  0.00  0.00    +0.089 A 
ATOM      8 CL   UNL     1       2.384   4.402   0.726  0.00  0.00    -0.084 Cl
BRANCH   7   9
ATOM      9  C   UNL     1      -2.751   3.861   0.240  0.00  0.00    +0.388 C 
ATOM     10  O   UNL     1      -3.743   3.173   0.097  0.00  0.00    -0.241 OA
ATOM     11  O   UNL     1      -2.868   5.200   0.342  0.00  0.00    -0.241 OA
ENDBRANCH   7   9
ENDBRANCH   1   2
BRANCH   1  12
ATOM     12  S   UNL     1      -2.496  -0.449   0.730  0.00  0.00    +0.098 S 
ATOM     13  O   UNL     1      -3.805  -0.947   0.490  0.00  0.00    -0.148 OA
ATOM     14  O   UNL     1      -1.329  -1.151   0.324  0.00  0.00    -0.148 OA
BRANCH  12  19
ATOM     15  C   UNL     1      -1.064   0.270   6.425  0.00  0.00    +0.051 C 
ATOM     16  C   UNL     1      -1.687   0.118   5.061  0.00  0.00    -0.011 A 
ATOM     17  C   UNL     1      -2.996   0.164   4.711  0.00  0.00    +0.013 A 
ATOM     18  C   UNL     1      -3.341  -0.003   3.382  0.00  0.00    +0.037 A 
ATOM     19  C   UNL     1      -2.360  -0.207   2.469  0.00  0.00    +0.148 A 
ATOM     20  S   UNL     1      -0.894  -0.174   3.488  0.00  0.00    -0.073 S 
ENDBRANCH  12  19
ENDBRANCH   1  12
TORSDOF 4
