REMARK  Name = ZINC04834118
REMARK  7 active torsions:
REMARK  status: ('A' for Active; 'I' for Inactive)
REMARK    1  A    between atoms: CB_1  and  CA_2
REMARK    2  A    between atoms: CA_2  and  C_4
REMARK    3  A    between atoms: CA_2  and  N_6
REMARK    4  A    between atoms: C_7  and  CA_9
REMARK    5  A    between atoms: CA_9  and  N_17
REMARK    6  A    between atoms: CB_10  and  CG_11
REMARK    7  A    between atoms: C_18  and  C_20
REMARK                            x       y       z     vdW  Elec       q    Type
REMARK                         _______ _______ _______ _____ _____    ______ ____
ROOT
ATOM      1  CA  PHE A   1       3.570   3.376  -0.081  0.00  0.00    +0.097 C 
ATOM      2  CB  PHE A   1       3.545   2.026  -0.002  0.00  0.00    +0.036 C 
ENDROOT
BRANCH   2   3
ATOM      3  CG  PHE A   1       2.269   1.305  -0.129  0.00  0.00    -0.023 A 
ATOM      4  CD2 PHE A   1       1.232   1.842  -0.898  0.00  0.00    +0.008 A 
ATOM      5  CE2 PHE A   1       0.039   1.160  -1.013  0.00  0.00    +0.001 A 
ATOM      6  CZ  PHE A   1      -0.134  -0.053  -0.368  0.00  0.00    +0.000 A 
ATOM      7  CE1 PHE A   1       0.888  -0.590   0.395  0.00  0.00    +0.001 A 
ATOM      8  CD1 PHE A   1       2.087   0.079   0.519  0.00  0.00    +0.008 A 
ENDBRANCH   2   3
BRANCH   1  10
ATOM      9  N   PHE A   1       1.531   4.175   0.998  0.00  0.00    -0.297 N 
ATOM     10  C   PHE A   1       2.311   4.135  -0.101  0.00  0.00    +0.259 C 
ATOM     11  O   PHE A   1       1.972   4.726  -1.108  0.00  0.00    -0.269 OA
ATOM     12  H   PHE A   1       1.834   3.765   1.823  0.00  0.00    +0.150 HD
BRANCH   9  14
ATOM     13  CB  PHE A   1       0.404   6.337   1.198  0.00  0.00    +0.040 C 
ATOM     14  CA  PHE A   1       0.225   4.838   0.946  0.00  0.00    +0.183 C 
BRANCH  14  15
ATOM     15  C   PHE A   1      -0.676   4.255   2.003  0.00  0.00    +0.376 C 
ATOM     16  O   PHE A   1      -0.270   3.376   2.726  0.00  0.00    -0.244 OA
ATOM     17  OXT PHE A   1      -1.931   4.712   2.142  0.00  0.00    -0.244 OA
ENDBRANCH  14  15
ENDBRANCH   9  14
ENDBRANCH   1  10
BRANCH   1  18
ATOM     18  N   PHE A   1       4.793   4.050  -0.144  0.00  0.00    -0.275 N 
ATOM     19  C   UNK A   0       4.817   5.392  -0.270  0.00  0.00    +0.284 C 
ATOM     20  O   UNK A   0       3.777   6.024  -0.250  0.00  0.00    -0.266 OA
ATOM     21  H   PHE A   1       5.624   3.552  -0.098  0.00  0.00    +0.155 HD
BRANCH  19  22
ATOM     22  C   UNK A   0       6.095   6.090  -0.430  0.00  0.00    +0.191 A 
ATOM     23  C   UNK A   0       6.261   7.438  -0.573  0.00  0.00    +0.056 A 
ATOM     24  C   UNK A   0       7.641   7.665  -0.693  0.00  0.00    +0.058 A 
ATOM     25  C   UNK A   0       8.250   6.458  -0.628  0.00  0.00    +0.171 A 
ATOM     26  O   UNK A   0       7.315   5.512  -0.470  0.00  0.00    -0.444 OA
ATOM     27 BR   UNK A   0      10.113   6.157  -0.741  0.00  0.00    -0.008 Br
ENDBRANCH  19  22
ENDBRANCH   1  18
TORSDOF 6
