REMARK  Name = ZINC12855846
REMARK  3 active torsions:
REMARK  status: ('A' for Active; 'I' for Inactive)
REMARK    1  A    between atoms: C_9  and  N_11
REMARK    2  A    between atoms: C_15  and  S_18
REMARK    3  A    between atoms: S_18  and  N_21
REMARK                            x       y       z     vdW  Elec       q    Type
REMARK                         _______ _______ _______ _____ _____    ______ ____
ROOT
ATOM      1  N   UNL     1      -2.967   4.197   1.397  0.00  0.00    -0.322 N 
ATOM      2  C   UNL     1      -3.930   3.289   1.821  0.00  0.00    +0.119 A 
ATOM      3  C   UNL     1      -4.360   2.287   0.957  0.00  0.00    +0.045 A 
ATOM      4  C   UNL     1      -5.319   1.390   1.391  0.00  0.00    +0.033 A 
ATOM      5  C   UNL     1      -5.818   1.525   2.680  0.00  0.00    +0.123 A 
ATOM      6  C   UNL     1      -5.346   2.543   3.484  0.00  0.00    +0.141 A 
ATOM      7  N   UNL     1      -4.426   3.382   3.045  0.00  0.00    -0.239 NA
ATOM      8  H   UNL     1      -2.624   4.992   2.076  0.00  0.00    +0.148 HD
ENDROOT
BRANCH   1  17
ATOM      9  C   UNL     1       1.175   1.784   0.000  0.00  0.00    +0.000 A 
ATOM     10  C   UNL     1      -0.013   1.076   0.008  0.00  0.00    +0.000 A 
ATOM     11  C   UNL     1      -1.217   1.751   0.017  0.00  0.00    +0.006 A 
ATOM     12  C   UNL     1      -1.241   3.135   0.030  0.00  0.00    -0.024 A 
ATOM     13  C   UNL     1      -0.054   3.843   0.023  0.00  0.00    -0.042 A 
ATOM     14  C   UNL     1       1.154   3.165   0.007  0.00  0.00    +0.004 A 
ATOM     15  C   UNL     1      -0.344   5.329   0.033  0.00  0.00    +0.037 C 
ATOM     16  C   UNL     1      -1.822   5.455  -0.393  0.00  0.00    +0.032 C 
ATOM     17  C   UNL     1      -2.410   4.097   0.046  0.00  0.00    +0.103 C 
ENDBRANCH   1  17
BRANCH   5  18
ATOM     18  S   UNL     1      -7.040   0.409   3.284  0.00  0.00    +0.057 S 
ATOM     19  O   UNL     1      -7.731   1.087   4.324  0.00  0.00    -0.153 OA
ATOM     20  O   UNL     1      -7.706  -0.119   2.145  0.00  0.00    -0.153 OA
BRANCH  18  21
ATOM     21  N   UNL     1      -6.240  -0.856   3.993  0.00  0.00    -0.203 NA
ATOM     22  H   UNL     1      -6.971  -1.579   4.384  0.00  0.00    +0.144 HD
ATOM     23  H   UNL     1      -5.618  -0.480   4.818  0.00  0.00    +0.144 HD
ENDBRANCH  18  21
ENDBRANCH   5  18
TORSDOF 3
