REMARK  Name = ZINC51021865
REMARK  3 active torsions:
REMARK  status: ('A' for Active; 'I' for Inactive)
REMARK    1  A    between atoms: C_3  and  S_9
REMARK    2  A    between atoms: C_4  and  N_8
REMARK    3  A    between atoms: S_9  and  C_10
REMARK                            x       y       z     vdW  Elec       q    Type
REMARK                         _______ _______ _______ _____ _____    ______ ____
ROOT
ATOM      1  S   UNL     1       3.893   2.323  -0.024  0.00  0.00    -0.066 S 
ENDROOT
BRANCH   1   2
ATOM      2  C   UNL     1       3.383   4.005  -0.160  0.00  0.00    +0.130 A 
ATOM      3  C   UNL     1       4.324   5.027  -0.309  0.00  0.00    +0.118 A 
ATOM      4  C   UNL     1       3.868   6.351  -0.414  0.00  0.00    +0.182 A 
ATOM      5  N   UNL     1       4.958   7.129  -0.548  0.00  0.00    -0.216 NA
ATOM      6  H   UNL     1       6.312   4.338  -0.349  0.00  0.00    +0.167 HD
ATOM      7  C   UNL     1       6.032   6.391  -0.533  0.00  0.00    +0.199 A 
ATOM      8  N   UNL     1       5.699   5.088  -0.389  0.00  0.00    -0.341 N 
ATOM      9  N   UNL     1       2.551   6.581  -0.366  0.00  0.00    -0.214 NA
ATOM     10  C   UNL     1       1.703   5.587  -0.224  0.00  0.00    +0.224 A 
ATOM     11  N   UNL     1       2.092   4.329  -0.127  0.00  0.00    -0.227 NA
ENDBRANCH   1   2
BRANCH   1  14
ATOM     12  C   UNL     1       0.614   0.037  -0.468  0.00  0.00    +0.039 A 
ATOM     13  C   UNL     1       1.787   0.724  -0.719  0.00  0.00    +0.020 A 
ATOM     14  C   UNL     1       2.397   1.448   0.294  0.00  0.00    +0.035 A 
ATOM     15  C   UNL     1       1.825   1.482   1.566  0.00  0.00    +0.041 A 
ATOM     16  C   UNL     1       0.648   0.791   1.810  0.00  0.00    +0.062 A 
ATOM     17  C   UNL     1       0.045   0.070   0.793  0.00  0.00    +0.125 A 
ATOM     18  F   UNL     1      -1.102  -0.603   1.033  0.00  0.00    -0.205 F 
BRANCH  15  19
ATOM     19  N   UNL     1       2.436   2.211   2.591  0.00  0.00    -0.357 N 
ATOM     20  H   UNL     1       3.260   2.693   2.419  0.00  0.00    +0.142 HD
ATOM     21  H   UNL     1       2.037   2.233   3.475  0.00  0.00    +0.142 HD
ENDBRANCH  15  19
ENDBRANCH   1  14
TORSDOF 3
