REMARK  Name = ZINC36500582
REMARK  12 active torsions:
REMARK  status: ('A' for Active; 'I' for Inactive)
REMARK    1  A    between atoms: C_1  and  C_2
REMARK    2  A    between atoms: C_2  and  C_3
REMARK    3  A    between atoms: C_2  and  C_4
REMARK    4  A    between atoms: C_2  and  N_5
REMARK    5  A    between atoms: C_6  and  C_8
REMARK    6  A    between atoms: C_8  and  C_10
REMARK    7  A    between atoms: C_8  and  N_15
REMARK    8  A    between atoms: N_15  and  C_16
REMARK    9  A    between atoms: C_16  and  C_17
REMARK   10  A    between atoms: C_22  and  C_24
REMARK   11  A    between atoms: C_25  and  O_31
REMARK   12  A    between atoms: C_29  and  O_30
REMARK                            x       y       z     vdW  Elec       q    Type
REMARK                         _______ _______ _______ _____ _____    ______ ____
ROOT
ATOM      1  N   UNL     1       3.832  -0.125  -2.599  0.00  0.00    -0.272 N 
ATOM      2  C   UNL     1       4.614  -1.201  -2.818  0.00  0.00    +0.255 C 
ATOM      3  O   UNL     1       4.118  -2.308  -2.896  0.00  0.00    -0.270 OA
ENDROOT
BRANCH   2   4
ATOM      4  C   UNL     1       6.070  -1.035  -2.963  0.00  0.00    +0.119 A 
ATOM      5  C   UNL     1       6.905  -1.106  -1.839  0.00  0.00    +0.133 A 
ATOM      6  C   UNL     1       8.274  -0.949  -1.987  0.00  0.00    +0.046 A 
ATOM      7  C   UNL     1       8.817  -0.723  -3.238  0.00  0.00    +0.007 A 
ATOM      8  C   UNL     1       8.003  -0.651  -4.353  0.00  0.00    +0.046 A 
ATOM      9  C   UNL     1       6.633  -0.811  -4.229  0.00  0.00    +0.133 A 
BRANCH   9  10
ATOM     10  O   UNL     1       5.837  -0.746  -5.325  0.00  0.00    -0.506 OA
ATOM     11  H   UNL     1       5.519   0.145  -5.528  0.00  0.00    +0.292 HD
ENDBRANCH   9  10
BRANCH   5  12
ATOM     12  O   UNL     1       6.374  -1.327  -0.610  0.00  0.00    -0.506 OA
ATOM     13  H   UNL     1       6.307  -2.262  -0.373  0.00  0.00    +0.292 HD
ENDBRANCH   5  12
ENDBRANCH   2   4
BRANCH   1  14
ATOM     14  C   UNL     1       2.384  -0.290  -2.454  0.00  0.00    +0.229 C 
BRANCH  14  15
ATOM     15  C   UNL     1       2.094  -1.153  -1.253  0.00  0.00    +0.134 A 
ATOM     16  C   UNL     1       1.095  -0.964  -0.372  0.00  0.00    +0.047 A 
ATOM     17  C   UNL     1       1.195  -1.998   0.587  0.00  0.00    +0.041 A 
ATOM     18  C   UNL     1       2.248  -2.756   0.235  0.00  0.00    +0.195 A 
ATOM     19  O   UNL     1       2.786  -2.243  -0.883  0.00  0.00    -0.465 OA
ENDBRANCH  14  15
BRANCH  14  21
ATOM     20  N   UNL     1       0.495  -1.085  -3.839  0.00  0.00    -0.309 N 
ATOM     21  C   UNL     1       1.827  -0.948  -3.691  0.00  0.00    +0.242 C 
ATOM     22  O   UNL     1       2.578  -1.355  -4.552  0.00  0.00    -0.273 OA
ATOM     23  H   UNL     1      -0.106  -0.760  -3.151  0.00  0.00    +0.149 HD
BRANCH  20  25
ATOM     24  C   UNL     1       0.485  -3.156  -5.141  0.00  0.00    +0.031 C 
ATOM     25  C   UNL     1      -0.046  -1.724  -5.041  0.00  0.00    +0.026 C 
ATOM     26  C   UNL     1       0.384  -0.933  -6.278  0.00  0.00    +0.031 C 
ATOM     27  C   UNL     1      -1.574  -1.752  -4.960  0.00  0.00    +0.031 C 
ENDBRANCH  20  25
ENDBRANCH  14  21
ENDBRANCH   1  14
BRANCH   1  28
ATOM     28  C   UNL     1       4.430   1.209  -2.506  0.00  0.00    +0.183 C 
BRANCH  28  29
ATOM     29  C   UNL     1       4.650   1.561  -1.057  0.00  0.00    +0.122 A 
ATOM     30  C   UNL     1       5.800   1.409  -0.376  0.00  0.00    +0.046 A 
ATOM     31  C   UNL     1       5.559   1.862   0.941  0.00  0.00    +0.041 A 
ATOM     32  C   UNL     1       4.276   2.264   0.987  0.00  0.00    +0.195 A 
ATOM     33  O   UNL     1       3.732   2.084  -0.228  0.00  0.00    -0.466 OA
ENDBRANCH  28  29
ENDBRANCH   1  28
TORSDOF 9
