REMARK  Name = ZINC10325894
REMARK  5 active torsions:
REMARK  status: ('A' for Active; 'I' for Inactive)
REMARK    1  A    between atoms: C_1  and  C_2
REMARK    2  A    between atoms: C_5  and  C_8
REMARK    3  A    between atoms: C_13  and  C_29
REMARK    4  A    between atoms: N_19  and  C_22
REMARK    5  A    between atoms: C_33  and  N_35
REMARK                            x       y       z     vdW  Elec       q    Type
REMARK                         _______ _______ _______ _____ _____    ______ ____
ROOT
ATOM      1  C   UNL     1       0.059  -4.275  -0.021  0.00  0.00    +0.032 C 
ATOM      2  C   UNL     1      -1.170  -4.811   0.715  0.00  0.00    +0.059 C 
ATOM      3  C   UNL     1      -1.131  -6.322   0.738  0.00  0.00    +0.017 C 
ATOM      4  C   UNL     1       0.045  -6.981   0.764  0.00  0.00    +0.024 C 
ATOM      5  C   UNL     1       0.125  -8.493   0.789  0.00  0.00    +0.092 C 
ATOM      6  C   UNL     1      -1.227  -9.062   1.118  0.00  0.00    +0.070 A 
ATOM      7  C   UNL     1      -2.372  -8.307   1.078  0.00  0.00    +0.125 A 
ATOM      8  N   UNL     1      -3.419  -9.106   1.420  0.00  0.00    -0.277 N 
ATOM      9  H   UNL     1      -4.350  -8.837   1.472  0.00  0.00    +0.189 HD
ATOM     10  N   UNL     1      -2.913 -10.389   1.685  0.00  0.00    -0.218 N 
ATOM     11  C   UNL     1      -1.575 -10.357   1.499  0.00  0.00    +0.278 A 
ATOM     12  O   UNL     1      -0.809 -11.295   1.640  0.00  0.00    -0.265 OA
ATOM     13  N   UNL     1      -2.342  -6.976   0.738  0.00  0.00    -0.303 N 
ATOM     14  C   UNL     1       1.267  -6.281   0.764  0.00  0.00    +0.162 C 
ATOM     15  O   UNL     1       2.309  -6.905   0.814  0.00  0.00    -0.292 OA
ATOM     16  C   UNL     1       1.312  -4.780   0.702  0.00  0.00    +0.088 C 
ATOM     17  H   UNL     1      -3.158  -6.506   0.504  0.00  0.00    +0.153 HD
ENDROOT
BRANCH   1  22
ATOM     18  C   UNL     1      -0.018   1.503   0.010  0.00  0.00    +0.044 C 
ATOM     19  C   UNL     1       0.002  -0.004   0.002  0.00  0.00    -0.050 A 
ATOM     20  C   UNL     1       0.006  -0.689  -1.199  0.00  0.00    +0.003 A 
ATOM     21  C   UNL     1       0.025  -2.071  -1.206  0.00  0.00    +0.004 A 
ATOM     22  C   UNL     1       0.040  -2.768  -0.013  0.00  0.00    -0.043 A 
ATOM     23  C   UNL     1       0.037  -2.084   1.188  0.00  0.00    +0.004 A 
ATOM     24  C   UNL     1       0.023  -0.702   1.195  0.00  0.00    +0.003 A 
ENDBRANCH   1  22
BRANCH  10  25
ATOM     25  C   UNL     1      -3.663 -11.504   2.072  0.00  0.00    +0.067 A 
ATOM     26  C   UNL     1      -3.033 -12.719   2.308  0.00  0.00    +0.028 A 
ATOM     27  C   UNL     1      -3.776 -13.818   2.691  0.00  0.00    +0.002 A 
ATOM     28  C   UNL     1      -5.147 -13.710   2.838  0.00  0.00    +0.000 A 
ATOM     29  C   UNL     1      -5.778 -12.502   2.603  0.00  0.00    +0.002 A 
ATOM     30  C   UNL     1      -5.040 -11.398   2.227  0.00  0.00    +0.028 A 
ENDBRANCH  10  25
BRANCH   5  31
ATOM     31  C   UNL     1       0.565  -8.994  -0.562  0.00  0.00    -0.033 A 
ATOM     32  C   UNL     1      -0.192  -8.714  -1.685  0.00  0.00    +0.005 A 
ATOM     33  C   UNL     1       0.212  -9.174  -2.924  0.00  0.00    +0.003 A 
ATOM     34  C   UNL     1       1.373  -9.915  -3.041  0.00  0.00    +0.033 A 
ATOM     35  C   UNL     1       2.131 -10.195  -1.920  0.00  0.00    +0.126 A 
ATOM     36  C   UNL     1       1.729  -9.730  -0.681  0.00  0.00    +0.037 A 
BRANCH  35  37
ATOM     37  N   UNL     1       3.374 -10.988  -2.045  0.00  0.00    +0.056 N 
ATOM     38  O   UNL     1       3.727 -11.391  -3.129  0.00  0.00    -0.126 OA
ATOM     39  O   UNL     1       4.036 -11.233  -1.064  0.00  0.00    -0.126 OA
ENDBRANCH  35  37
ENDBRANCH   5  31
TORSDOF 4
