REMARK  Name = ZINC48383608
REMARK  7 active torsions:
REMARK  status: ('A' for Active; 'I' for Inactive)
REMARK    1  A    between atoms: C_1  and  C_2
REMARK    2  A    between atoms: C_5  and  S_22
REMARK    3  A    between atoms: C_7  and  N_8
REMARK    4  A    between atoms: C_9  and  C_11
REMARK    5  A    between atoms: C_17  and  C_19
REMARK    6  A    between atoms: S_22  and  N_25
REMARK    7  A    between atoms: N_25  and  C_26
REMARK                            x       y       z     vdW  Elec       q    Type
REMARK                         _______ _______ _______ _____ _____    ______ ____
ROOT
ATOM      1  C   UNL     1      -0.019   1.492   0.001  0.00  0.00    +0.045 C 
ATOM      2  C   UNL     1       0.010  -0.015   0.000  0.00  0.00    -0.029 A 
ATOM      3  C   UNL     1       0.024  -0.706  -1.196  0.00  0.00    +0.007 A 
ATOM      4  C   UNL     1       0.050  -2.088  -1.197  0.00  0.00    +0.029 A 
ATOM      5  C   UNL     1       0.064  -2.783  -0.001  0.00  0.00    +0.107 A 
ATOM      6  C   UNL     1       0.051  -2.099   1.198  0.00  0.00    +0.052 A 
ATOM      7  C   UNL     1       0.029  -0.710   1.202  0.00  0.00    +0.038 A 
ENDROOT
BRANCH   7   8
ATOM      8  N   UNL     1       0.021  -0.013   2.416  0.00  0.00    -0.285 N 
ATOM      9  C   UNL     1      -0.631  -0.520   3.480  0.00  0.00    +0.221 C 
ATOM     10  O   UNL     1      -1.144  -1.617   3.411  0.00  0.00    -0.275 OA
ATOM     11  H   UNL     1       0.485   0.836   2.490  0.00  0.00    +0.155 HD
BRANCH   9  12
ATOM     12  C   UNL     1      -0.725   0.276   4.756  0.00  0.00    +0.093 C 
ATOM     13  C   UNL     1      -0.698  -0.673   5.957  0.00  0.00    +0.040 C 
ATOM     14  C   UNL     1      -1.978  -1.454   6.027  0.00  0.00    -0.030 C 
ATOM     15  C   UNL     1      -3.063  -1.125   5.402  0.00  0.00    -0.030 C 
ATOM     16  C   UNL     1      -3.191   0.077   4.514  0.00  0.00    +0.042 C 
ATOM     17  C   UNL     1      -2.043   1.060   4.780  0.00  0.00    +0.118 C 
BRANCH  17  18
ATOM     18  C   UNL     1      -2.018   2.124   3.714  0.00  0.00    +0.360 C 
ATOM     19  O   UNL     1      -3.057   2.479   3.183  0.00  0.00    -0.246 OA
ATOM     20  O   UNL     1      -0.960   2.630   3.381  0.00  0.00    -0.246 OA
ENDBRANCH  17  18
ENDBRANCH   9  12
ENDBRANCH   7   8
BRANCH   5  21
ATOM     21  S   UNL     1       0.098  -4.545  -0.009  0.00  0.00    +0.058 S 
ATOM     22  O   UNL     1      -0.445  -4.966   1.236  0.00  0.00    -0.153 OA
ATOM     23  O   UNL     1      -0.446  -4.957  -1.255  0.00  0.00    -0.153 OA
BRANCH  21  24
ATOM     24  N   UNL     1       1.689  -5.004  -0.011  0.00  0.00    -0.193 NA
ATOM     25  C   UNL     1       2.542  -4.697   1.139  0.00  0.00    +0.127 C 
ATOM     26  H   UNL     1       2.056  -5.477  -0.775  0.00  0.00    +0.148 HD
ENDBRANCH  21  24
ENDBRANCH   5  21
TORSDOF 5
