REMARK  Name = ZINC35192242
REMARK  6 active torsions:
REMARK  status: ('A' for Active; 'I' for Inactive)
REMARK    1  A    between atoms: C_4  and  C_7
REMARK    2  A    between atoms: C_7  and  N_8
REMARK    3  A    between atoms: C_11  and  N_14
REMARK    4  A    between atoms: C_15  and  C_17
REMARK    5  A    between atoms: C_21  and  C_33
REMARK    6  A    between atoms: C_24  and  C_26
REMARK                            x       y       z     vdW  Elec       q    Type
REMARK                         _______ _______ _______ _____ _____    ______ ____
ROOT
ATOM      1  C   UNL     1       7.596  -3.268   6.735  0.00  0.00    +0.173 C 
ATOM      2  C   UNL     1       7.178  -2.849   8.175  0.00  0.00    +0.103 C 
ATOM      3  S   UNL     1       8.798  -3.131   9.021  0.00  0.00    -0.131 S 
ATOM      4  C   UNL     1       9.381  -4.511   7.948  0.00  0.00    +0.172 C 
ATOM      5  N   UNL     1       8.496  -4.418   6.773  0.00  0.00    -0.269 N 
ATOM      6  C   UNL     1       8.518  -5.339   5.789  0.00  0.00    +0.250 C 
ATOM      7  O   UNL     1       7.844  -5.178   4.790  0.00  0.00    -0.270 OA
ENDROOT
BRANCH   6   8
ATOM      8  C   UNL     1       9.362  -6.545   5.925  0.00  0.00    +0.055 A 
ATOM      9  C   UNL     1       9.275  -7.336   7.072  0.00  0.00    +0.014 A 
ATOM     10  C   UNL     1      10.065  -8.460   7.193  0.00  0.00    +0.001 A 
ATOM     11  C   UNL     1      10.942  -8.806   6.180  0.00  0.00    +0.001 A 
ATOM     12  C   UNL     1      11.034  -8.027   5.041  0.00  0.00    +0.021 A 
ATOM     13  C   UNL     1      10.245  -6.902   4.904  0.00  0.00    +0.053 A 
ATOM     14 CL   UNL     1      10.356  -5.930   3.469  0.00  0.00    -0.083 Cl
ENDBRANCH   6   8
BRANCH   4  15
ATOM     15  C   UNL     1      10.822  -4.308   7.555  0.00  0.00    +0.020 A 
ATOM     16  C   UNL     1      11.945  -4.753   8.169  0.00  0.00    +0.014 A 
ATOM     17  C   UNL     1      13.176  -4.442   7.622  0.00  0.00    +0.008 A 
ATOM     18  C   UNL     1      13.223  -3.701   6.487  0.00  0.00    +0.045 A 
ATOM     19  S   UNL     1      11.491  -3.425   6.155  0.00  0.00    -0.099 S 
ENDBRANCH   4  15
BRANCH   1  21
ATOM     20  N   UNL     1       5.799  -2.719   5.128  0.00  0.00    -0.311 N 
ATOM     21  C   UNL     1       6.364  -3.629   5.946  0.00  0.00    +0.235 C 
ATOM     22  O   UNL     1       5.882  -4.737   6.046  0.00  0.00    -0.274 OA
ATOM     23  H   UNL     1       6.184  -1.833   5.047  0.00  0.00    +0.149 HD
BRANCH  20  27
ATOM     24  N   UNL     1       3.068  -2.791   1.917  0.00  0.00    +0.382 N 
ATOM     25  C   UNL     1       2.608  -2.162   3.161  0.00  0.00    -0.077 C 
ATOM     26  C   UNL     1       3.814  -1.798   4.030  0.00  0.00    +0.003 C 
ATOM     27  C   UNL     1       4.601  -3.069   4.360  0.00  0.00    +0.069 C 
ATOM     28  C   UNL     1       5.012  -3.757   3.055  0.00  0.00    +0.003 C 
ATOM     29  C   UNL     1       3.762  -4.048   2.222  0.00  0.00    -0.077 C 
ATOM     30  H   UNL     1       3.701  -2.166   1.441  0.00  0.00    -0.081 HD
BRANCH  24  31
ATOM     31  C   UNL     1       1.913  -3.067   1.054  0.00  0.00    -0.043 C 
BRANCH  31  35
ATOM     32  C   UNL     1       0.097   0.616  -0.121  0.00  0.00    +0.000 A 
ATOM     33  C   UNL     1       1.101   0.064  -0.894  0.00  0.00    +0.000 A 
ATOM     34  C   UNL     1       1.689  -1.128  -0.513  0.00  0.00    +0.002 A 
ATOM     35  C   UNL     1       1.273  -1.767   0.639  0.00  0.00    -0.064 A 
ATOM     36  C   UNL     1       0.269  -1.214   1.413  0.00  0.00    +0.002 A 
ATOM     37  C   UNL     1      -0.320  -0.023   1.032  0.00  0.00    +0.000 A 
ENDBRANCH  31  35
ENDBRANCH  24  31
ENDBRANCH  20  27
ENDBRANCH   1  21
TORSDOF 6
