REMARK  Name = ZINC09648827
REMARK  4 active torsions:
REMARK  status: ('A' for Active; 'I' for Inactive)
REMARK    1  A    between atoms: C_4  and  C_7
REMARK    2  A    between atoms: C_7  and  N_49
REMARK    3  A    between atoms: C_16  and  C_18
REMARK    4  A    between atoms: C_22  and  N_27
REMARK                            x       y       z     vdW  Elec       q    Type
REMARK                         _______ _______ _______ _____ _____    ______ ____
ROOT
ATOM      1  C   UNL     1       3.982   5.141  -1.440  0.00  0.00    -0.072 C 
ATOM      2  C   UNL     1       4.635   5.116  -2.825  0.00  0.00    +0.038 C 
ATOM      3  C   UNL     1       3.542   5.313  -3.870  0.00  0.00    +0.050 A 
ATOM      4  C   UNL     1       2.243   5.107  -3.523  0.00  0.00    -0.002 A 
ATOM      5  S   UNL     1       1.379   5.454  -5.029  0.00  0.00    -0.059 S 
ATOM      6  C   UNL     1       2.776   5.838  -5.991  0.00  0.00    +0.165 A 
ATOM      7  N   UNL     1       3.759   5.681  -5.127  0.00  0.00    -0.229 NA
ATOM      8  N   UNL     1       2.839   6.214  -7.326  0.00  0.00    -0.260 N 
ATOM      9  C   UNL     1       4.032   6.473  -7.898  0.00  0.00    +0.256 C 
ATOM     10  O   UNL     1       5.053   6.378  -7.244  0.00  0.00    -0.269 OA
ATOM     11  C   UNL     1       1.722   4.690  -2.190  0.00  0.00    -0.033 C 
ATOM     12  H   UNL     1       2.025   6.290  -7.848  0.00  0.00    +0.157 HD
ATOM     13  N   UNL     1       2.867   4.172  -1.400  0.00  0.00    +0.386 N 
ATOM     14  H   UNL     1       3.181   3.284  -1.809  0.00  0.00    -0.081 HD
ENDROOT
BRANCH   9  15
ATOM     15  C   UNL     1       4.099   6.871  -9.311  0.00  0.00    +0.075 A 
ATOM     16  C   UNL     1       5.196   7.176 -10.054  0.00  0.00    +0.029 A 
ATOM     17  C   UNL     1       5.050   7.534 -11.406  0.00  0.00    -0.008 A 
ATOM     18  C   UNL     1       6.063   7.878 -12.338  0.00  0.00    +0.041 A 
ATOM     19  C   UNL     1       5.747   8.206 -13.617  0.00  0.00    +0.127 A 
ATOM     20  C   UNL     1       4.431   8.219 -14.063  0.00  0.00    +0.034 A 
ATOM     21  C   UNL     1       3.414   7.891 -13.190  0.00  0.00    +0.018 A 
ATOM     22  C   UNL     1       3.719   7.555 -11.888  0.00  0.00    +0.020 A 
ATOM     23  S   UNL     1       2.760   7.081 -10.472  0.00  0.00    -0.084 S 
BRANCH  19  24
ATOM     24  N   UNL     1       6.832   8.560 -14.560  0.00  0.00    +0.056 N 
ATOM     25  O   UNL     1       7.991   8.554 -14.186  0.00  0.00    -0.126 OA
ATOM     26  O   UNL     1       6.566   8.857 -15.711  0.00  0.00    -0.126 OA
ENDBRANCH  19  24
ENDBRANCH   9  15
BRANCH  13  27
ATOM     27  C   UNL     1       2.451   3.937  -0.001  0.00  0.00    -0.043 C 
BRANCH  27  31
ATOM     28  C   UNL     1      -1.219   1.751   0.017  0.00  0.00    +0.000 A 
ATOM     29  C   UNL     1      -0.013   1.076   0.008  0.00  0.00    +0.000 A 
ATOM     30  C   UNL     1       1.175   1.783   0.000  0.00  0.00    +0.002 A 
ATOM     31  C   UNL     1       1.156   3.165   0.008  0.00  0.00    -0.064 A 
ATOM     32  C   UNL     1      -0.050   3.840   0.023  0.00  0.00    +0.002 A 
ATOM     33  C   UNL     1      -1.238   3.133   0.030  0.00  0.00    +0.000 A 
ENDBRANCH  27  31
ENDBRANCH  13  27
TORSDOF 4
