REMARK  Name = ZINC64062051
REMARK  5 active torsions:
REMARK  status: ('A' for Active; 'I' for Inactive)
REMARK    1  A    between atoms: C_1  and  C_2
REMARK    2  A    between atoms: C_2  and  N_3
REMARK    3  A    between atoms: C_10  and  O_29
REMARK    4  A    between atoms: C_12  and  C_15
REMARK    5  A    between atoms: C_15  and  N_17
REMARK                            x       y       z     vdW  Elec       q    Type
REMARK                         _______ _______ _______ _____ _____    ______ ____
ROOT
ATOM      1  N   UNL     1       0.694  -0.375  -1.218  0.00  0.00    -0.267 N 
ATOM      2  C   UNL     1      -0.084  -0.524  -2.369  0.00  0.00    +0.042 A 
ATOM      3  C   UNL     1      -1.470  -0.537  -2.268  0.00  0.00    +0.024 A 
ATOM      4  C   UNL     1      -2.242  -0.688  -3.403  0.00  0.00    +0.002 A 
ATOM      5  C   UNL     1      -1.634  -0.828  -4.638  0.00  0.00    +0.000 A 
ATOM      6  C   UNL     1      -0.256  -0.814  -4.740  0.00  0.00    +0.008 A 
ATOM      7  C   UNL     1       0.524  -0.660  -3.608  0.00  0.00    +0.007 A 
ATOM      8  C   UNL     1       2.022  -0.637  -3.737  0.00  0.00    +0.187 C 
ATOM      9  C   UNL     1       2.685  -0.858  -2.410  0.00  0.00    +0.111 C 
ATOM     10  C   UNL     1       2.023  -0.714  -1.242  0.00  0.00    +0.255 C 
ATOM     11  O   UNL     1       2.680  -0.911  -0.079  0.00  0.00    -0.270 OA
ENDROOT
BRANCH   1  13
ATOM     12  C   UNL     1       0.218   1.672   0.033  0.00  0.00    +0.025 C 
ATOM     13  C   UNL     1       0.093   0.147   0.012  0.00  0.00    +0.110 C 
ENDBRANCH   1  13
BRANCH   9  14
ATOM     14  C   UNL     1       4.050  -1.225  -2.381  0.00  0.00    +0.273 C 
ATOM     15  O   UNL     1       4.582  -1.513  -1.321  0.00  0.00    -0.268 OA
BRANCH  14  16
ATOM     16  N   UNL     1       4.761  -1.256  -3.522  0.00  0.00    -0.152 NA
ATOM     17  C   UNL     1       6.041  -1.599  -3.495  0.00  0.00    +0.164 A 
ATOM     18  N   UNL     1       6.808  -1.957  -2.424  0.00  0.00    -0.335 N 
ATOM     19  H   UNL     1       6.417  -1.982  -1.537  0.00  0.00    +0.168 HD
ATOM     20  C   UNL     1       8.141  -2.285  -2.601  0.00  0.00    +0.055 A 
ATOM     21  C   UNL     1       9.065  -2.672  -1.614  0.00  0.00    +0.028 A 
ATOM     22  C   UNL     1      10.365  -2.970  -1.943  0.00  0.00    +0.022 A 
ATOM     23  C   UNL     1      10.810  -2.899  -3.253  0.00  0.00    +0.042 A 
ATOM     24  C   UNL     1       9.922  -2.520  -4.246  0.00  0.00    +0.037 A 
ATOM     25  C   UNL     1       8.621  -2.223  -3.917  0.00  0.00    +0.040 A 
ATOM     26  S   UNL     1       7.196  -1.718  -4.851  0.00  0.00    -0.052 S 
ATOM     27 CL   UNL     1      12.458  -3.278  -3.645  0.00  0.00    -0.084 Cl
ENDBRANCH  14  16
ENDBRANCH   9  14
BRANCH   8  28
ATOM     28  O   UNL     1       2.430  -1.666  -4.641  0.00  0.00    -0.382 OA
ATOM     29  H   UNL     1       3.369  -1.638  -4.872  0.00  0.00    +0.211 HD
ENDBRANCH   8  28
TORSDOF 4
