REMARK  Name = ZINC59411001
REMARK  10 active torsions:
REMARK  status: ('A' for Active; 'I' for Inactive)
REMARK    1  A    between atoms: C_1  and  C_2
REMARK    2  A    between atoms: C_5  and  C_33
REMARK    3  A    between atoms: N_8  and  C_10
REMARK    4  A    between atoms: C_10  and  C_11
REMARK    5  A    between atoms: C_14  and  C_17
REMARK    6  A    between atoms: C_17  and  N_18
REMARK    7  A    between atoms: C_19  and  C_21
REMARK    8  A    between atoms: C_21  and  C_22
REMARK    9  A    between atoms: C_22  and  C_24
REMARK   10  A    between atoms: C_22  and  N_29
REMARK                            x       y       z     vdW  Elec       q    Type
REMARK                         _______ _______ _______ _____ _____    ______ ____
ROOT
ATOM      1  N   UNL     1      -0.844   2.866   6.580  0.00  0.00    -0.311 N 
ATOM      2  C   UNL     1      -1.586   3.542   7.480  0.00  0.00    +0.215 C 
ATOM      3  O   UNL     1      -1.330   3.458   8.662  0.00  0.00    -0.276 OA
ATOM      4  H   UNL     1      -1.049   2.933   5.634  0.00  0.00    +0.149 HD
ENDROOT
BRANCH   1   5
ATOM      5  C   UNL     1       0.272   2.030   7.030  0.00  0.00    +0.139 C 
BRANCH   5   9
ATOM      6  C   UNL     1       2.146   0.211   3.650  0.00  0.00    -0.064 A 
ATOM      7  C   UNL     1       2.582   1.442   4.103  0.00  0.00    +0.002 A 
ATOM      8  C   UNL     1       1.975   2.031   5.197  0.00  0.00    +0.005 A 
ATOM      9  C   UNL     1       0.932   1.388   5.838  0.00  0.00    -0.030 A 
ATOM     10  C   UNL     1       0.496   0.158   5.384  0.00  0.00    +0.005 A 
ATOM     11  C   UNL     1       1.100  -0.429   4.288  0.00  0.00    +0.002 A 
BRANCH   6  12
ATOM     12  C   UNL     1       2.808  -0.431   2.458  0.00  0.00    -0.043 C 
BRANCH  12  18
ATOM     13  C   UNL     1      -0.019   1.526   0.010  0.00  0.00    +0.005 C 
ATOM     14  C   UNL     1       0.002  -0.004   0.002  0.00  0.00    -0.031 C 
ATOM     15  C   UNL     1       0.721  -0.499  -1.257  0.00  0.00    +0.003 C 
ATOM     16  C   UNL     1       2.177  -0.027  -1.220  0.00  0.00    -0.031 C 
ATOM     17  C   UNL     1       2.839  -0.534   0.063  0.00  0.00    -0.075 C 
ATOM     18  N   UNL     1       2.123  -0.005   1.230  0.00  0.00    +0.383 N 
ATOM     19  C   UNL     1       0.744  -0.512   1.240  0.00  0.00    -0.075 C 
ATOM     20  C   UNL     1       2.924  -0.581  -2.434  0.00  0.00    +0.005 C 
ATOM     21  H   UNL     1       2.109   1.003   1.187  0.00  0.00    -0.081 HD
ENDBRANCH  12  18
ENDBRANCH   6  12
ENDBRANCH   5   9
ENDBRANCH   1   5
BRANCH   2  22
ATOM     22  C   UNL     1      -2.733   4.401   7.016  0.00  0.00    +0.123 C 
BRANCH  22  23
ATOM     23  C   UNL     1      -3.404   5.053   8.228  0.00  0.00    +0.120 C 
BRANCH  23  24
ATOM     24  N   UNL     1      -4.011   4.015   9.066  0.00  0.00    -0.292 N 
ATOM     25  C   UNL     1      -4.206   4.240  10.380  0.00  0.00    +0.298 C 
ATOM     26  O   UNL     1      -3.879   5.304  10.870  0.00  0.00    -0.253 OA
ATOM     27  N   UNL     1      -4.764   3.286  11.152  0.00  0.00    -0.313 N 
ATOM     28  H   UNL     1      -4.272   3.167   8.675  0.00  0.00    +0.151 HD
ATOM     29  H   UNL     1      -5.025   2.438  10.761  0.00  0.00    +0.146 HD
ATOM     30  H   UNL     1      -4.905   3.448  12.098  0.00  0.00    +0.146 HD
ENDBRANCH  23  24
BRANCH  23  31
ATOM     31  C   UNL     1      -4.471   6.007   7.758  0.00  0.00    +0.010 A 
ATOM     32  C   UNL     1      -4.416   7.356   7.634  0.00  0.00    +0.013 A 
ATOM     33  C   UNL     1      -5.531   8.033   7.177  0.00  0.00    +0.008 A 
ATOM     34  C   UNL     1      -6.646   7.329   6.865  0.00  0.00    +0.045 A 
ATOM     35  S   UNL     1      -6.134   5.654   7.213  0.00  0.00    -0.100 S 
ENDBRANCH  23  31
ENDBRANCH  22  23
ENDBRANCH   2  22
TORSDOF 8
