REMARK  Name = ZINC21506609
REMARK  5 active torsions:
REMARK  status: ('A' for Active; 'I' for Inactive)
REMARK    1  A    between atoms: C_4  and  N_8
REMARK    2  A    between atoms: N_8  and  S_9
REMARK    3  A    between atoms: S_9  and  C_12
REMARK    4  A    between atoms: C_15  and  C_17
REMARK    5  A    between atoms: C_17  and  C_18
REMARK                            x       y       z     vdW  Elec       q    Type
REMARK                         _______ _______ _______ _____ _____    ______ ____
ROOT
ATOM      1  S   UNL     1       2.436   5.378   0.724  0.00  0.00    +0.098 S 
ATOM      2  O   UNL     1       3.740   5.883   0.472  0.00  0.00    -0.148 OA
ATOM      3  O   UNL     1       1.260   6.079   0.343  0.00  0.00    -0.148 OA
ENDROOT
BRANCH   1   4
ATOM      4  C   UNL     1       2.325   5.118   2.463  0.00  0.00    +0.148 A 
ATOM      5  C   UNL     1       3.319   4.909   3.361  0.00  0.00    +0.037 A 
ATOM      6  C   UNL     1       2.994   4.727   4.692  0.00  0.00    +0.014 A 
ATOM      7  C   UNL     1       1.690   4.764   5.061  0.00  0.00    +0.002 A 
ATOM      8  S   UNL     1       0.874   5.069   3.502  0.00  0.00    -0.073 S 
BRANCH   7   9
ATOM      9  C   UNL     1       1.086   4.596   6.431  0.00  0.00    +0.167 C 
BRANCH   9  10
ATOM     10  C   UNL     1       0.985   5.941   7.104  0.00  0.00    +0.361 C 
ATOM     11  O   UNL     1       1.364   6.934   6.529  0.00  0.00    -0.246 OA
ATOM     12  O   UNL     1       0.474   6.036   8.341  0.00  0.00    -0.246 OA
ENDBRANCH   9  10
ENDBRANCH   7   9
ENDBRANCH   1   4
BRANCH   1  13
ATOM     13  N   UNL     1       2.356   3.891   0.001  0.00  0.00    -0.094 NA
BRANCH  13  17
ATOM     14  C   UNL     1      -1.011   1.492   0.525  0.00  0.00    +0.041 A 
ATOM     15  C   UNL     1       0.242   0.912   0.440  0.00  0.00    +0.043 A 
ATOM     16  C   UNL     1       1.361   1.705   0.264  0.00  0.00    +0.148 A 
ATOM     17  C   UNL     1       1.226   3.087   0.178  0.00  0.00    +0.112 A 
ATOM     18  C   UNL     1      -0.032   3.666   0.270  0.00  0.00    +0.068 A 
ATOM     19  C   UNL     1      -1.148   2.867   0.446  0.00  0.00    +0.125 A 
ATOM     20  F   UNL     1      -2.373   3.429   0.535  0.00  0.00    -0.205 F 
ATOM     21  F   UNL     1       2.584   1.138   0.175  0.00  0.00    -0.203 F 
ENDBRANCH  13  17
ENDBRANCH   1  13
TORSDOF 5
