REMARK  Name = ZINC12885394
REMARK  7 active torsions:
REMARK  status: ('A' for Active; 'I' for Inactive)
REMARK    1  A    between atoms: C_1  and  C_2
REMARK    2  A    between atoms: C_7  and  C_8
REMARK    3  A    between atoms: C_17  and  C_19
REMARK    4  A    between atoms: C_19  and  C_20
REMARK    5  A    between atoms: N_25  and  C_28
REMARK    6  A    between atoms: C_28  and  C_29
REMARK    7  A    between atoms: C_29  and  C_30
REMARK                            x       y       z     vdW  Elec       q    Type
REMARK                         _______ _______ _______ _____ _____    ______ ____
ROOT
ATOM      1  C   UNL     1       2.443   5.675  -4.000  0.00  0.00    +0.044 C 
ATOM      2  C   UNL     1       2.106   4.684  -2.916  0.00  0.00    -0.046 A 
ATOM      3  C   UNL     1       1.131   4.989  -1.984  0.00  0.00    +0.004 A 
ATOM      4  C   UNL     1       0.821   4.080  -0.988  0.00  0.00    +0.005 A 
ATOM      5  C   UNL     1       1.482   2.874  -0.926  0.00  0.00    -0.027 A 
ATOM      6  C   UNL     1       2.464   2.555  -1.860  0.00  0.00    +0.039 A 
ATOM      7  C   UNL     1       2.769   3.476  -2.859  0.00  0.00    -0.026 A 
ATOM      8  C   UNL     1       3.829   3.152  -3.880  0.00  0.00    +0.046 C 
ATOM      9  N   UNL     1       2.987   1.287  -1.596  0.00  0.00    -0.286 N 
ATOM     10  C   UNL     1       2.412   0.713  -0.522  0.00  0.00    +0.211 C 
ATOM     11  O   UNL     1       2.666  -0.380  -0.062  0.00  0.00    -0.277 OA
ATOM     12  C   UNL     1       1.395   1.692  -0.002  0.00  0.00    +0.050 C 
ATOM     13  C   UNL     1      -0.013   1.086   0.008  0.00  0.00    +0.088 C 
ATOM     14  C   UNL     1      -0.684   1.671   1.282  0.00  0.00    +0.073 C 
ATOM     15  C   UNL     1       0.385   2.597   1.901  0.00  0.00    -0.049 C 
ATOM     16  C   UNL     1      -1.818   2.503   0.728  0.00  0.00    +0.224 C 
ATOM     17  O   UNL     1      -2.609   3.139   1.390  0.00  0.00    -0.275 OA
ATOM     18  N   UNL     1      -1.813   2.428  -0.608  0.00  0.00    -0.241 N 
ATOM     19  C   UNL     1      -0.827   1.661  -1.128  0.00  0.00    +0.225 C 
ATOM     20  O   UNL     1      -0.626   1.460  -2.306  0.00  0.00    -0.275 OA
ATOM     21  H   UNL     1       3.684   0.868  -2.126  0.00  0.00    +0.155 HD
ATOM     22  N   UNL     1       1.650   2.078   1.375  0.00  0.00    +0.394 N 
ATOM     23  H   UNL     1       2.374   2.805   1.412  0.00  0.00    -0.083 HD
ATOM     24  H   UNL     1       1.954   1.264   1.921  0.00  0.00    -0.083 HD
ENDROOT
BRANCH  15  25
ATOM     25  C   UNL     1       0.340   2.515   3.428  0.00  0.00    +0.080 C 
BRANCH  25  26
ATOM     26  C   UNL     1       1.359   3.460   4.012  0.00  0.00    +0.209 C 
ATOM     27  O   UNL     1       2.053   4.132   3.279  0.00  0.00    -0.276 OA
ATOM     28  N   UNL     1       1.500   3.557   5.349  0.00  0.00    -0.329 N 
ATOM     29  H   UNL     1       0.945   3.019   5.936  0.00  0.00    +0.145 HD
ATOM     30  H   UNL     1       2.155   4.165   5.725  0.00  0.00    +0.145 HD
ENDBRANCH  25  26
ENDBRANCH  15  25
BRANCH  18  31
ATOM     31  C   UNL     1      -2.791   3.127  -1.445  0.00  0.00    +0.121 C 
BRANCH  31  32
ATOM     32  C   UNL     1      -2.259   4.518  -1.797  0.00  0.00    +0.054 C 
BRANCH  32  33
ATOM     33  C   UNL     1      -3.264   5.238  -2.658  0.00  0.00    -0.046 A 
ATOM     34  C   UNL     1      -3.203   5.126  -4.034  0.00  0.00    +0.004 A 
ATOM     35  C   UNL     1      -4.128   5.782  -4.823  0.00  0.00    +0.000 A 
ATOM     36  C   UNL     1      -5.110   6.559  -4.237  0.00  0.00    +0.000 A 
ATOM     37  C   UNL     1      -5.168   6.676  -2.860  0.00  0.00    +0.000 A 
ATOM     38  C   UNL     1      -4.245   6.015  -2.071  0.00  0.00    +0.004 A 
ENDBRANCH  32  33
ENDBRANCH  31  32
ENDBRANCH  18  31
TORSDOF 5
