REMARK  Name = ZINC39275422
REMARK  5 active torsions:
REMARK  status: ('A' for Active; 'I' for Inactive)
REMARK    1  A    between atoms: C_4  and  C_7
REMARK    2  A    between atoms: C_7  and  C_8
REMARK    3  A    between atoms: C_8  and  C_10
REMARK    4  A    between atoms: C_8  and  N_27
REMARK    5  A    between atoms: C_28  and  C_30
REMARK                            x       y       z     vdW  Elec       q    Type
REMARK                         _______ _______ _______ _____ _____    ______ ____
ROOT
ATOM      1  C   UNL     1       5.543  -1.588   1.383  0.00  0.00    +0.236 C 
ATOM      2  O   UNL     1       5.665  -2.786   1.529  0.00  0.00    -0.274 OA
ATOM      3  N   UNL     1       6.633  -0.816   1.207  0.00  0.00    -0.300 N 
ATOM      4  C   UNL     1       6.502   0.637   1.035  0.00  0.00    +0.106 C 
ATOM      5  C   UNL     1       7.225   1.048  -0.251  0.00  0.00    +0.009 C 
ATOM      6  C   UNL     1       8.669   0.547  -0.203  0.00  0.00    -0.037 C 
ATOM      7  C   UNL     1       8.685  -0.979  -0.104  0.00  0.00    +0.009 C 
ATOM      8  C   UNL     1       7.976  -1.411   1.190  0.00  0.00    +0.106 C 
ATOM      9  C   UNL     1       9.409   0.990  -1.466  0.00  0.00    +0.140 C 
ATOM     10  C   UNL     1       9.455   2.514  -1.403  0.00  0.00    +0.042 C 
ATOM     11  N   UNL     1       8.922   2.928  -2.485  0.00  0.00    -0.243 NA
ATOM     12  C   UNL     1       8.438   1.904  -3.230  0.00  0.00    +0.216 C 
ATOM     13  N   UNL     1       8.659   0.722  -2.693  0.00  0.00    -0.264 NA
ATOM     14  C   UNL     1       9.944   3.236  -0.173  0.00  0.00    +0.034 C 
ATOM     15  C   UNL     1       9.216   2.583   1.018  0.00  0.00    -0.076 C 
ATOM     16  N   UNL     1       9.353   1.125   0.963  0.00  0.00    +0.385 N 
ATOM     17  H   UNL     1       8.961   0.728   1.803  0.00  0.00    -0.085 HD
ATOM     18  H   UNL     1      10.333   0.890   0.918  0.00  0.00    -0.085 HD
ENDROOT
BRANCH   1  19
ATOM     19  C   UNL     1       4.171  -0.963   1.399  0.00  0.00    +0.164 C 
BRANCH  19  20
ATOM     20  N   UNL     1       3.229  -1.870   2.059  0.00  0.00    -0.297 N 
ATOM     21  C   UNL     1       3.018  -3.104   1.560  0.00  0.00    +0.280 C 
ATOM     22  O   UNL     1       3.611  -3.465   0.560  0.00  0.00    -0.267 OA
ATOM     23  H   UNL     1       2.756  -1.582   2.856  0.00  0.00    +0.150 HD
BRANCH  21  24
ATOM     24  C   UNL     1       2.075  -4.011   2.221  0.00  0.00    +0.189 A 
ATOM     25  C   UNL     1       1.774  -5.283   1.825  0.00  0.00    +0.054 A 
ATOM     26  C   UNL     1       0.832  -5.778   2.741  0.00  0.00    +0.042 A 
ATOM     27  C   UNL     1       0.602  -4.799   3.643  0.00  0.00    +0.196 A 
ATOM     28  O   UNL     1       1.357  -3.738   3.330  0.00  0.00    -0.458 OA
ENDBRANCH  21  24
ENDBRANCH  19  20
BRANCH  19  29
ATOM     29  C   UNL     1       3.711  -0.707  -0.038  0.00  0.00    +0.067 C 
BRANCH  29  33
ATOM     30  C   UNL     1      -0.017   1.378   0.010  0.00  0.00    +0.000 A 
ATOM     31  C   UNL     1       1.171   2.086   0.002  0.00  0.00    +0.000 A 
ATOM     32  C   UNL     1       2.377   1.411  -0.013  0.00  0.00    +0.004 A 
ATOM     33  C   UNL     1       2.396   0.029  -0.020  0.00  0.00    -0.045 A 
ATOM     34  C   UNL     1       1.208  -0.679  -0.012  0.00  0.00    +0.004 A 
ATOM     35  C   UNL     1       0.002  -0.004   0.002  0.00  0.00    +0.000 A 
ENDBRANCH  29  33
ENDBRANCH  19  29
ENDBRANCH   1  19
TORSDOF 5
