REMARK  Name = ZINC39676251
REMARK  4 active torsions:
REMARK  status: ('A' for Active; 'I' for Inactive)
REMARK    1  A    between atoms: C_11  and  C_13
REMARK    2  A    between atoms: C_13  and  N_14
REMARK    3  A    between atoms: C_15  and  C_17
REMARK    4  A    between atoms: C_28  and  C_30
REMARK                            x       y       z     vdW  Elec       q    Type
REMARK                         _______ _______ _______ _____ _____    ______ ____
ROOT
ATOM      1  C   UNL     1       8.299  -1.502   0.025  0.00  0.00    +0.100 C 
ATOM      2  C   UNL     1       8.150  -0.406   1.104  0.00  0.00    +0.121 C 
ATOM      3  N   UNL     1       9.149  -0.761   2.139  0.00  0.00    -0.296 N 
ATOM      4  C   UNL     1      10.327  -1.229   1.369  0.00  0.00    +0.115 C 
ATOM      5  C   UNL     1       9.730  -2.038   0.201  0.00  0.00    -0.004 C 
ATOM      6  C   UNL     1       9.699  -3.523   0.549  0.00  0.00    -0.010 C 
ATOM      7  C   UNL     1      11.134  -4.045   0.662  0.00  0.00    -0.082 C 
ATOM      8  N   UNL     1      11.835  -3.835  -0.610  0.00  0.00    +0.379 N 
ATOM      9  C   UNL     1      11.942  -2.398  -0.892  0.00  0.00    -0.082 C 
ATOM     10  C   UNL     1      10.541  -1.806  -1.071  0.00  0.00    -0.010 C 
ATOM     11  C   UNL     1       9.017  -0.678   3.478  0.00  0.00    +0.248 C 
ATOM     12  O   UNL     1       9.966  -0.919   4.198  0.00  0.00    -0.270 OA
ATOM     13  H   UNL     1      12.760  -4.234  -0.553  0.00  0.00    -0.086 HD
ATOM     14  H   UNL     1      11.323  -4.285  -1.354  0.00  0.00    -0.086 HD
ENDROOT
BRANCH  11  15
ATOM     15  C   UNL     1       7.719  -0.295   4.069  0.00  0.00    +0.057 A 
ATOM     16  C   UNL     1       6.904   0.640   3.427  0.00  0.00    +0.014 A 
ATOM     17  C   UNL     1       5.693   0.994   3.984  0.00  0.00    +0.002 A 
ATOM     18  C   UNL     1       5.283   0.425   5.178  0.00  0.00    +0.021 A 
ATOM     19  C   UNL     1       6.085  -0.501   5.822  0.00  0.00    +0.060 A 
ATOM     20  C   UNL     1       7.298  -0.870   5.271  0.00  0.00    +0.071 A 
ATOM     21 CL   UNL     1       8.300  -2.038   6.074  0.00  0.00    -0.081 Cl
ATOM     22 CL   UNL     1       5.562  -1.208   7.319  0.00  0.00    -0.082 Cl
ENDBRANCH  11  15
BRANCH   1  24
ATOM     23  N   UNL     1       6.857  -3.342  -0.785  0.00  0.00    -0.308 N 
ATOM     24  C   UNL     1       7.295  -2.603   0.254  0.00  0.00    +0.219 C 
ATOM     25  O   UNL     1       6.881  -2.823   1.372  0.00  0.00    -0.275 OA
ATOM     26  H   UNL     1       7.188  -3.166  -1.679  0.00  0.00    +0.149 HD
BRANCH  23  27
ATOM     27  C   UNL     1       5.881  -4.412  -0.562  0.00  0.00    +0.178 C 
BRANCH  27  38
ATOM     28  C   UNL     1       5.373  -6.377  -6.622  0.00  0.00    +0.001 A 
ATOM     29  C   UNL     1       6.272  -5.322  -6.530  0.00  0.00    +0.002 A 
ATOM     30  C   UNL     1       6.545  -4.732  -5.316  0.00  0.00    +0.028 A 
ATOM     31  C   UNL     1       5.910  -5.197  -4.163  0.00  0.00    +0.078 A 
ATOM     32  C   UNL     1       4.997  -6.270  -4.261  0.00  0.00    +0.065 A 
ATOM     33  C   UNL     1       4.735  -6.854  -5.498  0.00  0.00    +0.015 A 
ATOM     34  C   UNL     1       4.346  -6.736  -3.027  0.00  0.00    +0.259 A 
ATOM     35  O   UNL     1       3.549  -7.656  -3.042  0.00  0.00    -0.267 OA
ATOM     36  N   UNL     1       4.668  -6.104  -1.875  0.00  0.00    -0.309 N 
ATOM     37  H   UNL     1       4.258  -6.385  -1.042  0.00  0.00    +0.170 HD
ATOM     38  C   UNL     1       5.560  -5.079  -1.875  0.00  0.00    +0.128 A 
ATOM     39  N   UNL     1       6.150  -4.645  -2.947  0.00  0.00    -0.232 NA
ENDBRANCH  27  38
ENDBRANCH  23  27
ENDBRANCH   1  24
TORSDOF 4
