REMARK  Name = ZINC63874936
REMARK  6 active torsions:
REMARK  status: ('A' for Active; 'I' for Inactive)
REMARK    1  A    between atoms: C_7  and  C_10
REMARK    2  A    between atoms: C_10  and  C_11
REMARK    3  A    between atoms: N_15  and  C_19
REMARK    4  A    between atoms: C_19  and  C_20
REMARK    5  A    between atoms: N_22  and  C_23
REMARK    6  A    between atoms: C_26  and  C_29
REMARK                            x       y       z     vdW  Elec       q    Type
REMARK                         _______ _______ _______ _____ _____    ______ ____
ROOT
ATOM      1  C   UNL     1       0.459  -3.660  -1.464  0.00  0.00    +0.165 C 
ATOM      2  C   UNL     1      -0.430  -4.887  -1.493  0.00  0.00    +0.244 C 
ATOM      3  O   UNL     1      -0.200  -5.971  -1.002  0.00  0.00    -0.273 OA
ATOM      4  N   UNL     1      -1.532  -4.521  -2.178  0.00  0.00    -0.216 N 
ATOM      5  C   UNL     1      -1.463  -3.248  -2.582  0.00  0.00    +0.310 C 
ATOM      6  O   UNL     1      -2.337  -2.692  -3.217  0.00  0.00    -0.252 OA
ATOM      7  N   UNL     1      -0.314  -2.650  -2.207  0.00  0.00    -0.287 N 
ATOM      8  H   UNL     1      -0.048  -1.735  -2.389  0.00  0.00    +0.151 HD
ENDROOT
BRANCH   1   9
ATOM      9  C   UNL     1       0.699  -3.202  -0.024  0.00  0.00    +0.065 C 
BRANCH   9  16
ATOM     10  C   UNL     1      -0.001   1.332   0.043  0.00  0.00    +0.001 A 
ATOM     11  C   UNL     1       1.182   2.084   0.037  0.00  0.00    +0.002 A 
ATOM     12  C   UNL     1       2.406   1.516   0.014  0.00  0.00    +0.026 A 
ATOM     13  C   UNL     1       2.542   0.100  -0.006  0.00  0.00    +0.043 A 
ATOM     14  N   UNL     1       3.599  -0.675  -0.030  0.00  0.00    -0.380 N 
ATOM     15  C   UNL     1       3.153  -2.073  -0.042  0.00  0.00    +0.144 C 
ATOM     16  C   UNL     1       1.642  -2.027  -0.021  0.00  0.00    -0.039 C 
ATOM     17  C   UNL     1       1.307  -0.716   0.000  0.00  0.00    -0.001 A 
ATOM     18  C   UNL     1       0.015  -0.020   0.026  0.00  0.00    +0.010 A 
ATOM     19  H   UNL     1       4.521  -0.375  -0.039  0.00  0.00    +0.160 HD
ENDBRANCH   9  16
ENDBRANCH   1   9
BRANCH   4  20
ATOM     20  C   UNL     1      -2.666  -5.410  -2.448  0.00  0.00    +0.214 C 
BRANCH  20  21
ATOM     21  C   UNL     1      -3.669  -5.298  -1.329  0.00  0.00    +0.235 C 
ATOM     22  O   UNL     1      -3.458  -4.550  -0.398  0.00  0.00    -0.274 OA
ATOM     23  N   UNL     1      -4.801  -6.029  -1.363  0.00  0.00    -0.284 N 
ATOM     24  H   UNL     1      -5.001  -6.577  -2.138  0.00  0.00    +0.155 HD
BRANCH  23  25
ATOM     25  C   UNL     1      -5.684  -5.999  -0.283  0.00  0.00    +0.034 A 
ATOM     26  C   UNL     1      -5.867  -4.819   0.431  0.00  0.00    +0.024 A 
ATOM     27  C   UNL     1      -6.737  -4.785   1.497  0.00  0.00    +0.020 A 
ATOM     28  C   UNL     1      -7.437  -5.938   1.863  0.00  0.00    +0.052 A 
ATOM     29  C   UNL     1      -7.251  -7.122   1.143  0.00  0.00    +0.020 A 
ATOM     30  C   UNL     1      -6.383  -7.147   0.075  0.00  0.00    +0.024 A 
BRANCH  28  31
ATOM     31  C   UNL     1      -8.343  -5.907   2.972  0.00  0.00    +0.099 C 
ATOM     32  N   UNL     1      -9.061  -5.883   3.851  0.00  0.00    -0.191 NA
ENDBRANCH  28  31
ENDBRANCH  23  25
ENDBRANCH  20  21
ENDBRANCH   4  20
TORSDOF 6
