REMARK  Name = ZINC36206247
REMARK  13 active torsions:
REMARK  status: ('A' for Active; 'I' for Inactive)
REMARK    1  A    between atoms: C_1  and  C_2
REMARK    2  A    between atoms: C_2  and  C_3
REMARK    3  A    between atoms: C_2  and  O_4
REMARK    4  A    between atoms: O_4  and  C_5
REMARK    5  A    between atoms: C_5  and  C_6
REMARK    6  A    between atoms: C_6  and  C_8
REMARK    7  A    between atoms: C_6  and  O_35
REMARK    8  A    between atoms: C_8  and  N_9
REMARK    9  A    between atoms: N_9  and  C_10
REMARK   10  A    between atoms: N_9  and  C_16
REMARK   11  A    between atoms: C_10  and  C_11
REMARK   12  A    between atoms: C_16  and  C_17
REMARK   13  A    between atoms: C_23  and  C_28
REMARK                            x       y       z     vdW  Elec       q    Type
REMARK                         _______ _______ _______ _____ _____    ______ ____
ROOT
ATOM      1  C   UNL     1       0.381  -1.656   7.254  0.00  0.00    -0.003 C 
ENDROOT
BRANCH   1   2
ATOM      2  C   UNL     1       1.426  -2.076   8.255  0.00  0.00    +0.094 A 
ATOM      3  N   UNL     1       1.083  -2.206   9.563  0.00  0.00    -0.312 N 
ATOM      4  H   UNL     1       0.170  -2.026   9.835  0.00  0.00    +0.170 HD
ATOM      5  C   UNL     1       1.986  -2.580  10.488  0.00  0.00    +0.260 A 
ATOM      6  O   UNL     1       1.663  -2.692  11.658  0.00  0.00    -0.267 OA
ATOM      7  C   UNL     1       3.332  -2.844  10.078  0.00  0.00    +0.080 A 
ATOM      8  C   UNL     1       4.477  -3.257  10.880  0.00  0.00    +0.006 A 
ATOM      9  C   UNL     1       5.668  -3.450  10.264  0.00  0.00    +0.056 A 
ATOM     10  S   UNL     1       5.314  -3.082   8.556  0.00  0.00    -0.076 S 
ATOM     11  C   UNL     1       3.592  -2.683   8.707  0.00  0.00    +0.116 A 
ATOM     12  N   UNL     1       2.644  -2.314   7.849  0.00  0.00    -0.229 NA
BRANCH   8  13
ATOM     13  C   UNL     1       4.340  -3.463  12.342  0.00  0.00    +0.019 A 
ATOM     14  C   UNL     1       5.022  -2.635  13.232  0.00  0.00    +0.011 A 
ATOM     15  C   UNL     1       4.891  -2.831  14.591  0.00  0.00    +0.001 A 
ATOM     16  C   UNL     1       4.084  -3.846  15.073  0.00  0.00    +0.003 A 
ATOM     17  C   UNL     1       3.405  -4.672  14.197  0.00  0.00    +0.039 A 
ATOM     18  C   UNL     1       3.523  -4.483  12.832  0.00  0.00    +0.131 A 
ATOM     19  F   UNL     1       2.855  -5.287  11.976  0.00  0.00    -0.205 F 
ENDBRANCH   8  13
ENDBRANCH   1   2
BRANCH   1  20
ATOM     20  N   UNL     1       0.983  -1.591   5.916  0.00  0.00    +0.391 N 
ATOM     21  H   UNL     1       1.787  -0.983   5.938  0.00  0.00    -0.080 HD
BRANCH  20  22
ATOM     22  C   UNL     1      -0.003  -1.067   4.960  0.00  0.00    -0.044 C 
BRANCH  22  23
ATOM     23  C   UNL     1      -0.329   0.386   5.310  0.00  0.00    +0.124 C 
BRANCH  23  24
ATOM     24  O   UNL     1       0.856   1.178   5.207  0.00  0.00    -0.391 OA
ATOM     25  H   UNL     1       1.215   1.235   4.311  0.00  0.00    +0.210 HD
ENDBRANCH  23  24
BRANCH  23  26
ATOM     26  C   UNL     1      -1.384   0.919   4.339  0.00  0.00    +0.189 C 
BRANCH  26  27
ATOM     27  O   UNL     1      -1.774   2.236   4.735  0.00  0.00    -0.375 OA
BRANCH  27  29
ATOM     28  C   UNL     1      -4.157   2.483   4.415  0.00  0.00    +0.037 C 
ATOM     29  C   UNL     1      -2.762   2.829   3.890  0.00  0.00    +0.112 C 
ATOM     30  C   UNL     1      -2.581   4.348   3.883  0.00  0.00    +0.037 C 
ENDBRANCH  27  29
ENDBRANCH  26  27
ENDBRANCH  23  26
ENDBRANCH  22  23
ENDBRANCH  20  22
BRANCH  20  31
ATOM     31  C   UNL     1       1.399  -2.938   5.501  0.00  0.00    -0.002 C 
BRANCH  31  32
ATOM     32  C   UNL     1       2.144  -2.853   4.194  0.00  0.00    +0.089 A 
ATOM     33  C   UNL     1       3.454  -2.581   4.051  0.00  0.00    +0.042 A 
ATOM     34  C   UNL     1       3.728  -2.601   2.665  0.00  0.00    +0.041 A 
ATOM     35  C   UNL     1       2.569  -2.884   2.042  0.00  0.00    +0.195 A 
ATOM     36  O   UNL     1       1.615  -3.041   2.974  0.00  0.00    -0.470 OA
ENDBRANCH  31  32
ENDBRANCH  20  31
ENDBRANCH   1  20
TORSDOF 11
