REMARK  Name = ZINC61503312
REMARK  11 active torsions:
REMARK  status: ('A' for Active; 'I' for Inactive)
REMARK    1  A    between atoms: C_1  and  C_2
REMARK    2  A    between atoms: C_5  and  C_8
REMARK    3  A    between atoms: C_8  and  C_9
REMARK    4  A    between atoms: C_8  and  N_22
REMARK    5  A    between atoms: C_9  and  N_10
REMARK    6  A    between atoms: C_11  and  C_13
REMARK    7  A    between atoms: C_13  and  C_14
REMARK    8  A    between atoms: C_13  and  N_18
REMARK    9  A    between atoms: C_14  and  C_15
REMARK   10  A    between atoms: C_15  and  S_16
REMARK   11  A    between atoms: S_16  and  C_17
REMARK                            x       y       z     vdW  Elec       q    Type
REMARK                         _______ _______ _______ _____ _____    ______ ____
ROOT
ATOM      1  N   UNL     1       2.335  -4.280  -0.895  0.00  0.00    -0.315 N 
ATOM      2  C   UNL     1       3.651  -4.571  -0.891  0.00  0.00    +0.233 C 
ATOM      3  O   UNL     1       4.155  -5.083   0.086  0.00  0.00    -0.274 OA
ATOM      4  H   UNL     1       1.931  -3.871  -1.677  0.00  0.00    +0.149 HD
ENDROOT
BRANCH   1   5
ATOM      5  C   UNL     1       1.514  -4.583   0.280  0.00  0.00    +0.093 C 
BRANCH   5   6
ATOM      6  C   UNL     1       0.099  -4.040   0.067  0.00  0.00    -0.020 C 
BRANCH   6  11
ATOM      7  C   UNL     1       0.267   1.731  -0.193  0.00  0.00    +0.044 C 
ATOM      8  C   UNL     1       0.223   0.226  -0.125  0.00  0.00    -0.050 A 
ATOM      9  C   UNL     1       0.152  -0.516  -1.289  0.00  0.00    +0.003 A 
ATOM     10  C   UNL     1       0.112  -1.897  -1.227  0.00  0.00    +0.002 A 
ATOM     11  C   UNL     1       0.144  -2.535  -0.001  0.00  0.00    -0.059 A 
ATOM     12  C   UNL     1       0.216  -1.792   1.163  0.00  0.00    +0.002 A 
ATOM     13  C   UNL     1       0.260  -0.412   1.101  0.00  0.00    +0.003 A 
ENDBRANCH   6  11
BRANCH   6  14
ATOM     14  N   UNL     1      -0.758  -4.454   1.185  0.00  0.00    +0.385 N 
ATOM     15  C   UNL     1      -2.140  -3.947   0.987  0.00  0.00    -0.078 C 
ATOM     16  C   UNL     1      -2.994  -4.890   1.870  0.00  0.00    -0.020 C 
ATOM     17  C   UNL     1      -2.303  -6.260   1.682  0.00  0.00    -0.020 C 
ATOM     18  C   UNL     1      -0.871  -5.928   1.222  0.00  0.00    -0.078 C 
ATOM     19  H   UNL     1      -0.382  -4.113   2.057  0.00  0.00    -0.081 HD
ENDBRANCH   6  14
ENDBRANCH   5   6
ENDBRANCH   1   5
BRANCH   2  20
ATOM     20  C   UNL     1       4.496  -4.260  -2.099  0.00  0.00    +0.161 C 
BRANCH  20  21
ATOM     21  N   UNL     1       5.719  -5.065  -2.060  0.00  0.00    -0.288 N 
ATOM     22  C   UNL     1       6.574  -4.943  -1.026  0.00  0.00    +0.298 C 
ATOM     23  O   UNL     1       6.330  -4.164  -0.124  0.00  0.00    -0.253 OA
ATOM     24  N   UNL     1       7.699  -5.684  -0.990  0.00  0.00    -0.313 N 
ATOM     25  H   UNL     1       5.914  -5.686  -2.780  0.00  0.00    +0.151 HD
ATOM     26  H   UNL     1       7.894  -6.305  -1.709  0.00  0.00    +0.146 HD
ATOM     27  H   UNL     1       8.314  -5.596  -0.245  0.00  0.00    +0.146 HD
ENDBRANCH  20  21
BRANCH  20  28
ATOM     28  C   UNL     1       4.863  -2.775  -2.096  0.00  0.00    +0.042 C 
BRANCH  28  29
ATOM     29  C   UNL     1       5.614  -2.432  -3.385  0.00  0.00    +0.071 C 
BRANCH  29  30
ATOM     30  S   UNL     1       6.049  -0.671  -3.381  0.00  0.00    -0.164 S 
ATOM     31  C   UNL     1       6.921  -0.432  -4.954  0.00  0.00    +0.084 C 
ENDBRANCH  29  30
ENDBRANCH  28  29
ENDBRANCH  20  28
ENDBRANCH   2  20
TORSDOF 9
