REMARK  Name = ZINC39948712
REMARK  5 active torsions:
REMARK  status: ('A' for Active; 'I' for Inactive)
REMARK    1  A    between atoms: C_8  and  C_13
REMARK    2  A    between atoms: N_14  and  N_15
REMARK    3  A    between atoms: C_16  and  C_18
REMARK    4  A    between atoms: C_18  and  N_19
REMARK    5  A    between atoms: C_20  and  C_22
REMARK                            x       y       z     vdW  Elec       q    Type
REMARK                         _______ _______ _______ _____ _____    ______ ____
ROOT
ATOM      1  N   UNL     1       3.002  -5.642  -2.272  0.00  0.00    -0.206 N 
ATOM      2  C   UNL     1       3.085  -6.981  -2.137  0.00  0.00    +0.249 C 
ATOM      3  O   UNL     1       3.084  -7.481  -1.032  0.00  0.00    -0.272 OA
ATOM      4  H   UNL     1       3.002  -5.242  -3.155  0.00  0.00    +0.177 HD
ENDROOT
BRANCH   1   6
ATOM      5  C   UNL     1       2.835  -3.557  -1.262  0.00  0.00    +0.120 C 
ATOM      6  N   UNL     1       2.914  -4.828  -1.135  0.00  0.00    -0.192 NA
BRANCH   5  14
ATOM      7  C   UNL     1      -0.016   1.354   0.009  0.00  0.00    +0.001 A 
ATOM      8  C   UNL     1       1.165   2.097   0.002  0.00  0.00    +0.002 A 
ATOM      9  C   UNL     1       2.394   1.518  -0.013  0.00  0.00    +0.024 A 
ATOM     10  C   UNL     1       2.524   0.117  -0.021  0.00  0.00    +0.040 A 
ATOM     11  N   UNL     1       3.736  -0.439  -0.035  0.00  0.00    -0.284 N 
ATOM     12  C   UNL     1       3.929  -1.747  -0.045  0.00  0.00    +0.229 C 
ATOM     13  O   UNL     1       5.060  -2.197  -0.058  0.00  0.00    -0.274 OA
ATOM     14  C   UNL     1       2.741  -2.681  -0.039  0.00  0.00    +0.141 C 
ATOM     15  C   UNL     1       1.361  -2.054  -0.022  0.00  0.00    +0.001 C 
ATOM     16  C   UNL     1       1.294  -0.692  -0.014  0.00  0.00    -0.007 A 
ATOM     17  C   UNL     1       0.002  -0.004   0.002  0.00  0.00    +0.009 A 
ATOM     18  H   UNL     1       4.511   0.143  -0.039  0.00  0.00    +0.155 HD
ENDBRANCH   5  14
ENDBRANCH   1   6
BRANCH   2  19
ATOM     19  C   UNL     1       3.179  -7.856  -3.360  0.00  0.00    +0.202 C 
BRANCH  19  20
ATOM     20  N   UNL     1       3.259  -9.260  -2.951  0.00  0.00    -0.303 N 
ATOM     21  C   UNL     1       3.350 -10.230  -3.882  0.00  0.00    +0.245 C 
ATOM     22  O   UNL     1       3.367  -9.939  -5.063  0.00  0.00    -0.270 OA
ATOM     23  H   UNL     1       3.245  -9.492  -2.009  0.00  0.00    +0.150 HD
BRANCH  21  24
ATOM     24  C   UNL     1       3.430 -11.647  -3.469  0.00  0.00    +0.038 A 
ATOM     25  C   UNL     1       3.405 -11.984  -2.114  0.00  0.00    +0.014 A 
ATOM     26  C   UNL     1       3.480 -13.307  -1.734  0.00  0.00    +0.022 A 
ATOM     27  C   UNL     1       3.580 -14.302  -2.693  0.00  0.00    +0.059 A 
ATOM     28  C   UNL     1       3.606 -13.974  -4.039  0.00  0.00    +0.060 A 
ATOM     29  C   UNL     1       3.525 -12.653  -4.432  0.00  0.00    +0.034 A 
ATOM     30 CL   UNL     1       3.731 -15.227  -5.234  0.00  0.00    -0.082 Cl
ATOM     31 CL   UNL     1       3.675 -15.965  -2.206  0.00  0.00    -0.082 Cl
ENDBRANCH  21  24
ENDBRANCH  19  20
ENDBRANCH   2  19
TORSDOF 5
