REMARK  Name = ZINC20918407
REMARK  12 active torsions:
REMARK  status: ('A' for Active; 'I' for Inactive)
REMARK    1  A    between atoms: C_1  and  C_2
REMARK    2  A    between atoms: C_5  and  C_40
REMARK    3  A    between atoms: N_8  and  C_10
REMARK    4  A    between atoms: C_10  and  C_11
REMARK    5  A    between atoms: C_11  and  C_12
REMARK    6  A    between atoms: C_12  and  N_13
REMARK    7  A    between atoms: C_14  and  C_16
REMARK    8  A    between atoms: C_16  and  C_39
REMARK    9  A    between atoms: C_21  and  O_37
REMARK   10  A    between atoms: N_29  and  C_30
REMARK   11  A    between atoms: C_30  and  C_31
REMARK   12  A    between atoms: O_37  and  C_38
REMARK                            x       y       z     vdW  Elec       q    Type
REMARK                         _______ _______ _______ _____ _____    ______ ____
ROOT
ATOM      1  C   UNL     1       7.354  -2.176   3.948  0.00  0.00    +0.129 C 
ATOM      2  C   UNL     1       7.992  -2.396   5.318  0.00  0.00    +0.157 C 
ATOM      3  N   UNL     1       7.752  -1.219   6.160  0.00  0.00    -0.334 N 
ATOM      4  C   UNL     1       7.625  -1.114   7.505  0.00  0.00    +0.053 A 
ATOM      5  C   UNL     1       7.662  -2.065   8.524  0.00  0.00    +0.072 A 
ATOM      6  C   UNL     1       7.497  -1.604   9.823  0.00  0.00    +0.122 A 
ATOM      7  C   UNL     1       7.301  -0.256  10.111  0.00  0.00    +0.046 A 
ATOM      8  C   UNL     1       7.260   0.699   9.130  0.00  0.00    +0.013 A 
ATOM      9  C   UNL     1       7.423   0.261   7.807  0.00  0.00    +0.001 A 
ATOM     10  C   UNL     1       7.429   0.962   6.588  0.00  0.00    +0.041 A 
ATOM     11  C   UNL     1       7.621   0.058   5.604  0.00  0.00    +0.106 A 
ATOM     12  C   UNL     1       7.686   0.251   4.145  0.00  0.00    +0.264 C 
ATOM     13  O   UNL     1       7.751   1.360   3.648  0.00  0.00    -0.268 OA
ATOM     14  N   UNL     1       7.671  -0.869   3.385  0.00  0.00    -0.276 N 
ATOM     15  C   UNL     1       7.854  -3.260   2.992  0.00  0.00    +0.043 C 
ENDROOT
BRANCH   1  17
ATOM     16  N   UNL     1       5.050  -1.758   3.149  0.00  0.00    -0.314 N 
ATOM     17  C   UNL     1       5.858  -2.299   4.083  0.00  0.00    +0.238 C 
ATOM     18  O   UNL     1       5.380  -2.884   5.032  0.00  0.00    -0.273 OA
ATOM     19  H   UNL     1       5.431  -1.355   2.353  0.00  0.00    +0.149 HD
BRANCH  16  20
ATOM     20  C   UNL     1       3.598  -1.778   3.336  0.00  0.00    +0.102 C 
BRANCH  20  21
ATOM     21  C   UNL     1       2.915  -1.216   2.087  0.00  0.00    +0.000 C 
BRANCH  21  22
ATOM     22  C   UNL     1       1.397  -1.349   2.232  0.00  0.00    -0.077 C 
BRANCH  22  28
ATOM     23  C   UNL     1       0.669   2.685  -0.443  0.00  0.00    +0.005 C 
ATOM     24  C   UNL     1       0.394   1.183  -0.349  0.00  0.00    -0.031 C 
ATOM     25  C   UNL     1      -1.118   0.940  -0.335  0.00  0.00    +0.003 C 
ATOM     26  C   UNL     1      -1.382  -0.558  -0.162  0.00  0.00    -0.031 C 
ATOM     27  C   UNL     1      -0.704  -1.046   1.120  0.00  0.00    -0.076 C 
ATOM     28  N   UNL     1       0.742  -0.810   1.034  0.00  0.00    +0.380 N 
ATOM     29  C   UNL     1       1.007   0.631   0.939  0.00  0.00    -0.076 C 
ATOM     30  C   UNL     1      -2.890  -0.804  -0.069  0.00  0.00    +0.005 C 
ATOM     31  H   UNL     1       1.109  -1.272   0.215  0.00  0.00    -0.082 HD
ENDBRANCH  22  28
ENDBRANCH  21  22
ENDBRANCH  20  21
ENDBRANCH  16  20
ENDBRANCH   1  17
BRANCH   6  32
ATOM     32  O   UNL     1       7.525  -2.497  10.846  0.00  0.00    -0.495 OA
ATOM     33  C   UNL     1       7.350  -1.978  12.166  0.00  0.00    +0.277 C 
ENDBRANCH   6  32
BRANCH  14  34
ATOM     34  C   UNL     1       7.981  -0.765   1.958  0.00  0.00    +0.144 C 
BRANCH  34  35
ATOM     35  C   UNL     1       9.475  -0.792   1.765  0.00  0.00    -0.030 A 
ATOM     36  C   UNL     1      10.212   0.370   1.907  0.00  0.00    +0.005 A 
ATOM     37  C   UNL     1      11.582   0.345   1.730  0.00  0.00    +0.000 A 
ATOM     38  C   UNL     1      12.217  -0.841   1.413  0.00  0.00    +0.000 A 
ATOM     39  C   UNL     1      11.481  -2.003   1.272  0.00  0.00    +0.000 A 
ATOM     40  C   UNL     1      10.111  -1.979   1.453  0.00  0.00    +0.005 A 
ENDBRANCH  34  35
ENDBRANCH  14  34
TORSDOF 8
