REMARK  Name = ZINC39654391
REMARK  8 active torsions:
REMARK  status: ('A' for Active; 'I' for Inactive)
REMARK    1  A    between atoms: C_1  and  C_2
REMARK    2  A    between atoms: C_2  and  C_3
REMARK    3  A    between atoms: C_6  and  C_9
REMARK    4  A    between atoms: C_9  and  C_10
REMARK    5  A    between atoms: C_10  and  N_11
REMARK    6  A    between atoms: C_12  and  C_14
REMARK    7  A    between atoms: C_25  and  C_27
REMARK    8  A    between atoms: C_31  and  C_33
REMARK                            x       y       z     vdW  Elec       q    Type
REMARK                         _______ _______ _______ _____ _____    ______ ____
ROOT
ATOM      1  C   UNL     1       5.330  -1.195  -9.356  0.00  0.00    +0.100 C 
ATOM      2  C   UNL     1       4.136  -1.939  -9.994  0.00  0.00    +0.121 C 
ATOM      3  N   UNL     1       3.546  -0.960 -10.938  0.00  0.00    -0.296 N 
ATOM      4  C   UNL     1       4.717  -0.280 -11.543  0.00  0.00    +0.115 C 
ATOM      5  C   UNL     1       5.711  -0.110 -10.377  0.00  0.00    -0.004 C 
ATOM      6  C   UNL     1       7.140  -0.323 -10.867  0.00  0.00    -0.010 C 
ATOM      7  C   UNL     1       7.516   0.801 -11.837  0.00  0.00    -0.082 C 
ATOM      8  N   UNL     1       7.399   2.096 -11.156  0.00  0.00    +0.379 N 
ATOM      9  C   UNL     1       6.003   2.334 -10.771  0.00  0.00    -0.082 C 
ATOM     10  C   UNL     1       5.563   1.275  -9.756  0.00  0.00    -0.010 C 
ATOM     11  C   UNL     1       2.241  -0.738 -11.190  0.00  0.00    +0.247 C 
ATOM     12  O   UNL     1       1.390  -1.290 -10.519  0.00  0.00    -0.270 OA
ATOM     13  H   UNL     1       7.979   2.094 -10.330  0.00  0.00    -0.086 HD
ATOM     14  H   UNL     1       7.705   2.830 -11.777  0.00  0.00    -0.086 HD
ENDROOT
BRANCH  11  15
ATOM     15  C   UNL     1       1.844   0.177 -12.281  0.00  0.00    +0.037 A 
ATOM     16  C   UNL     1       2.739   0.469 -13.311  0.00  0.00    +0.014 A 
ATOM     17  C   UNL     1       2.363   1.323 -14.326  0.00  0.00    +0.016 A 
ATOM     18  C   UNL     1       1.100   1.891 -14.325  0.00  0.00    +0.021 A 
ATOM     19  C   UNL     1       0.207   1.605 -13.306  0.00  0.00    -0.036 A 
ATOM     20  C   UNL     1       0.570   0.747 -12.288  0.00  0.00    +0.017 A 
ATOM     21  C   UNL     1      -1.165   2.227 -13.311  0.00  0.00    +0.045 C 
ATOM     22 BR   UNL     1       0.592   3.062 -15.720  0.00  0.00    -0.050 Br
ENDBRANCH  11  15
BRANCH   1  24
ATOM     23  N   UNL     1       5.849  -0.292  -7.113  0.00  0.00    -0.315 N 
ATOM     24  C   UNL     1       4.920  -0.566  -8.050  0.00  0.00    +0.218 C 
ATOM     25  O   UNL     1       3.754  -0.305  -7.843  0.00  0.00    -0.275 OA
ATOM     26  H   UNL     1       6.781  -0.500  -7.279  0.00  0.00    +0.149 HD
BRANCH  23  27
ATOM     27  C   UNL     1       5.449   0.320  -5.843  0.00  0.00    +0.109 C 
BRANCH  27  28
ATOM     28  C   UNL     1       6.685   0.524  -4.964  0.00  0.00    +0.054 C 
BRANCH  28  32
ATOM     29  C   UNL     1       5.523   2.309  -1.261  0.00  0.00    -0.048 A 
ATOM     30  C   UNL     1       5.552   0.932  -1.386  0.00  0.00    +0.004 A 
ATOM     31  C   UNL     1       5.928   0.355  -2.584  0.00  0.00    +0.004 A 
ATOM     32  C   UNL     1       6.274   1.153  -3.658  0.00  0.00    -0.046 A 
ATOM     33  C   UNL     1       6.245   2.530  -3.533  0.00  0.00    +0.004 A 
ATOM     34  C   UNL     1       5.865   3.107  -2.336  0.00  0.00    +0.004 A 
BRANCH  29  36
ATOM     35  C   UNL     1       3.599   3.156   0.054  0.00  0.00    +0.009 C 
ATOM     36  C   UNL     1       5.114   2.938   0.045  0.00  0.00    +0.032 C 
ENDBRANCH  29  36
ENDBRANCH  28  32
ENDBRANCH  27  28
ENDBRANCH  23  27
ENDBRANCH   1  24
TORSDOF 6
