REMARK  Name = ZINC40914671
REMARK  10 active torsions:
REMARK  status: ('A' for Active; 'I' for Inactive)
REMARK    1  A    between atoms: C_1  and  C_2
REMARK    2  A    between atoms: C_2  and  O_3
REMARK    3  A    between atoms: O_3  and  C_4
REMARK    4  A    between atoms: C_6  and  C_19
REMARK    5  A    between atoms: C_9  and  O_10
REMARK    6  A    between atoms: O_10  and  C_11
REMARK    7  A    between atoms: C_11  and  C_12
REMARK    8  A    between atoms: C_15  and  C_18
REMARK    9  A    between atoms: C_21  and  C_30
REMARK   10  A    between atoms: C_22  and  C_29
REMARK                            x       y       z     vdW  Elec       q    Type
REMARK                         _______ _______ _______ _____ _____    ______ ____
ROOT
ATOM      1  C   UNL     1      -1.750  -1.979  -0.433  0.00  0.00    +0.162 A 
ATOM      2  C   UNL     1      -0.603  -2.738  -0.260  0.00  0.00    +0.055 A 
ATOM      3  C   UNL     1      -0.684  -4.117  -0.229  0.00  0.00    -0.015 A 
ATOM      4  C   UNL     1      -1.909  -4.744  -0.372  0.00  0.00    +0.010 A 
ATOM      5  C   UNL     1      -3.057  -3.993  -0.546  0.00  0.00    +0.050 A 
ATOM      6  C   UNL     1      -2.982  -2.610  -0.571  0.00  0.00    +0.162 A 
ENDROOT
BRANCH   3   7
ATOM      7  C   UNL     1       0.564  -4.940  -0.041  0.00  0.00    +0.177 C 
ATOM      8  C   UNL     1       0.433  -5.772   1.207  0.00  0.00    +0.060 C 
ATOM      9  C   UNL     1       0.246  -7.100   1.185  0.00  0.00    +0.018 C 
ATOM     10  N   UNL     1       0.170  -7.810   0.012  0.00  0.00    -0.287 N 
ATOM     11  C   UNL     1       0.553  -7.160  -1.153  0.00  0.00    +0.218 A 
ATOM     12  N   UNL     1       0.747  -5.818  -1.194  0.00  0.00    -0.221 N 
ATOM     13  N   UNL     1       1.129  -5.511  -2.499  0.00  0.00    -0.156 NA
ATOM     14  C   UNL     1       1.143  -6.640  -3.164  0.00  0.00    +0.247 A 
ATOM     15  N   UNL     1       0.791  -7.637  -2.345  0.00  0.00    -0.201 NA
ATOM     16  C   UNL     1       0.114  -7.838   2.492  0.00  0.00    +0.061 C 
ATOM     17  H   UNL     1      -0.140  -8.729  -0.002  0.00  0.00    +0.155 HD
BRANCH   8  18
ATOM     18  C   UNL     1       0.511  -5.123   2.462  0.00  0.00    +0.241 C 
ATOM     19  O   UNL     1       1.587  -4.735   2.880  0.00  0.00    -0.271 OA
ATOM     20  N   UNL     1      -0.605  -4.934   3.194  0.00  0.00    -0.325 N 
ATOM     21  H   UNL     1      -1.462  -5.244   2.860  0.00  0.00    +0.145 HD
ATOM     22  H   UNL     1      -0.551  -4.489   4.054  0.00  0.00    +0.145 HD
ENDBRANCH   8  18
ENDBRANCH   3   7
BRANCH   1  23
ATOM     23  O   UNL     1      -1.671  -0.622  -0.462  0.00  0.00    -0.489 OA
BRANCH  23  25
ATOM     24  C   UNL     1      -0.483   1.481  -0.373  0.00  0.00    +0.048 C 
ATOM     25  C   UNL     1      -0.373  -0.044  -0.315  0.00  0.00    +0.226 C 
ENDBRANCH  23  25
ENDBRANCH   1  23
BRANCH   6  26
ATOM     26  O   UNL     1      -4.112  -1.870  -0.735  0.00  0.00    -0.484 OA
BRANCH  26  27
ATOM     27  C   UNL     1      -5.342  -2.584  -0.870  0.00  0.00    +0.264 C 
BRANCH  27  28
ATOM     28  C   UNL     1      -6.475  -1.606  -1.043  0.00  0.00    -0.010 A 
ATOM     29  C   UNL     1      -7.141  -1.118   0.066  0.00  0.00    +0.007 A 
ATOM     30  C   UNL     1      -8.181  -0.220  -0.092  0.00  0.00    +0.004 A 
ATOM     31  C   UNL     1      -8.553   0.190  -1.358  0.00  0.00    -0.050 A 
ATOM     32  C   UNL     1      -7.886  -0.297  -2.467  0.00  0.00    +0.004 A 
ATOM     33  C   UNL     1      -6.844  -1.192  -2.309  0.00  0.00    +0.007 A 
ATOM     34  C   UNL     1      -9.687   1.167  -1.530  0.00  0.00    +0.044 C 
ENDBRANCH  27  28
ENDBRANCH  26  27
ENDBRANCH   6  26
TORSDOF 7
