REMARK  Name = ZINC39403986
REMARK  10 active torsions:
REMARK  status: ('A' for Active; 'I' for Inactive)
REMARK    1  A    between atoms: C_1  and  C_2
REMARK    2  A    between atoms: C_2  and  C_3
REMARK    3  A    between atoms: C_2  and  C_4
REMARK    4  A    between atoms: C_6  and  C_25
REMARK    5  A    between atoms: C_7  and  O_24
REMARK    6  A    between atoms: C_8  and  C_10
REMARK    7  A    between atoms: N_12  and  N_13
REMARK    8  A    between atoms: C_14  and  C_15
REMARK    9  A    between atoms: C_25  and  C_26
REMARK   10  A    between atoms: C_25  and  C_27
REMARK                            x       y       z     vdW  Elec       q    Type
REMARK                         _______ _______ _______ _____ _____    ______ ____
ROOT
ATOM      1  C   UNL     1      -4.471  -0.346   2.177  0.00  0.00    +0.267 C 
ATOM      2  O   UNL     1      -5.612  -0.768   2.183  0.00  0.00    -0.268 OA
ATOM      3  N   UNL     1      -4.036   0.433   3.187  0.00  0.00    -0.203 N 
ATOM      4  H   UNL     1      -3.126   0.770   3.183  0.00  0.00    +0.178 HD
ENDROOT
BRANCH   1   9
ATOM      5  C   UNL     1      -1.412  -0.526   0.013  0.00  0.00    -0.044 A 
ATOM      6  C   UNL     1      -1.859  -1.327  -1.025  0.00  0.00    +0.011 A 
ATOM      7  C   UNL     1      -3.152  -1.811  -1.027  0.00  0.00    -0.002 A 
ATOM      8  C   UNL     1      -4.013  -1.497   0.013  0.00  0.00    +0.132 A 
ATOM      9  C   UNL     1      -3.565  -0.687   1.066  0.00  0.00    +0.080 A 
ATOM     10  C   UNL     1      -2.252  -0.208   1.057  0.00  0.00    +0.020 A 
BRANCH   5  12
ATOM     11  C   UNL     1      -0.019   1.526   0.010  0.00  0.00    +0.012 C 
ATOM     12  C   UNL     1       0.002  -0.004   0.002  0.00  0.00    +0.013 C 
ATOM     13  C   UNL     1       0.742  -0.511   1.242  0.00  0.00    +0.012 C 
ENDBRANCH   5  12
BRANCH   7  14
ATOM     14  C   UNL     1      -3.628  -2.682  -2.162  0.00  0.00    +0.016 C 
ATOM     15  C   UNL     1      -3.520  -1.909  -3.478  0.00  0.00    +0.012 C 
ATOM     16  C   UNL     1      -2.761  -3.941  -2.237  0.00  0.00    +0.012 C 
ENDBRANCH   7  14
BRANCH   8  17
ATOM     17  O   UNL     1      -5.284  -1.972   0.012  0.00  0.00    -0.506 OA
ATOM     18  H   UNL     1      -5.385  -2.828   0.451  0.00  0.00    +0.292 HD
ENDBRANCH   8  17
ENDBRANCH   1   9
BRANCH   3  19
ATOM     19  N   UNL     1      -4.897   0.757   4.244  0.00  0.00    -0.188 NA
ATOM     20  C   UNL     1      -4.474   1.515   5.225  0.00  0.00    +0.136 C 
BRANCH  20  21
ATOM     21  C   UNL     1      -5.336   1.839   6.282  0.00  0.00    +0.000 C 
ATOM     22  C   UNL     1      -5.048   2.631   7.391  0.00  0.00    +0.004 A 
ATOM     23  C   UNL     1      -3.883   3.321   7.794  0.00  0.00    +0.010 A 
ATOM     24  C   UNL     1      -3.888   4.030   8.951  0.00  0.00    +0.001 A 
ATOM     25  C   UNL     1      -5.024   4.100   9.763  0.00  0.00    +0.002 A 
ATOM     26  C   UNL     1      -6.175   3.463   9.439  0.00  0.00    +0.026 A 
ATOM     27  C   UNL     1      -6.247   2.701   8.243  0.00  0.00    +0.043 A 
ATOM     28  N   UNL     1      -7.230   2.002   7.713  0.00  0.00    -0.380 N 
ATOM     29  C   UNL     1      -6.776   1.407   6.453  0.00  0.00    +0.150 C 
ATOM     30  H   UNL     1      -8.116   1.901   8.095  0.00  0.00    +0.160 HD
ENDBRANCH  20  21
ENDBRANCH   3  19
TORSDOF 6
