REMARK  Name = ZINC63384381
REMARK  10 active torsions:
REMARK  status: ('A' for Active; 'I' for Inactive)
REMARK    1  A    between atoms: C_1  and  C_2
REMARK    2  A    between atoms: C_2  and  C_4
REMARK    3  A    between atoms: C_2  and  N_10
REMARK    4  A    between atoms: C_11  and  C_13
REMARK    5  A    between atoms: C_13  and  C_15
REMARK    6  A    between atoms: C_13  and  N_25
REMARK    7  A    between atoms: C_15  and  C_16
REMARK    8  A    between atoms: C_26  and  C_28
REMARK    9  A    between atoms: C_30  and  C_40
REMARK   10  A    between atoms: C_30  and  C_41
REMARK                            x       y       z     vdW  Elec       q    Type
REMARK                         _______ _______ _______ _____ _____    ______ ____
ROOT
ATOM      1  C   UNL     1       2.949  -1.048   2.771  0.00  0.00    +0.163 C 
ENDROOT
BRANCH   1   3
ATOM      2  N   UNL     1       0.996  -0.126   1.565  0.00  0.00    -0.307 N 
ATOM      3  C   UNL     1       2.336  -0.218   1.672  0.00  0.00    +0.234 C 
ATOM      4  O   UNL     1       3.049   0.366   0.884  0.00  0.00    -0.274 OA
ATOM      5  H   UNL     1       0.426  -0.593   2.196  0.00  0.00    +0.149 HD
BRANCH   2   7
ATOM      6  C   UNL     1       0.319   2.141   0.946  0.00  0.00    +0.033 C 
ATOM      7  C   UNL     1       0.400   0.681   0.497  0.00  0.00    +0.100 C 
BRANCH   7   8
ATOM      8  C   UNL     1      -0.985   0.170   0.195  0.00  0.00    -0.027 A 
ATOM      9  C   UNL     1      -1.817  -0.225   1.226  0.00  0.00    +0.005 A 
ATOM     10  C   UNL     1      -3.087  -0.693   0.949  0.00  0.00    +0.000 A 
ATOM     11  C   UNL     1      -3.526  -0.767  -0.360  0.00  0.00    +0.000 A 
ATOM     12  C   UNL     1      -2.694  -0.372  -1.391  0.00  0.00    +0.000 A 
ATOM     13  C   UNL     1      -1.425   0.100  -1.114  0.00  0.00    +0.005 A 
ENDBRANCH   7   8
ENDBRANCH   2   7
ENDBRANCH   1   3
BRANCH   1  14
ATOM     14  N   UNL     1       4.410  -0.988   2.672  0.00  0.00    -0.302 N 
ATOM     15  C   UNL     1       5.096  -2.036   2.176  0.00  0.00    +0.236 C 
ATOM     16  O   UNL     1       4.512  -3.059   1.884  0.00  0.00    -0.274 OA
ATOM     17  H   UNL     1       4.883  -0.192   2.963  0.00  0.00    +0.150 HD
BRANCH  15  18
ATOM     18  C   UNL     1       6.587  -1.938   1.985  0.00  0.00    +0.190 C 
ATOM     19  C   UNL     1       6.885  -1.574   0.504  0.00  0.00    +0.111 C 
ATOM     20  S   UNL     1       6.811  -3.274  -0.218  0.00  0.00    -0.004 S 
ATOM     21  O   UNL     1       5.455  -3.627  -0.457  0.00  0.00    -0.172 OA
ATOM     22  O   UNL     1       7.763  -3.383  -1.267  0.00  0.00    -0.172 OA
ATOM     23  C   UNL     1       7.424  -4.177   1.260  0.00  0.00    +0.228 C 
ATOM     24  N   UNL     1       7.202  -3.214   2.363  0.00  0.00    -0.265 N 
ATOM     25  C   UNL     1       6.406  -4.076   3.069  0.00  0.00    +0.221 C 
ATOM     26  O   UNL     1       5.918  -4.054   4.179  0.00  0.00    -0.275 OA
ATOM     27  C   UNL     1       6.384  -5.090   1.912  0.00  0.00    +0.142 C 
ATOM     28  C   UNL     1       5.800  -0.667  -0.081  0.00  0.00    +0.037 C 
ATOM     29  C   UNL     1       8.275  -0.955   0.346  0.00  0.00    +0.037 C 
ENDBRANCH  15  18
ENDBRANCH   1  14
BRANCH   1  30
ATOM     30  C   UNL     1       2.507  -0.502   4.130  0.00  0.00    +0.065 C 
BRANCH  30  31
ATOM     31  C   UNL     1       3.090  -1.353   5.228  0.00  0.00    -0.039 C 
ATOM     32  C   UNL     1       4.248  -1.141   5.894  0.00  0.00    -0.001 A 
ATOM     33  C   UNL     1       5.272  -0.095   5.798  0.00  0.00    +0.010 A 
ATOM     34  C   UNL     1       6.347  -0.152   6.617  0.00  0.00    +0.001 A 
ATOM     35  C   UNL     1       6.506  -1.184   7.553  0.00  0.00    +0.002 A 
ATOM     36  C   UNL     1       5.608  -2.180   7.700  0.00  0.00    +0.026 A 
ATOM     37  C   UNL     1       4.439  -2.219   6.890  0.00  0.00    +0.043 A 
ATOM     38  N   UNL     1       3.438  -3.065   6.842  0.00  0.00    -0.380 N 
ATOM     39  C   UNL     1       2.495  -2.615   5.813  0.00  0.00    +0.144 C 
ATOM     40  H   UNL     1       3.337  -3.854   7.397  0.00  0.00    +0.160 HD
ENDBRANCH  30  31
ENDBRANCH   1  30
TORSDOF 7
