REMARK  Name = ZINC18709111
REMARK  15 active torsions:
REMARK  status: ('A' for Active; 'I' for Inactive)
REMARK    1  A    between atoms: C_1  and  C_2
REMARK    2  A    between atoms: C_2  and  C_3
REMARK    3  A    between atoms: C_3  and  C_4
REMARK    4  A    between atoms: C_4  and  N_5
REMARK    5  A    between atoms: N_5  and  C_6
REMARK    6  A    between atoms: C_7  and  N_18
REMARK    7  A    between atoms: N_8  and  C_15
REMARK    8  A    between atoms: C_15  and  C_16
REMARK    9  A    between atoms: C_16  and  C_17
REMARK   10  A    between atoms: C_19  and  C_21
REMARK   11  A    between atoms: C_21  and  N_66
REMARK   12  A    between atoms: C_25  and  C_28
REMARK   13  A    between atoms: C_28  and  O_30
REMARK   14  A    between atoms: O_30  and  C_31
REMARK   15  A    between atoms: C_31  and  C_32
REMARK                            x       y       z     vdW  Elec       q    Type
REMARK                         _______ _______ _______ _____ _____    ______ ____
ROOT
ATOM      1  N   UNL     1      -0.406   0.974  -9.658  0.00  0.00    -0.266 N 
ATOM      2  C   UNL     1      -0.874   1.509  -8.511  0.00  0.00    +0.203 C 
ATOM      3  O   UNL     1      -1.949   2.071  -8.498  0.00  0.00    -0.277 OA
ENDROOT
BRANCH   1   4
ATOM      4  C   UNL     1      -1.119   1.154 -10.862  0.00  0.00    +0.140 A 
ATOM      5  C   UNL     1      -2.353   0.564 -11.042  0.00  0.00    +0.127 A 
ATOM      6  N   UNL     1      -3.024   0.758 -12.227  0.00  0.00    -0.280 N 
ATOM      7  C   UNL     1      -2.483   1.514 -13.200  0.00  0.00    +0.331 A 
ATOM      8  O   UNL     1      -3.091   1.674 -14.240  0.00  0.00    -0.246 OA
ATOM      9  N   UNL     1      -1.281   2.097 -13.042  0.00  0.00    -0.273 N 
ATOM     10  H   UNL     1      -0.900   2.651 -13.782  0.00  0.00    +0.173 HD
ATOM     11  C   UNL     1      -0.585   1.943 -11.899  0.00  0.00    +0.277 A 
ATOM     12  O   UNL     1       0.501   2.480 -11.764  0.00  0.00    -0.266 OA
BRANCH   5  13
ATOM     13  N   UNL     1      -2.906  -0.209 -10.049  0.00  0.00    -0.343 N 
ATOM     14  H   UNL     1      -2.454  -0.297  -9.195  0.00  0.00    +0.144 HD
ATOM     15  H   UNL     1      -3.748  -0.666 -10.202  0.00  0.00    +0.144 HD
ENDBRANCH   5  13
BRANCH   6  16
ATOM     16  C   UNL     1      -4.335   0.138 -12.432  0.00  0.00    +0.128 C 
BRANCH  16  17
ATOM     17  C   UNL     1      -5.431   1.091 -11.950  0.00  0.00    +0.018 C 
ATOM     18  C   UNL     1      -6.800   0.444 -12.164  0.00  0.00    +0.005 C 
ENDBRANCH  16  17
ENDBRANCH   6  16
ENDBRANCH   1   4
BRANCH   1  19
ATOM     19  C   UNL     1       0.842   0.206  -9.653  0.00  0.00    +0.114 C 
BRANCH  19  20
ATOM     20  C   UNL     1       0.524  -1.283  -9.498  0.00  0.00    +0.019 C 
BRANCH  20  22
ATOM     21  C   UNL     1       1.509  -3.573  -9.339  0.00  0.00    +0.004 C 
ATOM     22  C   UNL     1       1.827  -2.085  -9.493  0.00  0.00    -0.002 C 
ENDBRANCH  20  22
ENDBRANCH  19  20
ENDBRANCH   1  19
BRANCH   2  23
ATOM     23  C   UNL     1      -0.060   1.408  -7.246  0.00  0.00    +0.019 C 
BRANCH  23  29
ATOM     24  C   UNL     1      -0.154   1.757  -4.852  0.00  0.00    -0.078 C 
ATOM     25  C   UNL     1      -1.017   2.318  -3.720  0.00  0.00    -0.018 C 
ATOM     26  C   UNL     1      -1.169   3.831  -3.902  0.00  0.00    +0.011 C 
ATOM     27  C   UNL     1      -1.786   4.112  -5.274  0.00  0.00    +0.081 C 
ATOM     28  C   UNL     1      -0.902   3.499  -6.362  0.00  0.00    -0.064 C 
ATOM     29  N   UNL     1      -0.816   2.039  -6.144  0.00  0.00    +0.386 N 
ATOM     30  H   UNL     1      -1.765   1.649  -6.124  0.00  0.00    -0.081 HD
BRANCH  27  31
ATOM     31  C   UNL     1      -1.885   5.601  -5.486  0.00  0.00    +0.308 C 
ATOM     32  O   UNL     1      -1.307   6.119  -6.412  0.00  0.00    -0.251 OA
BRANCH  31  33
ATOM     33  O   UNL     1      -2.615   6.352  -4.646  0.00  0.00    -0.465 OA
BRANCH  33  34
ATOM     34  C   UNL     1      -2.665   7.778  -4.910  0.00  0.00    +0.229 C 
ATOM     35  C   UNL     1      -3.537   8.462  -3.856  0.00  0.00    +0.048 C 
ENDBRANCH  33  34
ENDBRANCH  31  33
ENDBRANCH  27  31
ENDBRANCH  23  29
ENDBRANCH   2  23
TORSDOF 12
