REMARK  Name = ZINC35228686
REMARK  10 active torsions:
REMARK  status: ('A' for Active; 'I' for Inactive)
REMARK    1  A    between atoms: C_1  and  C_2
REMARK    2  A    between atoms: C_2  and  C_3
REMARK    3  A    between atoms: C_3  and  C_4
REMARK    4  A    between atoms: C_4  and  N_5
REMARK    5  A    between atoms: N_5  and  C_6
REMARK    6  A    between atoms: C_6  and  C_7
REMARK    7  A    between atoms: C_21  and  C_23
REMARK    8  A    between atoms: C_28  and  C_30
REMARK    9  A    between atoms: C_30  and  O_31
REMARK   10  A    between atoms: O_31  and  C_32
REMARK                            x       y       z     vdW  Elec       q    Type
REMARK                         _______ _______ _______ _____ _____    ______ ____
ROOT
ATOM      1  C   UNL     1       3.154  -4.146  -2.037  0.00  0.00    +0.238 C 
ATOM      2  O   UNL     1       2.243  -4.869  -1.691  0.00  0.00    -0.273 OA
ATOM      3  N   UNL     1       4.418  -4.612  -2.045  0.00  0.00    -0.252 N 
ATOM      4  C   UNL     1       4.668  -5.963  -1.768  0.00  0.00    +0.061 A 
ATOM      5  C   UNL     1       3.723  -6.931  -2.072  0.00  0.00    +0.025 A 
ATOM      6  C   UNL     1       3.978  -8.258  -1.785  0.00  0.00    +0.002 A 
ATOM      7  C   UNL     1       5.172  -8.630  -1.194  0.00  0.00    +0.002 A 
ATOM      8  C   UNL     1       6.124  -7.674  -0.889  0.00  0.00    +0.028 A 
ATOM      9  C   UNL     1       5.878  -6.346  -1.180  0.00  0.00    +0.068 A 
ATOM     10  N   UNL     1       6.822  -5.343  -0.915  0.00  0.00    -0.316 N 
ATOM     11  C   UNL     1       7.949  -5.381  -0.165  0.00  0.00    +0.092 A 
ATOM     12  C   UNL     1       8.527  -4.160  -0.209  0.00  0.00    +0.020 A 
ATOM     13  C   UNL     1       7.719  -3.336  -1.024  0.00  0.00    +0.025 A 
ATOM     14  C   UNL     1       6.689  -4.078  -1.445  0.00  0.00    +0.052 A 
ATOM     15  C   UNL     1       5.535  -3.702  -2.349  0.00  0.00    +0.194 C 
ENDROOT
BRANCH  15  16
ATOM     16  C   UNL     1       5.940  -3.856  -3.793  0.00  0.00    +0.131 A 
ATOM     17  C   UNL     1       6.293  -2.857  -4.621  0.00  0.00    +0.047 A 
ATOM     18  C   UNL     1       6.593  -3.448  -5.870  0.00  0.00    +0.041 A 
ATOM     19  C   UNL     1       6.406  -4.772  -5.730  0.00  0.00    +0.195 A 
ATOM     20  O   UNL     1       6.016  -5.015  -4.468  0.00  0.00    -0.466 OA
ENDBRANCH  15  16
BRANCH   1  21
ATOM     21  C   UNL     1       2.871  -2.727  -2.458  0.00  0.00    +0.204 C 
BRANCH  21  22
ATOM     22  N   UNL     1       1.423  -2.503  -2.478  0.00  0.00    -0.290 N 
ATOM     23  C   UNL     1       0.720  -2.739  -3.603  0.00  0.00    +0.254 C 
ATOM     24  O   UNL     1       1.286  -3.136  -4.600  0.00  0.00    -0.272 OA
BRANCH  22  25
ATOM     25  C   UNL     1       0.740  -2.022  -1.274  0.00  0.00    +0.108 C 
BRANCH  25  26
ATOM     26  C   UNL     1       0.719  -0.493  -1.276  0.00  0.00    +0.019 C 
BRANCH  26  28
ATOM     27  C   UNL     1      -0.015   1.539  -0.021  0.00  0.00    +0.004 C 
ATOM     28  C   UNL     1       0.006   0.009  -0.019  0.00  0.00    -0.002 C 
ENDBRANCH  26  28
ENDBRANCH  25  26
ENDBRANCH  22  25
BRANCH  23  29
ATOM     29  C   UNL     1      -0.769  -2.508  -3.623  0.00  0.00    +0.324 C 
BRANCH  29  30
ATOM     30  O   UNL     1      -1.283  -2.826  -4.918  0.00  0.00    -0.483 OA
BRANCH  30  31
ATOM     31  C   UNL     1      -2.620  -2.671  -5.107  0.00  0.00    +0.121 A 
ATOM     32  C   UNL     1      -3.420  -2.217  -4.068  0.00  0.00    +0.047 A 
ATOM     33  C   UNL     1      -4.778  -2.061  -4.261  0.00  0.00    +0.023 A 
ATOM     34  C   UNL     1      -5.342  -2.357  -5.490  0.00  0.00    +0.041 A 
ATOM     35  C   UNL     1      -4.546  -2.811  -6.527  0.00  0.00    +0.023 A 
ATOM     36  C   UNL     1      -3.186  -2.962  -6.339  0.00  0.00    +0.047 A 
ATOM     37 CL   UNL     1      -7.050  -2.160  -5.730  0.00  0.00    -0.084 Cl
ENDBRANCH  30  31
ENDBRANCH  29  30
ENDBRANCH  23  29
ENDBRANCH  21  22
ENDBRANCH   1  21
TORSDOF 9
