REMARK  Name = ZINC03588283
REMARK  10 active torsions:
REMARK  status: ('A' for Active; 'I' for Inactive)
REMARK    1  A    between atoms: C_1  and  N_48
REMARK    2  A    between atoms: C_2  and  C_3
REMARK    3  A    between atoms: C_2  and  N_48
REMARK    4  A    between atoms: C_11  and  C_12
REMARK    5  A    between atoms: C_11  and  N_48
REMARK    6  A    between atoms: N_14  and  C_15
REMARK    7  A    between atoms: C_15  and  C_16
REMARK    8  A    between atoms: C_16  and  C_17
REMARK    9  A    between atoms: C_20  and  S_23
REMARK   10  A    between atoms: S_23  and  N_26
REMARK                            x       y       z     vdW  Elec       q    Type
REMARK                         _______ _______ _______ _____ _____    ______ ____
ROOT
ATOM      1  C   UNL     1       0.598  -0.505   1.292  0.00  0.00    +0.196 C 
ATOM      2  O   UNL     1       0.970   0.283   2.135  0.00  0.00    -0.278 OA
ATOM      3  N   UNL     1       0.718  -1.830   1.509  0.00  0.00    -0.317 N 
ATOM      4  H   UNL     1       0.421  -2.461   0.835  0.00  0.00    +0.149 HD
ENDROOT
BRANCH   1   5
ATOM      5  C   UNL     1       0.002  -0.004   0.002  0.00  0.00    +0.019 C 
BRANCH   5   7
ATOM      6  C   UNL     1       1.346   2.010   0.000  0.00  0.00    -0.095 C 
ATOM      7  N   UNL     1      -0.030   1.473   0.034  0.00  0.00    +0.386 N 
ATOM      8  H   UNL     1      -0.486   1.778   0.903  0.00  0.00    -0.081 HD
BRANCH   7   9
ATOM      9  C   UNL     1      -0.802   1.987  -1.117  0.00  0.00    -0.043 C 
BRANCH   9  10
ATOM     10  C   UNL     1      -1.007   3.470  -0.943  0.00  0.00    -0.062 A 
ATOM     11  C   UNL     1      -2.115   3.938  -0.262  0.00  0.00    +0.003 A 
ATOM     12  C   UNL     1      -2.302   5.298  -0.096  0.00  0.00    +0.021 A 
ATOM     13  C   UNL     1      -1.385   6.191  -0.621  0.00  0.00    +0.059 A 
ATOM     14  C   UNL     1      -0.278   5.721  -1.308  0.00  0.00    +0.059 A 
ATOM     15  C   UNL     1      -0.090   4.360  -1.468  0.00  0.00    +0.023 A 
ATOM     16 CL   UNL     1       0.874   6.841  -1.967  0.00  0.00    -0.082 Cl
ATOM     17 CL   UNL     1      -1.621   7.899  -0.419  0.00  0.00    -0.082 Cl
ENDBRANCH   9  10
ENDBRANCH   7   9
ENDBRANCH   5   7
ENDBRANCH   1   5
BRANCH   3  18
ATOM     18  C   UNL     1       1.298  -2.318   2.763  0.00  0.00    +0.109 C 
BRANCH  18  19
ATOM     19  C   UNL     1       1.318  -3.848   2.755  0.00  0.00    +0.054 C 
BRANCH  19  20
ATOM     20  C   UNL     1       1.914  -4.349   4.045  0.00  0.00    -0.046 A 
ATOM     21  C   UNL     1       3.276  -4.567   4.138  0.00  0.00    +0.005 A 
ATOM     22  C   UNL     1       3.823  -5.022   5.323  0.00  0.00    +0.029 A 
ATOM     23  C   UNL     1       3.008  -5.269   6.412  0.00  0.00    +0.105 A 
ATOM     24  C   UNL     1       1.645  -5.056   6.316  0.00  0.00    +0.029 A 
ATOM     25  C   UNL     1       1.098  -4.596   5.133  0.00  0.00    +0.005 A 
BRANCH  23  26
ATOM     26  S   UNL     1       3.705  -5.854   7.920  0.00  0.00    +0.056 S 
ATOM     27  O   UNL     1       5.067  -5.452   7.921  0.00  0.00    -0.153 OA
ATOM     28  O   UNL     1       2.801  -5.487   8.954  0.00  0.00    -0.153 OA
BRANCH  26  29
ATOM     29  N   UNL     1       3.699  -7.509   7.853  0.00  0.00    -0.204 NA
ATOM     30  H   UNL     1       3.349  -7.961   7.070  0.00  0.00    +0.144 HD
ATOM     31  H   UNL     1       4.046  -8.026   8.597  0.00  0.00    +0.144 HD
ENDBRANCH  26  29
ENDBRANCH  23  26
ENDBRANCH  19  20
ENDBRANCH  18  19
ENDBRANCH   3  18
TORSDOF 9
