REMARK  Name = ZINC63170822
REMARK  8 active torsions:
REMARK  status: ('A' for Active; 'I' for Inactive)
REMARK    1  A    between atoms: C_1  and  C_2
REMARK    2  A    between atoms: C_2  and  C_4
REMARK    3  A    between atoms: C_2  and  N_20
REMARK    4  A    between atoms: C_4  and  C_5
REMARK    5  A    between atoms: C_5  and  N_6
REMARK    6  A    between atoms: N_6  and  S_7
REMARK    7  A    between atoms: S_7  and  C_10
REMARK    8  A    between atoms: C_14  and  N_16
REMARK                            x       y       z     vdW  Elec       q    Type
REMARK                         _______ _______ _______ _____ _____    ______ ____
ROOT
ATOM      1  S   UNL     1       1.545  -4.129   2.742  0.00  0.00    +0.058 S 
ATOM      2  O   UNL     1       2.336  -4.285   3.913  0.00  0.00    -0.153 OA
ATOM      3  O   UNL     1       0.184  -4.531   2.684  0.00  0.00    -0.153 OA
ENDROOT
BRANCH   1   4
ATOM      4  C   UNL     1       2.381  -4.991   1.452  0.00  0.00    +0.107 A 
ATOM      5  C   UNL     1       1.674  -5.443   0.353  0.00  0.00    +0.030 A 
ATOM      6  C   UNL     1       2.329  -6.119  -0.659  0.00  0.00    +0.024 A 
ATOM      7  C   UNL     1       3.691  -6.343  -0.573  0.00  0.00    +0.071 A 
ATOM      8  C   UNL     1       4.397  -5.891   0.528  0.00  0.00    +0.146 A 
ATOM      9  C   UNL     1       3.743  -5.211   1.537  0.00  0.00    +0.062 A 
ATOM     10 CL   UNL     1       4.514  -7.193  -1.843  0.00  0.00    -0.081 Cl
BRANCH   8  11
ATOM     11  N   UNL     1       5.855  -6.131   0.622  0.00  0.00    +0.058 N 
ATOM     12  O   UNL     1       6.472  -5.736   1.583  0.00  0.00    -0.126 OA
ATOM     13  O   UNL     1       6.428  -6.723  -0.264  0.00  0.00    -0.126 OA
ENDBRANCH   8  11
ENDBRANCH   1   4
BRANCH   1  14
ATOM     14  N   UNL     1       1.581  -2.519   2.358  0.00  0.00    -0.190 NA
ATOM     15  H   UNL     1       2.070  -1.897   2.918  0.00  0.00    +0.148 HD
BRANCH  14  16
ATOM     16  C   UNL     1       0.872  -2.034   1.171  0.00  0.00    +0.104 C 
BRANCH  16  17
ATOM     17  C   UNL     1       0.742  -0.511   1.242  0.00  0.00    +0.000 C 
BRANCH  17  19
ATOM     18  C   UNL     1      -0.019   1.526   0.010  0.00  0.00    -0.014 C 
ATOM     19  C   UNL     1       0.002  -0.004   0.002  0.00  0.00    -0.077 C 
BRANCH  19  20
ATOM     20  N   UNL     1      -1.376  -0.512   0.012  0.00  0.00    +0.380 N 
ATOM     21  H   UNL     1      -1.864  -0.178  -0.805  0.00  0.00    -0.090 HD
ATOM     22  H   UNL     1      -1.362  -1.521   0.007  0.00  0.00    -0.090 HD
ATOM     23  H   UNL     1      -1.848  -0.187   0.843  0.00  0.00    -0.090 HD
ENDBRANCH  19  20
ENDBRANCH  17  19
ENDBRANCH  16  17
ENDBRANCH  14  16
ENDBRANCH   1  14
TORSDOF 7
