REMARK  Name = ZINC09643927
REMARK  4 active torsions:
REMARK  status: ('A' for Active; 'I' for Inactive)
REMARK    1  A    between atoms: C_6  and  C_7
REMARK    2  A    between atoms: C_13  and  C_15
REMARK    3  A    between atoms: C_15  and  S_16
REMARK    4  A    between atoms: S_16  and  C_17
REMARK                            x       y       z     vdW  Elec       q    Type
REMARK                         _______ _______ _______ _____ _____    ______ ____
ROOT
ATOM      1  C   UNL     1       0.652   0.940  -0.157  0.00  0.00    +0.106 C 
ATOM      2  C   UNL     1       0.960   0.521  -1.610  0.00  0.00    +0.029 C 
ATOM      3  C   UNL     1       1.749  -0.802  -1.431  0.00  0.00    +0.021 C 
ATOM      4  C   UNL     1       2.554  -0.512  -0.140  0.00  0.00    +0.108 C 
ATOM      5  N   UNL     1       1.638   0.275   0.707  0.00  0.00    -0.294 N 
ATOM      6  C   UNL     1       1.696   0.369   2.050  0.00  0.00    +0.226 C 
ATOM      7  O   UNL     1       0.887   1.049   2.646  0.00  0.00    -0.275 OA
ENDROOT
BRANCH   1  13
ATOM      8  C   UNL     1       2.022   3.015   0.120  0.00  0.00    +0.009 A 
ATOM      9  C   UNL     1       2.143   4.387   0.249  0.00  0.00    +0.050 A 
ATOM     10  C   UNL     1       1.008   5.180   0.239  0.00  0.00    +0.162 A 
ATOM     11  C   UNL     1      -0.245   4.598   0.100  0.00  0.00    +0.162 A 
ATOM     12  C   UNL     1      -0.361   3.225  -0.035  0.00  0.00    +0.055 A 
ATOM     13  C   UNL     1       0.775   2.436  -0.018  0.00  0.00    -0.023 A 
ATOM     14  O   UNL     1      -1.358   5.388   0.092  0.00  0.00    -0.488 OA
ATOM     15  C   UNL     1      -1.511   6.239  -1.046  0.00  0.00    +0.232 C 
ATOM     16  C   UNL     1      -0.732   7.532  -0.860  0.00  0.00    +0.082 C 
ATOM     17  C   UNL     1       0.770   7.298  -0.792  0.00  0.00    +0.232 C 
ATOM     18  O   UNL     1       1.112   6.534   0.366  0.00  0.00    -0.488 OA
ENDBRANCH   1  13
BRANCH   6  19
ATOM     19  C   UNL     1       2.766  -0.370   2.812  0.00  0.00    +0.173 C 
BRANCH  19  20
ATOM     20  S   UNL     1       2.579  -0.045   4.583  0.00  0.00    -0.077 S 
BRANCH  20  21
ATOM     21  C   UNL     1       3.917  -1.004   5.212  0.00  0.00    +0.191 A 
ATOM     22  N   UNL     1       4.684  -1.684   4.369  0.00  0.00    -0.207 NA
ATOM     23  C   UNL     1       5.705  -2.416   4.782  0.00  0.00    +0.129 A 
ATOM     24  C   UNL     1       5.990  -2.489   6.175  0.00  0.00    +0.051 A 
ATOM     25  C   UNL     1       7.055  -3.232   6.853  0.00  0.00    -0.025 A 
ATOM     26  C   UNL     1       7.109  -3.134   8.196  0.00  0.00    -0.004 A 
ATOM     27  S   UNL     1       5.766  -2.063   8.636  0.00  0.00    -0.073 S 
ATOM     28  C   UNL     1       5.132  -1.747   7.010  0.00  0.00    +0.115 A 
ATOM     29  N   UNL     1       4.135  -1.036   6.520  0.00  0.00    -0.214 NA
ATOM     30  C   UNL     1       8.094  -3.790   9.115  0.00  0.00    +0.043 C 
ATOM     31  C   UNL     1       8.820  -4.897   8.337  0.00  0.00    +0.005 C 
ATOM     32  C   UNL     1       9.279  -4.331   6.990  0.00  0.00    +0.005 C 
ATOM     33  C   UNL     1       8.067  -4.084   6.091  0.00  0.00    +0.037 C 
ATOM     34  N   UNL     1       6.484  -3.106   3.872  0.00  0.00    -0.343 N 
ATOM     35  H   UNL     1       7.067  -3.820   4.175  0.00  0.00    +0.144 HD
ATOM     36  H   UNL     1       6.448  -2.876   2.930  0.00  0.00    +0.144 HD
ENDBRANCH  20  21
ENDBRANCH  19  20
ENDBRANCH   6  19
TORSDOF 4
