REMARK  Name = ZINC09447422
REMARK  6 active torsions:
REMARK  status: ('A' for Active; 'I' for Inactive)
REMARK    1  A    between atoms: C_4  and  C_7
REMARK    2  A    between atoms: C_9  and  C_13
REMARK    3  A    between atoms: C_16  and  S_19
REMARK    4  A    between atoms: N_17  and  N_18
REMARK    5  A    between atoms: S_19  and  C_20
REMARK    6  A    between atoms: C_20  and  C_21
REMARK                            x       y       z     vdW  Elec       q    Type
REMARK                         _______ _______ _______ _____ _____    ______ ____
ROOT
ATOM      1  C   UNL     1       5.864  -3.677   0.402  0.00  0.00    +0.202 A 
ATOM      2  N   UNL     1       5.254  -4.803   0.116  0.00  0.00    -0.125 NA
ATOM      3  N   UNL     1       6.110  -5.758   0.034  0.00  0.00    -0.120 NA
ATOM      4  C   UNL     1       7.320  -5.299   0.263  0.00  0.00    +0.209 A 
ATOM      5  N   UNL     1       7.207  -3.959   0.499  0.00  0.00    -0.222 N 
ENDROOT
BRANCH   1   8
ATOM      6  C   UNL     1       3.675  -0.747   0.706  0.00  0.00    +0.066 A 
ATOM      7  C   UNL     1       3.852  -2.079   0.476  0.00  0.00    +0.061 A 
ATOM      8  C   UNL     1       5.228  -2.353   0.579  0.00  0.00    +0.132 A 
ATOM      9  N   UNL     1       5.854  -1.227   0.860  0.00  0.00    -0.170 NA
ATOM     10  N   UNL     1       4.903  -0.202   0.941  0.00  0.00    -0.276 N 
ATOM     11  H   UNL     1       5.086   0.732   1.133  0.00  0.00    +0.189 HD
BRANCH   6  15
ATOM     12  C   UNL     1      -0.029   1.334   0.678  0.00  0.00    +0.000 A 
ATOM     13  C   UNL     1       1.144   2.021   0.934  0.00  0.00    +0.001 A 
ATOM     14  C   UNL     1       2.350   1.351   0.945  0.00  0.00    +0.010 A 
ATOM     15  C   UNL     1       2.385  -0.022   0.697  0.00  0.00    -0.000 A 
ATOM     16  C   UNL     1       1.198  -0.708   0.439  0.00  0.00    +0.010 A 
ATOM     17  C   UNL     1      -0.002  -0.027   0.431  0.00  0.00    +0.001 A 
ENDBRANCH   6  15
ENDBRANCH   1   8
BRANCH   5  18
ATOM     18  N   UNL     1       8.216  -3.082   0.778  0.00  0.00    -0.295 N 
ATOM     19  H   UNL     1       8.380  -3.022   1.772  0.00  0.00    +0.163 HD
ATOM     20  H   UNL     1       9.060  -3.334   0.286  0.00  0.00    +0.163 HD
ENDBRANCH   5  18
BRANCH   4  21
ATOM     21  S   UNL     1       8.811  -6.238   0.258  0.00  0.00    -0.075 S 
BRANCH  21  22
ATOM     22  C   UNL     1       8.267  -7.925  -0.127  0.00  0.00    +0.174 C 
BRANCH  22  23
ATOM     23  C   UNL     1       9.462  -8.842  -0.163  0.00  0.00    +0.234 C 
ATOM     24  O   UNL     1      10.579  -8.380  -0.268  0.00  0.00    -0.274 OA
ATOM     25  N   UNL     1       9.290 -10.176  -0.076  0.00  0.00    -0.237 N 
ATOM     26  C   UNL     1      10.417 -11.003   0.019  0.00  0.00    +0.055 A 
ATOM     27  C   UNL     1      11.567 -10.704  -0.694  0.00  0.00    +0.025 A 
ATOM     28  C   UNL     1      12.675 -11.526  -0.596  0.00  0.00    +0.002 A 
ATOM     29  C   UNL     1      12.645 -12.648   0.211  0.00  0.00    +0.001 A 
ATOM     30  C   UNL     1      11.502 -12.957   0.928  0.00  0.00    +0.017 A 
ATOM     31  C   UNL     1      10.392 -12.139   0.833  0.00  0.00    +0.035 A 
ATOM     32  S   UNL     1       8.919 -12.506   1.735  0.00  0.00    -0.086 S 
ATOM     33  C   UNL     1       7.665 -11.795   0.716  0.00  0.00    +0.035 A 
ATOM     34  C   UNL     1       7.990 -10.697  -0.079  0.00  0.00    +0.055 A 
ATOM     35  C   UNL     1       7.011 -10.128  -0.879  0.00  0.00    +0.025 A 
ATOM     36  C   UNL     1       5.729 -10.649  -0.878  0.00  0.00    +0.002 A 
ATOM     37  C   UNL     1       5.415 -11.737  -0.084  0.00  0.00    +0.001 A 
ATOM     38  C   UNL     1       6.383 -12.313   0.707  0.00  0.00    +0.017 A 
ENDBRANCH  22  23
ENDBRANCH  21  22
ENDBRANCH   4  21
TORSDOF 6
