REMARK  Name = ZINC11063225
REMARK  8 active torsions:
REMARK  status: ('A' for Active; 'I' for Inactive)
REMARK    1  A    between atoms: C_1  and  C_2
REMARK    2  A    between atoms: C_2  and  C_3
REMARK    3  A    between atoms: C_3  and  N_4
REMARK    4  A    between atoms: C_8  and  C_10
REMARK    5  A    between atoms: C_10  and  O_11
REMARK    6  A    between atoms: O_11  and  C_12
REMARK    7  A    between atoms: C_12  and  C_14
REMARK    8  A    between atoms: C_15  and  C_29
REMARK                            x       y       z     vdW  Elec       q    Type
REMARK                         _______ _______ _______ _____ _____    ______ ____
ROOT
ATOM      1  C   UNL     1       0.002  -0.004   0.002  0.00  0.00    +0.102 A 
ATOM      2  C   UNL     1      -0.016   1.361   0.009  0.00  0.00    -0.015 A 
ATOM      3  C   UNL     1       1.185   2.072   0.002  0.00  0.00    +0.076 A 
ATOM      4  C   UNL     1       2.363   1.290  -0.017  0.00  0.00    +0.116 A 
ATOM      5  S   UNL     1       1.748  -0.375  -0.017  0.00  0.00    -0.062 S 
ATOM      6  N   UNL     1       3.570   1.842  -0.031  0.00  0.00    -0.226 NA
ATOM      7  C   UNL     1       3.733   3.135  -0.034  0.00  0.00    +0.114 A 
ATOM      8  N   UNL     1       2.671   3.991  -0.012  0.00  0.00    -0.296 N 
ATOM      9  C   UNL     1       1.406   3.536   0.011  0.00  0.00    +0.263 A 
ATOM     10  O   UNL     1       0.465   4.309   0.038  0.00  0.00    -0.267 OA
ATOM     11  C   UNL     1       2.942   5.435  -0.016  0.00  0.00    +0.126 C 
ATOM     12  C   UNL     1       3.399   5.855  -1.411  0.00  0.00    +0.022 C 
ATOM     13  C   UNL     1       4.908   5.743  -1.551  0.00  0.00    +0.002 C 
ATOM     14  C   UNL     1       5.387   4.305  -1.454  0.00  0.00    +0.008 C 
ATOM     15  C   UNL     1       5.123   3.729  -0.065  0.00  0.00    +0.074 C 
ATOM     16  C   UNL     1      -1.331   2.098   0.020  0.00  0.00    +0.046 C 
ENDROOT
BRANCH   1  17
ATOM     17  C   UNL     1      -1.130  -0.933   0.007  0.00  0.00    +0.347 C 
ATOM     18  O   UNL     1      -2.268  -0.505   0.020  0.00  0.00    -0.244 OA
BRANCH  17  19
ATOM     19  O   UNL     1      -0.909  -2.264  -0.002  0.00  0.00    -0.451 OA
BRANCH  19  20
ATOM     20  C   UNL     1      -2.078  -3.126   0.004  0.00  0.00    +0.328 C 
BRANCH  20  25
ATOM     21  N   UNL     1      -3.088  -7.826  -0.011  0.00  0.00    -0.299 N 
ATOM     22  C   UNL     1      -2.168  -6.841  -0.015  0.00  0.00    +0.306 C 
ATOM     23  O   UNL     1      -0.984  -7.117  -0.027  0.00  0.00    -0.252 OA
ATOM     24  N   UNL     1      -2.560  -5.552  -0.004  0.00  0.00    -0.237 N 
ATOM     25  C   UNL     1      -1.639  -4.568  -0.007  0.00  0.00    +0.258 C 
ATOM     26  O   UNL     1      -0.459  -4.842  -0.020  0.00  0.00    -0.272 OA
ATOM     27  H   UNL     1      -4.033  -7.607  -0.002  0.00  0.00    +0.150 HD
ATOM     28  H   UNL     1      -3.505  -5.333   0.006  0.00  0.00    +0.159 HD
BRANCH  21  29
ATOM     29  C   UNL     1      -2.662  -9.227  -0.023  0.00  0.00    +0.105 C 
BRANCH  29  31
ATOM     30  C   UNL     1      -3.448 -11.599  -0.029  0.00  0.00    +0.005 C 
ATOM     31  C   UNL     1      -3.893 -10.135  -0.017  0.00  0.00    +0.015 C 
ENDBRANCH  29  31
ENDBRANCH  21  29
ENDBRANCH  20  25
ENDBRANCH  19  20
ENDBRANCH  17  19
ENDBRANCH   1  17
TORSDOF 6
