REMARK  Name = ZINC05027365
REMARK  8 active torsions:
REMARK  status: ('A' for Active; 'I' for Inactive)
REMARK    1  A    between atoms: C_1  and  O_2
REMARK    2  A    between atoms: O_2  and  C_3
REMARK    3  A    between atoms: C_6  and  C_11
REMARK    4  A    between atoms: C_8  and  O_9
REMARK    5  A    between atoms: O_9  and  C_10
REMARK    6  A    between atoms: C_13  and  C_24
REMARK    7  A    between atoms: C_16  and  C_18
REMARK    8  A    between atoms: C_29  and  O_30
REMARK                            x       y       z     vdW  Elec       q    Type
REMARK                         _______ _______ _______ _____ _____    ______ ____
ROOT
ATOM      1  C   UNL     1      -4.987  -2.627   0.035  0.00  0.00    +0.081 C 
ATOM      2  C   UNL     1      -7.220  -2.537   0.941  0.00  0.00    -0.028 C 
ATOM      3  C   UNL     1      -6.948  -3.678   1.925  0.00  0.00    +0.044 C 
ATOM      4  C   UNL     1      -5.696  -4.403   1.518  0.00  0.00    +0.040 C 
ATOM      5  N   UNL     1      -4.847  -3.921   0.690  0.00  0.00    -0.299 NA
ATOM      6  N   UNL     1      -5.965  -1.787   0.744  0.00  0.00    +0.401 N 
ATOM      7  H   UNL     1      -6.155  -0.944   0.189  0.00  0.00    -0.081 HD
ATOM      8  H   UNL     1      -5.582  -1.516   1.657  0.00  0.00    -0.081 HD
ENDROOT
BRANCH   2   9
ATOM      9  C   UNL     1      -8.273  -1.618   1.507  0.00  0.00    -0.018 A 
ATOM     10  C   UNL     1      -7.901  -0.445   2.136  0.00  0.00    +0.025 A 
ATOM     11  C   UNL     1      -8.866   0.399   2.655  0.00  0.00    +0.041 A 
ATOM     12  C   UNL     1     -10.206   0.070   2.547  0.00  0.00    +0.023 A 
ATOM     13  C   UNL     1     -10.582  -1.102   1.919  0.00  0.00    +0.047 A 
ATOM     14  C   UNL     1      -9.615  -1.946   1.392  0.00  0.00    +0.119 A 
ATOM     15 CL   UNL     1      -8.397   1.872   3.444  0.00  0.00    -0.084 Cl
BRANCH  14  16
ATOM     16  O   UNL     1      -9.983  -3.097   0.769  0.00  0.00    -0.507 OA
ATOM     17  H   UNL     1     -10.050  -3.860   1.360  0.00  0.00    +0.292 HD
ENDBRANCH  14  16
ENDBRANCH   2   9
BRANCH   1  21
ATOM     18  C   UNL     1      -1.201  -0.638   0.010  0.00  0.00    +0.161 A 
ATOM     19  C   UNL     1      -2.374   0.099   0.031  0.00  0.00    +0.049 A 
ATOM     20  C   UNL     1      -3.596  -0.546   0.033  0.00  0.00    +0.007 A 
ATOM     21  C   UNL     1      -3.652  -1.928   0.026  0.00  0.00    -0.037 A 
ATOM     22  C   UNL     1      -2.485  -2.669   0.011  0.00  0.00    +0.053 A 
ATOM     23  C   UNL     1      -1.257  -2.028   0.003  0.00  0.00    +0.162 A 
BRANCH  18  25
ATOM     24  C   UNL     1      -0.017   1.425   0.010  0.00  0.00    +0.277 C 
ATOM     25  O   UNL     1       0.002  -0.004   0.002  0.00  0.00    -0.491 OA
ENDBRANCH  18  25
BRANCH  23  26
ATOM     26  O   UNL     1      -0.108  -2.756  -0.011  0.00  0.00    -0.491 OA
ATOM     27  C   UNL     1      -0.242  -4.179  -0.018  0.00  0.00    +0.277 C 
ENDBRANCH  23  26
ENDBRANCH   1  21
BRANCH   4  28
ATOM     28  C   UNL     1      -5.433  -5.734   2.099  0.00  0.00    -0.004 A 
ATOM     29  C   UNL     1      -6.332  -6.292   3.010  0.00  0.00    +0.010 A 
ATOM     30  C   UNL     1      -6.083  -7.539   3.546  0.00  0.00    +0.001 A 
ATOM     31  C   UNL     1      -4.940  -8.232   3.191  0.00  0.00    +0.000 A 
ATOM     32  C   UNL     1      -4.041  -7.683   2.293  0.00  0.00    +0.001 A 
ATOM     33  C   UNL     1      -4.280  -6.439   1.745  0.00  0.00    +0.010 A 
ENDBRANCH   4  28
TORSDOF 6
