REMARK  Name = ZINC32810854
REMARK  5 active torsions:
REMARK  status: ('A' for Active; 'I' for Inactive)
REMARK    1  A    between atoms: C_1  and  C_2
REMARK    2  A    between atoms: C_2  and  C_4
REMARK    3  A    between atoms: C_2  and  N_15
REMARK    4  A    between atoms: N_6  and  C_7
REMARK    5  A    between atoms: N_15  and  C_16
REMARK                            x       y       z     vdW  Elec       q    Type
REMARK                         _______ _______ _______ _____ _____    ______ ____
ROOT
ATOM      1  C   UNL     1      -4.469  -0.599  -1.447  0.00  0.00    +0.038 C 
ATOM      2  C   UNL     1      -3.711  -1.063  -0.201  0.00  0.00    +0.154 C 
ENDROOT
BRANCH   2   3
ATOM      3  C   UNL     1      -2.414  -0.304  -0.090  0.00  0.00    +0.237 C 
ATOM      4  O   UNL     1      -1.359  -0.901  -0.098  0.00  0.00    -0.273 OA
ATOM      5  N   UNL     1      -2.428   1.040   0.019  0.00  0.00    -0.283 N 
ATOM      6  H   UNL     1      -3.385   1.574   0.118  0.00  0.00    +0.155 HD
BRANCH   5   7
ATOM      7  C   UNL     1      -1.225   1.755   0.006  0.00  0.00    +0.048 A 
ATOM      8  C   UNL     1      -0.102   1.218  -0.610  0.00  0.00    +0.025 A 
ATOM      9  C   UNL     1       1.082   1.928  -0.626  0.00  0.00    +0.017 A 
ATOM     10  C   UNL     1       1.153   3.172  -0.025  0.00  0.00    +0.019 A 
ATOM     11  C   UNL     1       0.038   3.708   0.595  0.00  0.00    +0.032 A 
ATOM     12  C   UNL     1      -1.150   3.002   0.614  0.00  0.00    +0.040 A 
ATOM     13 BR   UNL     1      -2.673   3.736   1.461  0.00  0.00    -0.048 Br
ATOM     14 BR   UNL     1       2.776   4.141  -0.049  0.00  0.00    -0.050 Br
ENDBRANCH   5   7
ENDBRANCH   2   3
BRANCH   2  15
ATOM     15  N   UNL     1      -3.429  -2.497  -0.308  0.00  0.00    -0.333 N 
ATOM     16  H   UNL     1      -2.462  -2.840  -0.703  0.00  0.00    +0.147 HD
BRANCH  15  17
ATOM     17  C   UNL     1      -4.391  -3.431   0.094  0.00  0.00    +0.030 A 
ATOM     18  C   UNL     1      -5.612  -2.996   0.598  0.00  0.00    +0.025 A 
ATOM     19  C   UNL     1      -6.567  -3.913   0.991  0.00  0.00    +0.029 A 
ATOM     20  C   UNL     1      -6.305  -5.271   0.892  0.00  0.00    +0.067 A 
ATOM     21  C   UNL     1      -5.078  -5.710   0.391  0.00  0.00    +0.069 A 
ATOM     22  C   UNL     1      -4.123  -4.788  -0.007  0.00  0.00    +0.050 A 
ATOM     23  N   UNL     1      -5.109  -7.103   0.413  0.00  0.00    -0.306 N 
ATOM     24  H   UNL     1      -4.240  -7.678   0.060  0.00  0.00    +0.170 HD
ATOM     25  C   UNL     1      -6.300  -7.494   0.905  0.00  0.00    +0.325 A 
ATOM     26  O   UNL     1      -6.650  -8.649   1.057  0.00  0.00    -0.247 OA
ATOM     27  N   UNL     1      -7.044  -6.412   1.203  0.00  0.00    -0.306 N 
ATOM     28  H   UNL     1      -8.058  -6.314   1.619  0.00  0.00    +0.170 HD
ENDBRANCH  15  17
ENDBRANCH   2  15
TORSDOF 4
