REMARK  Name = ZINC63557815
REMARK  10 active torsions:
REMARK  status: ('A' for Active; 'I' for Inactive)
REMARK    1  A    between atoms: C_1  and  C_2
REMARK    2  A    between atoms: C_2  and  O_3
REMARK    3  A    between atoms: O_3  and  C_4
REMARK    4  A    between atoms: C_4  and  C_5
REMARK    5  A    between atoms: C_9  and  N_12
REMARK    6  A    between atoms: C_13  and  C_15
REMARK    7  A    between atoms: N_20  and  C_22
REMARK    8  A    between atoms: C_22  and  C_23
REMARK    9  A    between atoms: C_23  and  C_24
REMARK   10  A    between atoms: C_27  and  C_33
REMARK                            x       y       z     vdW  Elec       q    Type
REMARK                         _______ _______ _______ _____ _____    ______ ____
ROOT
ATOM      1  C   UNL     1       6.433   0.141   5.642  0.00  0.00    +0.101 C 
ATOM      2  C   UNL     1       6.110   0.441   7.125  0.00  0.00    +0.110 C 
ATOM      3  C   UNL     1       7.310   1.221   7.616  0.00  0.00    +0.216 C 
ATOM      4  O   UNL     1       7.588   1.407   8.781  0.00  0.00    -0.276 OA
ATOM      5  N   UNL     1       8.023   1.677   6.572  0.00  0.00    -0.300 N 
ATOM      6  C   UNL     1       7.412   1.285   5.295  0.00  0.00    +0.121 C 
ENDROOT
BRANCH   1   8
ATOM      7  N   UNL     1       4.185  -0.656   4.989  0.00  0.00    -0.290 N 
ATOM      8  C   UNL     1       5.191   0.220   4.793  0.00  0.00    +0.220 C 
ATOM      9  O   UNL     1       5.096   1.070   3.934  0.00  0.00    -0.275 OA
ATOM     10  H   UNL     1       4.261  -1.336   5.676  0.00  0.00    +0.151 HD
BRANCH   7  14
ATOM     11  C   UNL     1       1.526  -2.293   2.520  0.00  0.00    +0.155 C 
ATOM     12  N   UNL     1       0.880  -1.709   3.728  0.00  0.00    -0.239 NA
ATOM     13  N   UNL     1       1.858  -1.377   4.758  0.00  0.00    -0.226 NA
ATOM     14  C   UNL     1       2.977  -0.580   4.164  0.00  0.00    +0.217 C 
ATOM     15  S   UNL     1       3.187  -1.496   2.574  0.00  0.00    -0.099 S 
ATOM     16  H   UNL     1       0.168  -2.325   4.091  0.00  0.00    +0.142 HD
ATOM     17  H   UNL     1       1.424  -0.878   5.521  0.00  0.00    +0.143 HD
BRANCH  11  18
ATOM     18  C   UNL     1       0.770  -1.902   1.249  0.00  0.00    +0.190 C 
BRANCH  18  19
ATOM     19  O   UNL     1       0.693  -0.477   1.160  0.00  0.00    -0.378 OA
BRANCH  19  21
ATOM     20  C   UNL     1      -0.019   1.526   0.010  0.00  0.00    +0.034 C 
ATOM     21  C   UNL     1       0.002  -0.004   0.002  0.00  0.00    +0.156 C 
ENDBRANCH  19  21
ENDBRANCH  18  19
ENDBRANCH  11  18
ENDBRANCH   7  14
ENDBRANCH   1   8
BRANCH   5  22
ATOM     22  C   UNL     1       9.253   2.464   6.692  0.00  0.00    +0.112 C 
BRANCH  22  23
ATOM     23  C   UNL     1      10.459   1.524   6.733  0.00  0.00    +0.052 C 
BRANCH  23  24
ATOM     24  C   UNL     1      11.724   2.333   6.857  0.00  0.00    -0.040 C 
ATOM     25  C   UNL     1      12.386   2.639   7.996  0.00  0.00    -0.001 A 
ATOM     26  C   UNL     1      12.136   2.321   9.407  0.00  0.00    +0.013 A 
ATOM     27  C   UNL     1      12.996   2.779  10.345  0.00  0.00    -0.050 A 
ATOM     28  C   UNL     1      14.118   3.546  10.004  0.00  0.00    +0.005 A 
ATOM     29  C   UNL     1      14.414   3.879   8.730  0.00  0.00    +0.026 A 
ATOM     30  C   UNL     1      13.578   3.451   7.662  0.00  0.00    +0.043 A 
ATOM     31  N   UNL     1      13.650   3.640   6.367  0.00  0.00    -0.380 N 
ATOM     32  C   UNL     1      12.513   2.964   5.731  0.00  0.00    +0.144 C 
ATOM     33  C   UNL     1      12.742   2.454  11.794  0.00  0.00    +0.044 C 
ATOM     34  H   UNL     1      14.341   4.141   5.906  0.00  0.00    +0.160 HD
ENDBRANCH  23  24
ENDBRANCH  22  23
ENDBRANCH   5  22
TORSDOF 8
