REMARK  Name = ZINC15884927
REMARK  6 active torsions:
REMARK  status: ('A' for Active; 'I' for Inactive)
REMARK    1  A    between atoms: C_3  and  C_7
REMARK    2  A    between atoms: N_9  and  C_10
REMARK    3  A    between atoms: C_10  and  C_11
REMARK    4  A    between atoms: C_11  and  N_13
REMARK    5  A    between atoms: N_14  and  C_15
REMARK    6  A    between atoms: C_24  and  O_25
REMARK                            x       y       z     vdW  Elec       q    Type
REMARK                         _______ _______ _______ _____ _____    ______ ____
ROOT
ATOM      1  N   UNL     1       8.503   1.370  -0.073  0.00  0.00    -0.078 NA
ATOM      2  N   UNL     1       9.451   0.495  -0.087  0.00  0.00    -0.151 NA
ENDROOT
BRANCH   2   3
ATOM      3  C   UNL     1      10.724   0.891  -0.097  0.00  0.00    +0.152 A 
ATOM      4  C   UNL     1      11.924   0.028  -0.119  0.00  0.00    +0.033 A 
ATOM      5  C   UNL     1      12.116  -1.350  -0.135  0.00  0.00    +0.027 A 
ATOM      6  C   UNL     1      13.398  -1.861  -0.154  0.00  0.00    +0.020 A 
ATOM      7  C   UNL     1      14.490  -1.007  -0.158  0.00  0.00    +0.032 A 
ATOM      8  C   UNL     1      14.311   0.361  -0.142  0.00  0.00    +0.043 A 
ATOM      9  C   UNL     1      13.027   0.894  -0.123  0.00  0.00    +0.066 A 
ATOM     10  N   UNL     1      12.550   2.196  -0.105  0.00  0.00    -0.323 N 
ATOM     11  H   UNL     1      13.110   2.989  -0.103  0.00  0.00    +0.169 HD
ATOM     12  C   UNL     1      11.197   2.211  -0.096  0.00  0.00    +0.219 A 
ATOM     13 BR   UNL     1      15.812   1.512  -0.145  0.00  0.00    -0.048 Br
ATOM     14 BR   UNL     1      13.665  -3.733  -0.176  0.00  0.00    -0.050 Br
BRANCH  12  15
ATOM     15  O   UNL     1      10.427   3.317  -0.083  0.00  0.00    -0.492 OA
ATOM     16  H   UNL     1      10.210   3.636   0.804  0.00  0.00    +0.294 HD
ENDBRANCH  12  15
ENDBRANCH   2   3
BRANCH   1  17
ATOM     17  C   UNL     1       7.224   0.972  -0.062  0.00  0.00    +0.271 C 
ATOM     18  O   UNL     1       6.956  -0.213  -0.066  0.00  0.00    -0.270 OA
BRANCH  17  19
ATOM     19  C   UNL     1       6.117   1.994  -0.047  0.00  0.00    +0.204 C 
BRANCH  19  22
ATOM     20  C   UNL     1       3.680   2.028  -0.023  0.00  0.00    +0.246 C 
ATOM     21  O   UNL     1       3.727   3.243  -0.017  0.00  0.00    -0.270 OA
ATOM     22  N   UNL     1       4.821   1.310  -0.037  0.00  0.00    -0.303 N 
ATOM     23  H   UNL     1       4.784   0.341  -0.042  0.00  0.00    +0.150 HD
BRANCH  20  26
ATOM     24  C   UNL     1      -0.017   1.379   0.010  0.00  0.00    +0.020 A 
ATOM     25  C   UNL     1       1.181   2.073   0.002  0.00  0.00    +0.016 A 
ATOM     26  C   UNL     1       2.373   1.339  -0.013  0.00  0.00    +0.055 A 
ATOM     27  C   UNL     1       2.306  -0.055  -0.020  0.00  0.00    +0.123 A 
ATOM     28  N   UNL     1       1.141  -0.670  -0.013  0.00  0.00    -0.263 NA
ATOM     29  C   UNL     1       0.002  -0.004   0.002  0.00  0.00    +0.111 A 
ENDBRANCH  20  26
ENDBRANCH  19  22
ENDBRANCH  17  19
ENDBRANCH   1  17
TORSDOF 6
