REMARK  Name = ZINC09424900
REMARK  18 active torsions:
REMARK  status: ('A' for Active; 'I' for Inactive)
REMARK    1  A    between atoms: C_1  and  C_2
REMARK    2  A    between atoms: C_2  and  C_3
REMARK    3  A    between atoms: C_3  and  O_4
REMARK    4  A    between atoms: O_4  and  C_5
REMARK    5  A    between atoms: C_8  and  C_14
REMARK    6  A    between atoms: C_10  and  O_11
REMARK    7  A    between atoms: O_11  and  C_12
REMARK    8  A    between atoms: C_12  and  C_13
REMARK    9  A    between atoms: C_16  and  C_27
REMARK   10  A    between atoms: C_17  and  O_26
REMARK   11  A    between atoms: N_20  and  C_21
REMARK   12  A    between atoms: C_21  and  C_22
REMARK   13  A    between atoms: C_22  and  C_23
REMARK   14  A    between atoms: C_23  and  N_76
REMARK   15  A    between atoms: C_24  and  N_76
REMARK   16  A    between atoms: C_25  and  N_76
REMARK   17  A    between atoms: C_27  and  C_29
REMARK   18  A    between atoms: C_36  and  C_39
REMARK                            x       y       z     vdW  Elec       q    Type
REMARK                         _______ _______ _______ _____ _____    ______ ____
ROOT
ATOM      1  C   UNL     1      -3.810   1.482   0.004  0.00  0.00    +0.145 C 
ATOM      2  C   UNL     1      -3.856   2.991  -0.048  0.00  0.00    +0.071 C 
ATOM      3  C   UNL     1      -5.163   3.340  -0.096  0.00  0.00    +0.188 C 
ATOM      4  C   UNL     1      -5.993   2.118  -0.074  0.00  0.00    +0.282 C 
ATOM      5  O   UNL     1      -7.207   2.099  -0.108  0.00  0.00    -0.267 OA
ATOM      6  N   UNL     1      -5.206   1.029  -0.013  0.00  0.00    -0.284 N 
ENDROOT
BRANCH   1  10
ATOM      7  C   UNL     1      -1.726  -0.040  -3.407  0.00  0.00    +0.162 A 
ATOM      8  C   UNL     1      -2.967   0.559  -3.560  0.00  0.00    +0.050 A 
ATOM      9  C   UNL     1      -3.640   1.044  -2.454  0.00  0.00    +0.009 A 
ATOM     10  C   UNL     1      -3.074   0.945  -1.197  0.00  0.00    -0.019 A 
ATOM     11  C   UNL     1      -1.837   0.349  -1.038  0.00  0.00    +0.055 A 
ATOM     12  C   UNL     1      -1.159  -0.145  -2.141  0.00  0.00    +0.162 A 
BRANCH   7  13
ATOM     13  O   UNL     1      -1.065  -0.523  -4.493  0.00  0.00    -0.488 OA
BRANCH  13  14
ATOM     14  C   UNL     1      -1.708  -0.381  -5.761  0.00  0.00    +0.229 C 
BRANCH  14  16
ATOM     15  C   UNL     1      -1.508  -0.826  -8.211  0.00  0.00    +0.007 C 
ATOM     16  C   UNL     1      -0.820  -0.979  -6.854  0.00  0.00    +0.038 C 
ENDBRANCH  14  16
ENDBRANCH  13  14
ENDBRANCH   7  13
BRANCH  12  17
ATOM     17  O   UNL     1       0.059  -0.731  -1.986  0.00  0.00    -0.489 OA
BRANCH  17  18
ATOM     18  C   UNL     1       0.633  -0.698  -0.679  0.00  0.00    +0.226 C 
ATOM     19  C   UNL     1       2.042  -1.294  -0.725  0.00  0.00    +0.048 C 
ENDBRANCH  17  18
ENDBRANCH  12  17
ENDBRANCH   1  10
BRANCH   3  20
ATOM     20  O   UNL     1      -5.634   4.607  -0.156  0.00  0.00    -0.502 OA
ATOM     21  H   UNL     1      -6.633   4.590  -0.183  0.00  0.00    +0.292 HD
ENDBRANCH   3  20
BRANCH   2  22
ATOM     22  C   UNL     1      -2.707   3.902  -0.050  0.00  0.00    +0.195 C 
ATOM     23  O   UNL     1      -2.506   4.625  -1.008  0.00  0.00    -0.287 OA
BRANCH  22  24
ATOM     24  C   UNL     1      -1.794   3.941   1.109  0.00  0.00    +0.023 A 
ATOM     25  C   UNL     1      -2.059   3.165   2.242  0.00  0.00    +0.015 A 
ATOM     26  C   UNL     1      -1.209   3.204   3.321  0.00  0.00    +0.046 A 
ATOM     27  C   UNL     1      -0.069   4.011   3.295  0.00  0.00    +0.124 A 
ATOM     28  C   UNL     1       0.190   4.781   2.164  0.00  0.00    -0.002 A 
ATOM     29  C   UNL     1      -0.653   4.750   1.081  0.00  0.00    +0.019 A 
ATOM     30  C   UNL     1       1.470   5.548   2.435  0.00  0.00    +0.083 C 
ATOM     31  C   UNL     1       1.615   5.396   3.967  0.00  0.00    +0.175 C 
ATOM     32  O   UNL     1       0.897   4.180   4.237  0.00  0.00    -0.488 OA
ATOM     33  C   UNL     1       0.971   6.578   4.693  0.00  0.00    +0.052 C 
ENDBRANCH  22  24
ENDBRANCH   2  22
BRANCH   6  34
ATOM     34  C   UNL     1      -5.661  -0.363   0.026  0.00  0.00    +0.107 C 
BRANCH  34  35
ATOM     35  C   UNL     1      -5.780  -0.901  -1.402  0.00  0.00    +0.000 C 
BRANCH  35  36
ATOM     36  C   UNL     1      -6.255  -2.354  -1.361  0.00  0.00    -0.078 C 
BRANCH  36  39
ATOM     37  C   UNL     1      -6.592  -4.322  -2.731  0.00  0.00    -0.097 C 
ATOM     38  C   UNL     1      -7.434  -2.175  -3.469  0.00  0.00    -0.097 C 
ATOM     39  N   UNL     1      -6.345  -2.865  -2.745  0.00  0.00    +0.376 N 
ATOM     40  H   UNL     1      -5.457  -2.683  -3.227  0.00  0.00    -0.083 HD
ENDBRANCH  36  39
ENDBRANCH  35  36
ENDBRANCH  34  35
ENDBRANCH   6  34
TORSDOF 13
