REMARK  Name = ZINC39684688
REMARK  13 active torsions:
REMARK  status: ('A' for Active; 'I' for Inactive)
REMARK    1  A    between atoms: C_1  and  C_2
REMARK    2  A    between atoms: C_2  and  C_4
REMARK    3  A    between atoms: C_2  and  N_8
REMARK    4  A    between atoms: C_4  and  C_5
REMARK    5  A    between atoms: C_4  and  C_6
REMARK    6  A    between atoms: C_4  and  C_7
REMARK    7  A    between atoms: C_9  and  C_11
REMARK    8  A    between atoms: C_22  and  C_24
REMARK    9  A    between atoms: C_24  and  C_26
REMARK   10  A    between atoms: C_24  and  O_29
REMARK   11  A    between atoms: C_26  and  C_27
REMARK   12  A    between atoms: C_26  and  C_28
REMARK   13  A    between atoms: O_29  and  C_30
REMARK                            x       y       z     vdW  Elec       q    Type
REMARK                         _______ _______ _______ _____ _____    ______ ____
ROOT
ATOM      1  C   UNL     1      -0.029  -0.932   3.462  0.00  0.00    +0.100 C 
ATOM      2  C   UNL     1       1.322  -0.337   3.918  0.00  0.00    +0.121 C 
ATOM      3  N   UNL     1       0.976   0.551   5.053  0.00  0.00    -0.297 N 
ATOM      4  C   UNL     1      -0.071  -0.192   5.795  0.00  0.00    +0.115 C 
ATOM      5  C   UNL     1      -0.939  -0.839   4.698  0.00  0.00    -0.004 C 
ATOM      6  C   UNL     1      -1.387  -2.231   5.131  0.00  0.00    -0.010 C 
ATOM      7  C   UNL     1      -2.337  -2.108   6.326  0.00  0.00    -0.082 C 
ATOM      8  N   UNL     1      -3.499  -1.294   5.947  0.00  0.00    +0.379 N 
ATOM      9  C   UNL     1      -3.069   0.071   5.622  0.00  0.00    -0.082 C 
ATOM     10  C   UNL     1      -2.149   0.040   4.397  0.00  0.00    -0.010 C 
ATOM     11  C   UNL     1       1.496   1.760   5.345  0.00  0.00    +0.257 C 
ATOM     12  O   UNL     1       1.185   2.321   6.374  0.00  0.00    -0.272 OA
ATOM     13  H   UNL     1      -3.948  -1.705   5.143  0.00  0.00    -0.086 HD
ATOM     14  H   UNL     1      -4.152  -1.266   6.716  0.00  0.00    -0.086 HD
ENDROOT
BRANCH   1  16
ATOM     15  N   UNL     1      -1.370  -0.722   1.394  0.00  0.00    -0.312 N 
ATOM     16  C   UNL     1      -0.602  -0.124   2.326  0.00  0.00    +0.218 C 
ATOM     17  O   UNL     1      -0.371   1.064   2.251  0.00  0.00    -0.275 OA
ATOM     18  H   UNL     1      -1.616  -1.655   1.494  0.00  0.00    +0.149 HD
BRANCH  15  20
ATOM     19  C   UNL     1      -0.784  -0.039  -0.880  0.00  0.00    +0.028 C 
ATOM     20  C   UNL     1      -1.834   0.037   0.230  0.00  0.00    +0.075 C 
BRANCH  20  21
ATOM     21  C   UNL     1      -3.152  -0.556  -0.273  0.00  0.00    -0.020 C 
ATOM     22  C   UNL     1      -2.934  -2.017  -0.670  0.00  0.00    +0.012 C 
ATOM     23  C   UNL     1      -4.202  -0.480   0.837  0.00  0.00    +0.012 C 
ATOM     24  C   UNL     1      -3.636   0.237  -1.488  0.00  0.00    +0.012 C 
ENDBRANCH  20  21
ENDBRANCH  15  20
ENDBRANCH   1  16
BRANCH  11  25
ATOM     25  C   UNL     1       2.463   2.414   4.393  0.00  0.00    +0.261 C 
BRANCH  25  26
ATOM     26  C   UNL     1       3.873   1.880   4.651  0.00  0.00    +0.033 C 
ATOM     27  C   UNL     1       4.863   2.579   3.716  0.00  0.00    +0.011 C 
ATOM     28  C   UNL     1       4.264   2.154   6.104  0.00  0.00    +0.011 C 
ENDBRANCH  25  26
BRANCH  25  29
ATOM     29  O   UNL     1       2.081   2.118   3.048  0.00  0.00    -0.479 OA
BRANCH  29  30
ATOM     30  C   UNL     1       2.282   3.092   2.121  0.00  0.00    +0.122 A 
ATOM     31  C   UNL     1       1.944   2.868   0.794  0.00  0.00    +0.045 A 
ATOM     32  C   UNL     1       2.149   3.860  -0.146  0.00  0.00    +0.004 A 
ATOM     33  C   UNL     1       2.691   5.074   0.234  0.00  0.00    +0.000 A 
ATOM     34  C   UNL     1       3.029   5.298   1.556  0.00  0.00    +0.004 A 
ATOM     35  C   UNL     1       2.820   4.312   2.501  0.00  0.00    +0.045 A 
ENDBRANCH  29  30
ENDBRANCH  25  29
ENDBRANCH  11  25
TORSDOF 7
