REMARK  Name = ZINC36595848
REMARK  16 active torsions:
REMARK  status: ('A' for Active; 'I' for Inactive)
REMARK    1  A    between atoms: C_1  and  C_2
REMARK    2  A    between atoms: C_5  and  C_7
REMARK    3  A    between atoms: C_7  and  N_8
REMARK    4  A    between atoms: N_8  and  C_9
REMARK    5  A    between atoms: C_9  and  C_11
REMARK    6  A    between atoms: C_9  and  C_21
REMARK    7  A    between atoms: C_13  and  N_18
REMARK    8  A    between atoms: N_23  and  C_24
REMARK    9  A    between atoms: C_24  and  C_25
REMARK   10  A    between atoms: C_24  and  C_26
REMARK   11  A    between atoms: C_24  and  C_27
REMARK   12  A    between atoms: C_27  and  C_28
REMARK   13  A    between atoms: C_28  and  C_29
REMARK   14  A    between atoms: C_28  and  C_30
REMARK   15  A    between atoms: C_28  and  C_31
REMARK   16  A    between atoms: C_32  and  C_34
REMARK                            x       y       z     vdW  Elec       q    Type
REMARK                         _______ _______ _______ _____ _____    ______ ____
ROOT
ATOM      1  C   UNL     1       4.279  -3.805  -2.396  0.00  0.00    +0.194 C 
ENDROOT
BRANCH   1   2
ATOM      2  C   UNL     1       3.681  -3.137  -3.606  0.00  0.00    +0.002 A 
ATOM      3  C   UNL     1       2.555  -3.670  -4.205  0.00  0.00    +0.040 A 
ATOM      4  C   UNL     1       2.006  -3.057  -5.316  0.00  0.00    +0.127 A 
ATOM      5  C   UNL     1       2.584  -1.911  -5.829  0.00  0.00    +0.034 A 
ATOM      6  C   UNL     1       3.709  -1.376  -5.232  0.00  0.00    +0.022 A 
ATOM      7  C   UNL     1       4.255  -1.986  -4.116  0.00  0.00    +0.047 A 
ATOM      8 CL   UNL     1       5.665  -1.312  -3.361  0.00  0.00    -0.083 Cl
BRANCH   4   9
ATOM      9  N   UNL     1       0.800  -3.629  -5.956  0.00  0.00    +0.056 N 
ATOM     10  O   UNL     1       0.295  -4.631  -5.507  0.00  0.00    -0.126 OA
ATOM     11  O   UNL     1       0.321  -3.093  -6.928  0.00  0.00    -0.126 OA
ENDBRANCH   4   9
ENDBRANCH   1   2
BRANCH   1  12
ATOM     12  C   UNL     1       5.239  -4.880  -2.838  0.00  0.00    +0.239 C 
ATOM     13  O   UNL     1       5.084  -6.023  -2.462  0.00  0.00    -0.273 OA
ATOM     14  N   UNL     1       6.268  -4.571  -3.650  0.00  0.00    -0.308 N 
ATOM     15  H   UNL     1       6.447  -3.645  -3.876  0.00  0.00    +0.149 HD
BRANCH  14  16
ATOM     16  C   UNL     1       7.117  -5.635  -4.193  0.00  0.00    +0.030 C 
ATOM     17  C   UNL     1       7.967  -6.232  -3.070  0.00  0.00    +0.031 C 
ATOM     18  C   UNL     1       6.238  -6.728  -4.804  0.00  0.00    +0.031 C 
BRANCH  16  19
ATOM     19  C   UNL     1       8.033  -5.055  -5.273  0.00  0.00    +0.031 C 
BRANCH  19  20
ATOM     20  C   UNL     1       7.227  -4.123  -6.180  0.00  0.00    -0.036 C 
ATOM     21  C   UNL     1       6.839  -2.864  -5.402  0.00  0.00    +0.010 C 
ATOM     22  C   UNL     1       8.074  -3.732  -7.392  0.00  0.00    +0.010 C 
ATOM     23  C   UNL     1       5.961  -4.841  -6.652  0.00  0.00    +0.010 C 
ENDBRANCH  19  20
ENDBRANCH  16  19
ENDBRANCH  14  16
ENDBRANCH   1  12
BRANCH   1  24
ATOM     24  N   UNL     1       3.211  -4.404  -1.591  0.00  0.00    -0.272 N 
ATOM     25  C   UNL     1       2.562  -5.497  -2.040  0.00  0.00    +0.283 C 
ATOM     26  O   UNL     1       2.909  -6.027  -3.079  0.00  0.00    -0.267 OA
BRANCH  25  27
ATOM     27  C   UNL     1       1.438  -6.048  -1.275  0.00  0.00    +0.189 A 
ATOM     28  C   UNL     1       0.639  -7.087  -1.658  0.00  0.00    +0.054 A 
ATOM     29  C   UNL     1      -0.298  -7.275  -0.631  0.00  0.00    +0.042 A 
ATOM     30  C   UNL     1      -0.034  -6.355   0.323  0.00  0.00    +0.196 A 
ATOM     31  O   UNL     1       1.016  -5.620  -0.067  0.00  0.00    -0.458 OA
ENDBRANCH  25  27
BRANCH  24  32
ATOM     32  C   UNL     1       2.849  -3.816  -0.299  0.00  0.00    +0.183 C 
BRANCH  32  37
ATOM     33  C   UNL     1       0.968   0.791  -1.119  0.00  0.00    +0.086 C 
ATOM     34  C   UNL     1       1.046  -0.693  -0.872  0.00  0.00    +0.102 A 
ATOM     35  C   UNL     1      -0.003  -1.529  -0.767  0.00  0.00    +0.045 A 
ATOM     36  C   UNL     1       0.525  -2.821  -0.537  0.00  0.00    +0.046 A 
ATOM     37  C   UNL     1       1.864  -2.697  -0.516  0.00  0.00    +0.122 A 
ATOM     38  O   UNL     1       2.174  -1.407  -0.725  0.00  0.00    -0.463 OA
ENDBRANCH  32  37
ENDBRANCH  24  32
ENDBRANCH   1  24
TORSDOF 10
