REMARK  Name = ZINC39448727
REMARK  8 active torsions:
REMARK  status: ('A' for Active; 'I' for Inactive)
REMARK    1  A    between atoms: C_4  and  C_7
REMARK    2  A    between atoms: C_8  and  C_31
REMARK    3  A    between atoms: C_9  and  N_18
REMARK    4  A    between atoms: C_11  and  C_12
REMARK    5  A    between atoms: C_19  and  C_22
REMARK    6  A    between atoms: N_20  and  O_21
REMARK    7  A    between atoms: C_22  and  C_25
REMARK    8  A    between atoms: N_23  and  O_24
REMARK                            x       y       z     vdW  Elec       q    Type
REMARK                         _______ _______ _______ _____ _____    ______ ____
ROOT
ATOM      1  C   UNL     1       3.796  -0.930  -0.015  0.00  0.00    +0.047 A 
ATOM      2  C   UNL     1       4.789  -0.936  -1.106  0.00  0.00    +0.120 A 
ATOM      3  C   UNL     1       5.896  -1.596  -0.595  0.00  0.00    +0.210 A 
ATOM      4  O   UNL     1       5.630  -1.961   0.667  0.00  0.00    -0.439 OA
ATOM      5  C   UNL     1       4.393  -1.572   1.034  0.00  0.00    +0.146 A 
ENDROOT
BRANCH   1   9
ATOM      6  C   UNL     1      -0.107   0.749  -0.110  0.00  0.00    +0.000 A 
ATOM      7  C   UNL     1       1.000   1.574  -0.196  0.00  0.00    +0.001 A 
ATOM      8  C   UNL     1       2.270   1.035  -0.165  0.00  0.00    +0.008 A 
ATOM      9  C   UNL     1       2.436  -0.345  -0.048  0.00  0.00    -0.013 A 
ATOM     10  C   UNL     1       1.315  -1.171   0.038  0.00  0.00    +0.008 A 
ATOM     11  C   UNL     1       0.051  -0.620   0.007  0.00  0.00    +0.001 A 
ENDBRANCH   1   9
BRANCH   5  12
ATOM     12  C   UNL     1       3.781  -1.804   2.356  0.00  0.00    +0.018 A 
ATOM     13  C   UNL     1       3.861  -3.064   2.955  0.00  0.00    +0.011 A 
ATOM     14  C   UNL     1       3.287  -3.274   4.191  0.00  0.00    +0.001 A 
ATOM     15  C   UNL     1       2.632  -2.240   4.838  0.00  0.00    +0.000 A 
ATOM     16  C   UNL     1       2.549  -0.990   4.251  0.00  0.00    +0.001 A 
ATOM     17  C   UNL     1       3.123  -0.764   3.017  0.00  0.00    +0.011 A 
ENDBRANCH   5  12
BRANCH   3  18
ATOM     18  N   UNL     1       7.074  -1.836  -1.271  0.00  0.00    -0.265 N 
ATOM     19  C   UNL     1       8.110  -2.511  -0.641  0.00  0.00    +0.193 C 
ATOM     20  N   UNL     1       7.971  -2.916   0.587  0.00  0.00    -0.069 NA
ATOM     21  H   UNL     1       7.178  -1.534  -2.187  0.00  0.00    +0.157 HD
BRANCH  20  22
ATOM     22  O   UNL     1       9.066  -3.501   1.268  0.00  0.00    -0.408 OA
ATOM     23  H   UNL     1       8.847  -3.839   2.147  0.00  0.00    +0.328 HD
ENDBRANCH  20  22
BRANCH  19  24
ATOM     24  C   UNL     1       9.373  -2.769  -1.367  0.00  0.00    +0.153 C 
ATOM     25  N   UNL     1       9.477  -2.455  -2.627  0.00  0.00    -0.083 NA
BRANCH  24  26
ATOM     26  C   UNL     1      10.521  -3.386  -0.660  0.00  0.00    +0.007 A 
ATOM     27  C   UNL     1      10.713  -4.766  -0.708  0.00  0.00    +0.010 A 
ATOM     28  C   UNL     1      11.783  -5.334  -0.048  0.00  0.00    +0.001 A 
ATOM     29  C   UNL     1      12.665  -4.537   0.660  0.00  0.00    +0.000 A 
ATOM     30  C   UNL     1      12.480  -3.167   0.711  0.00  0.00    +0.001 A 
ATOM     31  C   UNL     1      11.416  -2.587   0.050  0.00  0.00    +0.010 A 
ENDBRANCH  24  26
BRANCH  25  32
ATOM     32  O   UNL     1      10.645  -2.799  -3.348  0.00  0.00    -0.409 OA
ATOM     33  H   UNL     1      10.630  -2.524  -4.275  0.00  0.00    +0.328 HD
ENDBRANCH  25  32
ENDBRANCH  19  24
ENDBRANCH   3  18
BRANCH   2  34
ATOM     34  C   UNL     1       4.641  -0.378  -2.417  0.00  0.00    +0.105 C 
ATOM     35  N   UNL     1       4.523   0.065  -3.456  0.00  0.00    -0.191 NA
ENDBRANCH   2  34
TORSDOF 8
