REMARK  Name = ZINC03344388
REMARK  10 active torsions:
REMARK  status: ('A' for Active; 'I' for Inactive)
REMARK    1  A    between atoms: C_1  and  C_2
REMARK    2  A    between atoms: C_2  and  C_3
REMARK    3  A    between atoms: C_2  and  C_4
REMARK    4  A    between atoms: C_2  and  C_5
REMARK    5  A    between atoms: C_8  and  C_11
REMARK    6  A    between atoms: C_14  and  S_17
REMARK    7  A    between atoms: N_15  and  N_16
REMARK    8  A    between atoms: S_17  and  C_18
REMARK    9  A    between atoms: C_18  and  C_19
REMARK   10  A    between atoms: N_21  and  C_22
REMARK                            x       y       z     vdW  Elec       q    Type
REMARK                         _______ _______ _______ _____ _____    ______ ____
ROOT
ATOM      1  C   UNL     1       3.657   3.139  -0.074  0.00  0.00    +0.182 A 
ATOM      2  N   UNL     1       3.761   1.838   0.071  0.00  0.00    -0.127 NA
ATOM      3  N   UNL     1       2.596   1.298   0.027  0.00  0.00    -0.121 NA
ATOM      4  C   UNL     1       1.677   2.220  -0.159  0.00  0.00    +0.209 A 
ATOM      5  N   UNL     1       2.319   3.423  -0.225  0.00  0.00    -0.224 N 
ENDROOT
BRANCH   1   9
ATOM      6  C   UNL     1       6.849   5.941  -0.073  0.00  0.00    -0.042 A 
ATOM      7  C   UNL     1       5.550   6.377   0.120  0.00  0.00    +0.005 A 
ATOM      8  C   UNL     1       4.509   5.472   0.121  0.00  0.00    +0.012 A 
ATOM      9  C   UNL     1       4.768   4.114  -0.073  0.00  0.00    +0.021 A 
ATOM     10  C   UNL     1       6.081   3.681  -0.262  0.00  0.00    +0.012 A 
ATOM     11  C   UNL     1       7.113   4.597  -0.266  0.00  0.00    +0.005 A 
BRANCH   6  13
ATOM     12  C   UNL     1       8.027   7.656   1.276  0.00  0.00    +0.015 C 
ATOM     13  C   UNL     1       7.981   6.936  -0.073  0.00  0.00    -0.013 C 
ATOM     14  C   UNL     1       9.304   6.202  -0.305  0.00  0.00    +0.015 C 
ATOM     15  C   UNL     1       7.762   7.958  -1.190  0.00  0.00    +0.015 C 
ENDBRANCH   6  13
ENDBRANCH   1   9
BRANCH   5  16
ATOM     16  N   UNL     1       1.752   4.653  -0.405  0.00  0.00    -0.295 N 
ATOM     17  H   UNL     1       1.601   5.114   0.479  0.00  0.00    +0.163 HD
ATOM     18  H   UNL     1       2.313   5.223  -1.019  0.00  0.00    +0.163 HD
ENDBRANCH   5  16
BRANCH   4  19
ATOM     19  S   UNL     1      -0.060   1.953  -0.289  0.00  0.00    -0.075 S 
BRANCH  19  20
ATOM     20  C   UNL     1      -0.116   0.153  -0.107  0.00  0.00    +0.173 C 
BRANCH  20  21
ATOM     21  C   UNL     1      -1.546  -0.315  -0.188  0.00  0.00    +0.228 C 
ATOM     22  O   UNL     1      -2.439   0.489  -0.353  0.00  0.00    -0.275 OA
ATOM     23  N   UNL     1      -1.833  -1.627  -0.078  0.00  0.00    -0.284 N 
ATOM     24  H   UNL     1      -1.115  -2.277  -0.019  0.00  0.00    +0.155 HD
BRANCH  23  25
ATOM     25  C   UNL     1      -3.167  -2.053  -0.048  0.00  0.00    +0.052 A 
ATOM     26  C   UNL     1      -4.130  -1.373  -0.781  0.00  0.00    +0.026 A 
ATOM     27  C   UNL     1      -5.445  -1.794  -0.751  0.00  0.00    +0.022 A 
ATOM     28  C   UNL     1      -5.803  -2.894   0.009  0.00  0.00    +0.042 A 
ATOM     29  C   UNL     1      -4.846  -3.575   0.740  0.00  0.00    +0.041 A 
ATOM     30  C   UNL     1      -3.527  -3.160   0.710  0.00  0.00    +0.064 A 
ATOM     31 CL   UNL     1      -2.325  -4.018   1.622  0.00  0.00    -0.082 Cl
ATOM     32 CL   UNL     1      -7.457  -3.421   0.044  0.00  0.00    -0.083 Cl
ENDBRANCH  23  25
ENDBRANCH  20  21
ENDBRANCH  19  20
ENDBRANCH   4  19
TORSDOF 7
