REMARK  Name = ZINC62621057
REMARK  13 active torsions:
REMARK  status: ('A' for Active; 'I' for Inactive)
REMARK    1  A    between atoms: C_1  and  C_2
REMARK    2  A    between atoms: C_5  and  N_9
REMARK    3  A    between atoms: C_6  and  C_8
REMARK    4  A    between atoms: N_9  and  S_10
REMARK    5  A    between atoms: S_10  and  C_13
REMARK    6  A    between atoms: C_16  and  N_22
REMARK    7  A    between atoms: C_17  and  N_19
REMARK    8  A    between atoms: N_22  and  C_23
REMARK    9  A    between atoms: C_23  and  C_24
REMARK   10  A    between atoms: C_24  and  C_25
REMARK   11  A    between atoms: C_25  and  N_26
REMARK   12  A    between atoms: C_27  and  C_29
REMARK   13  A    between atoms: C_33  and  O_35
REMARK                            x       y       z     vdW  Elec       q    Type
REMARK                         _______ _______ _______ _____ _____    ______ ____
ROOT
ATOM      1  C   UNL     1       2.523  -4.732  -1.168  0.00  0.00    +0.111 A 
ATOM      2  C   UNL     1       3.114  -3.626  -1.751  0.00  0.00    +0.031 A 
ATOM      3  C   UNL     1       4.469  -3.406  -1.599  0.00  0.00    +0.027 A 
ATOM      4  C   UNL     1       5.238  -4.296  -0.860  0.00  0.00    +0.058 A 
ATOM      5  C   UNL     1       4.640  -5.406  -0.276  0.00  0.00    +0.149 A 
ATOM      6  C   UNL     1       3.284  -5.617  -0.427  0.00  0.00    +0.063 A 
ENDROOT
BRANCH   1   7
ATOM      7  S   UNL     1       0.793  -5.009  -1.363  0.00  0.00    +0.072 S 
ATOM      8  O   UNL     1       0.581  -6.401  -1.172  0.00  0.00    -0.150 OA
ATOM      9  O   UNL     1       0.406  -4.335  -2.553  0.00  0.00    -0.150 OA
BRANCH   7  10
ATOM     10  N   UNL     1       0.030  -4.238  -0.112  0.00  0.00    -0.216 N 
ATOM     11  H   UNL     1      -0.514  -4.745   0.510  0.00  0.00    +0.174 HD
BRANCH  10  16
ATOM     12  C   UNL     1       0.592   1.368   0.530  0.00  0.00    +0.044 C 
ATOM     13  C   UNL     1       0.443  -0.121   0.359  0.00  0.00    -0.050 A 
ATOM     14  C   UNL     1       0.390  -0.669  -0.910  0.00  0.00    +0.005 A 
ATOM     15  C   UNL     1       0.253  -2.033  -1.070  0.00  0.00    +0.025 A 
ATOM     16  C   UNL     1       0.169  -2.857   0.046  0.00  0.00    +0.051 A 
ATOM     17  C   UNL     1       0.222  -2.304   1.319  0.00  0.00    -0.028 A 
ATOM     18  C   UNL     1       0.365  -0.939   1.472  0.00  0.00    +0.008 A 
ATOM     19  C   UNL     1       0.131  -3.193   2.532  0.00  0.00    +0.046 C 
ENDBRANCH  10  16
ENDBRANCH   7  10
ENDBRANCH   1   7
BRANCH   5  20
ATOM     20  N   UNL     1       5.455  -6.357   0.512  0.00  0.00    +0.058 N 
ATOM     21  O   UNL     1       6.581  -6.623   0.161  0.00  0.00    -0.126 OA
ATOM     22  O   UNL     1       4.995  -6.868   1.506  0.00  0.00    -0.126 OA
ENDBRANCH   5  20
BRANCH   4  23
ATOM     23  N   UNL     1       6.608  -4.077  -0.706  0.00  0.00    -0.342 N 
ATOM     24  H   UNL     1       7.156  -4.734  -0.248  0.00  0.00    +0.146 HD
BRANCH  23  25
ATOM     25  C   UNL     1       7.219  -2.854  -1.234  0.00  0.00    +0.103 C 
BRANCH  25  26
ATOM     26  C   UNL     1       8.719  -2.862  -0.933  0.00  0.00    +0.037 C 
BRANCH  26  27
ATOM     27  C   UNL     1       9.356  -1.585  -1.485  0.00  0.00    +0.106 C 
BRANCH  27  28
ATOM     28  N   UNL     1      10.793  -1.592  -1.196  0.00  0.00    -0.311 N 
ATOM     29  C   UNL     1      11.564  -0.560  -1.592  0.00  0.00    +0.244 C 
ATOM     30  O   UNL     1      11.069   0.376  -2.187  0.00  0.00    -0.270 OA
ATOM     31  H   UNL     1      11.188  -2.340  -0.721  0.00  0.00    +0.149 HD
BRANCH  29  32
ATOM     32  C   UNL     1      13.014  -0.568  -1.301  0.00  0.00    +0.040 A 
ATOM     33  C   UNL     1      13.587  -1.645  -0.622  0.00  0.00    +0.013 A 
ATOM     34  C   UNL     1      14.940  -1.648  -0.352  0.00  0.00    +0.004 A 
ATOM     35  C   UNL     1      15.732  -0.587  -0.751  0.00  0.00    +0.045 A 
ATOM     36  C   UNL     1      15.171   0.488  -1.427  0.00  0.00    +0.118 A 
ATOM     37  C   UNL     1      13.815   0.499  -1.709  0.00  0.00    +0.058 A 
BRANCH  36  38
ATOM     38  O   UNL     1      15.954   1.528  -1.817  0.00  0.00    -0.507 OA
ATOM     39  H   UNL     1      16.334   1.425  -2.700  0.00  0.00    +0.292 HD
ENDBRANCH  36  38
ENDBRANCH  29  32
ENDBRANCH  27  28
ENDBRANCH  26  27
ENDBRANCH  25  26
ENDBRANCH  23  25
ENDBRANCH   4  23
TORSDOF 11
