REMARK  Name = ZINC04221964
REMARK  13 active torsions:
REMARK  status: ('A' for Active; 'I' for Inactive)
REMARK    1  A    between atoms: C_1  and  C_2
REMARK    2  A    between atoms: C_7  and  C_9
REMARK    3  A    between atoms: C_9  and  S_10
REMARK    4  A    between atoms: S_10  and  C_13
REMARK    5  A    between atoms: C_21  and  C_41
REMARK    6  A    between atoms: C_24  and  O_40
REMARK    7  A    between atoms: C_26  and  C_30
REMARK    8  A    between atoms: C_30  and  C_32
REMARK    9  A    between atoms: C_30  and  C_33
REMARK   10  A    between atoms: N_35  and  C_36
REMARK   11  A    between atoms: C_36  and  C_37
REMARK   12  A    between atoms: C_37  and  O_38
REMARK   13  A    between atoms: O_38  and  C_39
REMARK                            x       y       z     vdW  Elec       q    Type
REMARK                         _______ _______ _______ _____ _____    ______ ____
ROOT
ATOM      1  C   UNL     1      -5.036   1.466  -1.224  0.00  0.00    +0.014 C 
ATOM      2  C   UNL     1      -4.317   0.702  -0.111  0.00  0.00    +0.042 C 
ATOM      3  C   UNL     1      -5.284   0.450   1.036  0.00  0.00    +0.055 A 
ATOM      4  C   UNL     1      -4.867   0.591   2.322  0.00  0.00    +0.014 A 
ATOM      5  S   UNL     1      -6.325   0.190   3.247  0.00  0.00    -0.075 S 
ATOM      6  C   UNL     1      -7.358  -0.126   1.885  0.00  0.00    +0.100 A 
ATOM      7  N   UNL     1      -6.552   0.087   0.873  0.00  0.00    -0.247 NA
ATOM      8  C   UNL     1      -3.515   0.985   2.802  0.00  0.00    +0.051 C 
ATOM      9  C   UNL     1      -2.516   0.876   1.634  0.00  0.00    -0.022 C 
ATOM     10  C   UNL     1      -3.128   1.530   0.393  0.00  0.00    +0.033 C 
ATOM     11  C   UNL     1      -2.095   1.585  -0.738  0.00  0.00    +0.123 C 
ATOM     12  C   UNL     1      -0.856   2.357  -0.289  0.00  0.00    +0.029 C 
ATOM     13  C   UNL     1      -0.234   1.636   0.910  0.00  0.00    +0.007 C 
ATOM     14  C   UNL     1      -1.243   1.623   2.056  0.00  0.00    +0.008 C 
ATOM     15  C   UNL     1      -2.203  -0.594   1.349  0.00  0.00    +0.012 C 
ENDROOT
BRANCH  12  16
ATOM     16  C   UNL     1       0.157   2.417  -1.434  0.00  0.00    +0.077 C 
ATOM     17  C   UNL     1       0.685   1.010  -1.722  0.00  0.00    +0.017 C 
BRANCH  16  18
ATOM     18  C   UNL     1       1.303   3.314  -1.044  0.00  0.00    +0.216 C 
ATOM     19  O   UNL     1       1.314   3.845   0.046  0.00  0.00    -0.276 OA
ATOM     20  N   UNL     1       2.317   3.525  -1.907  0.00  0.00    -0.313 N 
ATOM     21  H   UNL     1       2.309   3.100  -2.779  0.00  0.00    +0.149 HD
BRANCH  20  22
ATOM     22  C   UNL     1       3.432   4.397  -1.528  0.00  0.00    +0.132 C 
BRANCH  22  23
ATOM     23  C   UNL     1       4.439   4.467  -2.677  0.00  0.00    +0.178 C 
BRANCH  23  24
ATOM     24  O   UNL     1       3.831   5.099  -3.805  0.00  0.00    -0.381 OA
ATOM     25  C   UNL     1       4.691   5.215  -4.940  0.00  0.00    +0.194 C 
ENDBRANCH  23  24
ENDBRANCH  22  23
ENDBRANCH  20  22
ENDBRANCH  16  18
ENDBRANCH  12  16
BRANCH  11  26
ATOM     26  O   UNL     1      -2.672   2.235  -1.873  0.00  0.00    -0.391 OA
ATOM     27  H   UNL     1      -2.123   2.196  -2.669  0.00  0.00    +0.210 HD
ENDBRANCH  11  26
BRANCH   6  28
ATOM     28  C   UNL     1      -8.807  -0.539   1.870  0.00  0.00    +0.234 C 
BRANCH  28  29
ATOM     29  S   UNL     1      -8.921  -2.349   1.891  0.00  0.00    +0.003 S 
ATOM     30  O   UNL     1      -8.430  -2.884   0.669  0.00  0.00    -0.169 OA
ATOM     31  O   UNL     1      -8.463  -2.854   3.138  0.00  0.00    -0.169 OA
BRANCH  29  32
ATOM     32  C   UNL     1     -10.648  -2.695   1.872  0.00  0.00    +0.089 A 
ATOM     33  C   UNL     1     -11.340  -2.822   3.062  0.00  0.00    +0.028 A 
ATOM     34  C   UNL     1     -12.697  -3.088   3.048  0.00  0.00    +0.022 A 
ATOM     35  C   UNL     1     -13.359  -3.238   1.843  0.00  0.00    +0.041 A 
ATOM     36  C   UNL     1     -12.665  -3.117   0.652  0.00  0.00    +0.022 A 
ATOM     37  C   UNL     1     -11.309  -2.846   0.668  0.00  0.00    +0.028 A 
ATOM     38 CL   UNL     1     -15.061  -3.580   1.825  0.00  0.00    -0.084 Cl
ENDBRANCH  29  32
ENDBRANCH  28  29
ENDBRANCH   6  28
TORSDOF 9
