REMARK  Name = ZINC03529816
REMARK  7 active torsions:
REMARK  status: ('A' for Active; 'I' for Inactive)
REMARK    1  A    between atoms: C_1  and  O_2
REMARK    2  A    between atoms: O_2  and  C_3
REMARK    3  A    between atoms: C_6  and  C_9
REMARK    4  A    between atoms: C_14  and  C_26
REMARK    5  A    between atoms: N_16  and  C_19
REMARK    6  A    between atoms: C_29  and  O_32
REMARK    7  A    between atoms: O_32  and  C_33
REMARK                            x       y       z     vdW  Elec       q    Type
REMARK                         _______ _______ _______ _____ _____    ______ ____
ROOT
ATOM      1  C   UNL     1      -2.333   1.240  -0.031  0.00  0.00    +0.141 C 
ATOM      2  C   UNL     1      -2.946   1.078  -1.403  0.00  0.00    +0.075 C 
ATOM      3  C   UNL     1      -4.252   1.445  -1.573  0.00  0.00    +0.101 C 
ATOM      4  N   UNL     1      -4.824   1.277  -2.812  0.00  0.00    -0.310 N 
ATOM      5  C   UNL     1      -3.959   1.331  -3.997  0.00  0.00    +0.198 C 
ATOM      6  N   UNL     1      -2.716   0.603  -3.724  0.00  0.00    -0.244 N 
ATOM      7  C   UNL     1      -2.212   0.562  -2.474  0.00  0.00    +0.254 C 
ATOM      8  O   UNL     1      -1.112   0.074  -2.278  0.00  0.00    -0.270 OA
ATOM      9  N   UNL     1      -4.972   1.963  -0.529  0.00  0.00    -0.285 N 
ATOM     10  C   UNL     1      -4.469   2.131   0.701  0.00  0.00    +0.136 C 
ATOM     11  S   UNL     1      -5.476   2.791   1.918  0.00  0.00    -0.019 S 
ATOM     12  N   UNL     1      -3.202   1.800   1.020  0.00  0.00    -0.315 N 
ATOM     13  H   UNL     1      -5.778   1.126  -2.901  0.00  0.00    +0.149 HD
ATOM     14  H   UNL     1      -5.893   2.223  -0.689  0.00  0.00    +0.155 HD
ATOM     15  H   UNL     1      -2.869   1.929   1.922  0.00  0.00    +0.149 HD
ENDROOT
BRANCH   6  16
ATOM     16  C   UNL     1      -2.049  -0.051  -4.766  0.00  0.00    +0.039 A 
ATOM     17  C   UNL     1      -0.730   0.273  -5.059  0.00  0.00    +0.025 A 
ATOM     18  C   UNL     1      -0.073  -0.378  -6.085  0.00  0.00    +0.022 A 
ATOM     19  C   UNL     1      -0.729  -1.344  -6.826  0.00  0.00    +0.041 A 
ATOM     20  C   UNL     1      -2.045  -1.665  -6.539  0.00  0.00    +0.022 A 
ATOM     21  C   UNL     1      -2.705  -1.021  -5.512  0.00  0.00    +0.025 A 
ATOM     22 CL   UNL     1       0.098  -2.155  -8.119  0.00  0.00    -0.084 Cl
ENDBRANCH   6  16
BRANCH   1  26
ATOM     23  C   UNL     1       1.091   3.768  -0.409  0.00  0.00    +0.120 A 
ATOM     24  C   UNL     1       1.248   2.391  -0.335  0.00  0.00    +0.046 A 
ATOM     25  C   UNL     1       0.140   1.577  -0.209  0.00  0.00    +0.009 A 
ATOM     26  C   UNL     1      -1.126   2.131  -0.162  0.00  0.00    -0.022 A 
ATOM     27  C   UNL     1      -1.285   3.503  -0.230  0.00  0.00    +0.009 A 
ATOM     28  C   UNL     1      -0.179   4.322  -0.356  0.00  0.00    +0.046 A 
BRANCH  23  30
ATOM     29  C   UNL     1       1.943   5.979  -0.604  0.00  0.00    +0.277 C 
ATOM     30  O   UNL     1       2.180   4.571  -0.533  0.00  0.00    -0.495 OA
ENDBRANCH  23  30
ENDBRANCH   1  26
BRANCH   5  31
ATOM     31  C   UNL     1      -3.640   2.767  -4.322  0.00  0.00    -0.009 A 
ATOM     32  C   UNL     1      -2.437   3.088  -4.923  0.00  0.00    +0.010 A 
ATOM     33  C   UNL     1      -2.144   4.404  -5.227  0.00  0.00    +0.046 A 
ATOM     34  C   UNL     1      -3.054   5.404  -4.918  0.00  0.00    +0.120 A 
ATOM     35  C   UNL     1      -4.258   5.080  -4.310  0.00  0.00    +0.046 A 
ATOM     36  C   UNL     1      -4.548   3.763  -4.014  0.00  0.00    +0.010 A 
BRANCH  34  37
ATOM     37  O   UNL     1      -2.766   6.700  -5.210  0.00  0.00    -0.495 OA
ATOM     38  C   UNL     1      -1.508   6.960  -5.836  0.00  0.00    +0.277 C 
ENDBRANCH  34  37
ENDBRANCH   5  31
TORSDOF 5
