REMARK  Name = ZINC17079676
REMARK  7 active torsions:
REMARK  status: ('A' for Active; 'I' for Inactive)
REMARK    1  A    between atoms: C_1  and  C_2
REMARK    2  A    between atoms: C_3  and  C_28
REMARK    3  A    between atoms: C_5  and  N_15
REMARK    4  A    between atoms: C_6  and  C_7
REMARK    5  A    between atoms: N_9  and  C_10
REMARK    6  A    between atoms: C_16  and  C_18
REMARK    7  A    between atoms: C_24  and  C_26
REMARK                            x       y       z     vdW  Elec       q    Type
REMARK                         _______ _______ _______ _____ _____    ______ ____
ROOT
ATOM      1  C   UNL     1       1.284   2.015  -2.572  0.00  0.00    +0.045 C 
ATOM      2  C   UNL     1       1.884   2.357  -1.232  0.00  0.00    -0.027 A 
ATOM      3  C   UNL     1       3.037   3.043  -1.135  0.00  0.00    -0.008 A 
ATOM      4  S   UNL     1       3.288   3.174   0.623  0.00  0.00    -0.078 S 
ATOM      5  C   UNL     1       1.880   2.335   1.180  0.00  0.00    +0.084 A 
ATOM      6  C   UNL     1       1.245   1.963   0.001  0.00  0.00    +0.068 A 
ATOM      7  C   UNL     1       3.906   3.573  -2.246  0.00  0.00    +0.052 C 
ENDROOT
BRANCH   6   8
ATOM      8  C   UNL     1      -0.014   1.213   0.009  0.00  0.00    +0.247 C 
ATOM      9  O   UNL     1       0.002  -0.004   0.002  0.00  0.00    -0.270 OA
ATOM     10  N   UNL     1      -1.191   1.871   0.018  0.00  0.00    -0.308 N 
ATOM     11  H   UNL     1      -1.204   2.841   0.023  0.00  0.00    +0.149 HD
BRANCH  10  12
ATOM     12  C   UNL     1      -2.449   1.121   0.020  0.00  0.00    +0.073 C 
ATOM     13  C   UNL     1      -2.873   0.795  -1.427  0.00  0.00    +0.022 C 
ATOM     14  C   UNL     1      -4.416   0.934  -1.411  0.00  0.00    +0.002 C 
ATOM     15  C   UNL     1      -4.641   2.147  -0.476  0.00  0.00    +0.002 C 
ATOM     16  C   UNL     1      -3.574   1.980   0.625  0.00  0.00    +0.022 C 
ENDBRANCH  10  12
ENDBRANCH   6   8
BRANCH   5  17
ATOM     17  N   UNL     1       1.482   2.091   2.486  0.00  0.00    -0.279 N 
ATOM     18  C   UNL     1       2.235   2.534   3.513  0.00  0.00    +0.222 C 
ATOM     19  O   UNL     1       3.259   3.145   3.295  0.00  0.00    -0.275 OA
ATOM     20  H   UNL     1       0.663   1.602   2.660  0.00  0.00    +0.155 HD
BRANCH  18  21
ATOM     21  C   UNL     1       1.803   2.268   4.932  0.00  0.00    +0.093 C 
ATOM     22  C   UNL     1       1.736   0.759   5.176  0.00  0.00    +0.040 C 
ATOM     23  C   UNL     1       1.569   0.479   6.641  0.00  0.00    -0.030 C 
ATOM     24  C   UNL     1       1.807   1.342   7.576  0.00  0.00    -0.030 C 
ATOM     25  C   UNL     1       2.274   2.746   7.326  0.00  0.00    +0.042 C 
ATOM     26  C   UNL     1       2.825   2.872   5.904  0.00  0.00    +0.118 C 
BRANCH  26  27
ATOM     27  C   UNL     1       3.045   4.325   5.568  0.00  0.00    +0.360 C 
ATOM     28  O   UNL     1       2.448   4.830   4.647  0.00  0.00    -0.246 OA
ATOM     29  O   UNL     1       3.905   5.058   6.293  0.00  0.00    -0.246 OA
ENDBRANCH  26  27
ENDBRANCH  18  21
ENDBRANCH   5  17
TORSDOF 5
