REMARK  Name = ZINC09134299
REMARK  3 active torsions:
REMARK  status: ('A' for Active; 'I' for Inactive)
REMARK    1  A    between atoms: C_1  and  N_2
REMARK    2  A    between atoms: C_6  and  N_13
REMARK    3  A    between atoms: C_14  and  C_16
REMARK                            x       y       z     vdW  Elec       q    Type
REMARK                         _______ _______ _______ _____ _____    ______ ____
ROOT
ATOM      1  C   UNL     1      -8.562  -2.262  -0.830  0.00  0.00    +0.138 C 
ATOM      2  N   UNL     1      -7.382  -2.977  -0.339  0.00  0.00    -0.274 N 
ATOM      3  C   UNL     1      -6.153  -2.312  -0.252  0.00  0.00    +0.039 A 
ATOM      4  C   UNL     1      -6.110  -0.924  -0.250  0.00  0.00    +0.025 A 
ATOM      5  C   UNL     1      -4.897  -0.271  -0.158  0.00  0.00    +0.025 A 
ATOM      6  C   UNL     1      -3.719  -1.002  -0.078  0.00  0.00    +0.034 A 
ATOM      7  C   UNL     1      -3.762  -2.390  -0.079  0.00  0.00    +0.028 A 
ATOM      8  C   UNL     1      -4.975  -3.043  -0.166  0.00  0.00    -0.024 A 
ATOM      9  C   UNL     1      -5.025  -4.549  -0.170  0.00  0.00    +0.046 C 
ATOM     10  C   UNL     1      -6.291  -5.019   0.547  0.00  0.00    +0.101 C 
ATOM     11  C   UNL     1      -7.486  -4.268   0.023  0.00  0.00    +0.220 C 
ATOM     12  O   UNL     1      -8.555  -4.834  -0.073  0.00  0.00    -0.275 OA
ENDROOT
BRANCH   6  13
ATOM     13  N   UNL     1      -2.489  -0.340   0.011  0.00  0.00    -0.281 N 
ATOM     14  C   UNL     1      -1.398  -0.863  -0.582  0.00  0.00    +0.250 C 
ATOM     15  O   UNL     1      -1.462  -1.950  -1.122  0.00  0.00    -0.270 OA
ATOM     16  H   UNL     1      -2.422   0.495   0.499  0.00  0.00    +0.155 HD
BRANCH  14  17
ATOM     17  C   UNL     1      -0.124  -0.115  -0.577  0.00  0.00    +0.055 A 
ATOM     18  C   UNL     1      -0.047   1.134   0.043  0.00  0.00    +0.016 A 
ATOM     19  C   UNL     1       1.146   1.825   0.050  0.00  0.00    +0.021 A 
ATOM     20  C   UNL     1       2.267   1.284  -0.559  0.00  0.00    +0.042 A 
ATOM     21  C   UNL     1       2.197   0.049  -1.180  0.00  0.00    +0.040 A 
ATOM     22  C   UNL     1       1.008  -0.653  -1.195  0.00  0.00    +0.054 A 
ATOM     23 CL   UNL     1       0.922  -2.202  -1.973  0.00  0.00    -0.083 Cl
ATOM     24 CL   UNL     1       3.765   2.161  -0.545  0.00  0.00    -0.083 Cl
ENDBRANCH  14  17
ENDBRANCH   6  13
TORSDOF 2
