REMARK  Name = ZINC21526883
REMARK  8 active torsions:
REMARK  status: ('A' for Active; 'I' for Inactive)
REMARK    1  A    between atoms: C_1  and  C_2
REMARK    2  A    between atoms: C_11  and  C_25
REMARK    3  A    between atoms: C_11  and  C_26
REMARK    4  A    between atoms: N_12  and  C_15
REMARK    5  A    between atoms: C_15  and  C_16
REMARK    6  A    between atoms: C_16  and  C_17
REMARK    7  A    between atoms: C_17  and  N_18
REMARK    8  A    between atoms: N_28  and  C_29
REMARK                            x       y       z     vdW  Elec       q    Type
REMARK                         _______ _______ _______ _____ _____    ______ ____
ROOT
ATOM      1  C   UNL     1      -0.544  -3.726  -1.275  0.00  0.00    +0.086 C 
ATOM      2  C   UNL     1      -0.001  -2.373  -0.894  0.00  0.00    +0.105 A 
ATOM      3  C   UNL     1       1.290  -2.005  -0.970  0.00  0.00    +0.071 A 
ATOM      4  C   UNL     1       1.373  -0.665  -0.520  0.00  0.00    +0.088 A 
ATOM      5  C   UNL     1       0.072  -0.288  -0.188  0.00  0.00    +0.154 A 
ATOM      6  O   UNL     1      -0.731  -1.347  -0.425  0.00  0.00    -0.458 OA
ATOM      7  C   UNL     1       0.117   1.041   0.259  0.00  0.00    +0.079 A 
ATOM      8  C   UNL     1       1.415   1.452   0.193  0.00  0.00    +0.109 A 
ATOM      9  N   UNL     1       2.192   0.396  -0.278  0.00  0.00    -0.331 N 
ATOM     10  C   UNL     1       3.644   0.520  -0.434  0.00  0.00    +0.157 C 
ATOM     11  C   UNL     1       3.992   1.978  -0.736  0.00  0.00    +0.128 C 
ATOM     12  N   UNL     1       3.320   2.910   0.162  0.00  0.00    -0.281 N 
ATOM     13  C   UNL     1       2.032   2.739   0.539  0.00  0.00    +0.264 C 
ATOM     14  O   UNL     1       1.417   3.605   1.133  0.00  0.00    -0.268 OA
ATOM     15  C   UNL     1       3.581   2.295  -2.176  0.00  0.00    +0.043 C 
ENDROOT
BRANCH  11  16
ATOM     16  C   UNL     1       5.482   2.162  -0.604  0.00  0.00    +0.238 C 
ATOM     17  O   UNL     1       6.105   2.717  -1.484  0.00  0.00    -0.273 OA
ATOM     18  N   UNL     1       6.122   1.709   0.492  0.00  0.00    -0.311 N 
ATOM     19  H   UNL     1       5.572   1.135   1.253  0.00  0.00    +0.149 HD
BRANCH  18  20
ATOM     20  C   UNL     1       7.550   1.980   0.671  0.00  0.00    +0.073 C 
ATOM     21  C   UNL     1       8.361   0.945  -0.136  0.00  0.00    +0.022 C 
ATOM     22  C   UNL     1       9.739   1.499  -0.376  0.00  0.00    +0.002 C 
ATOM     23  C   UNL     1      10.753   1.039   0.689  0.00  0.00    +0.000 C 
ATOM     24  C   UNL     1      10.173   1.062   2.116  0.00  0.00    +0.000 C 
ATOM     25  C   UNL     1       9.339   2.286   2.379  0.00  0.00    +0.002 C 
ATOM     26  C   UNL     1       7.863   1.944   2.092  0.00  0.00    +0.022 C 
ENDBRANCH  18  20
ENDBRANCH  11  16
BRANCH  12  27
ATOM     27  C   UNL     1       4.062   4.066   0.672  0.00  0.00    +0.107 C 
BRANCH  27  28
ATOM     28  C   UNL     1       4.620   3.743   2.059  0.00  0.00    +0.000 C 
BRANCH  28  29
ATOM     29  C   UNL     1       5.394   4.950   2.592  0.00  0.00    -0.077 C 
BRANCH  29  30
ATOM     30  N   UNL     1       5.929   4.640   3.924  0.00  0.00    +0.380 N 
ATOM     31  C   UNL     1       4.837   4.350   4.880  0.00  0.00    -0.079 C 
ATOM     32  C   UNL     1       5.310   4.295   6.307  0.00  0.00    -0.019 C 
ATOM     33  C   UNL     1       5.119   5.689   6.941  0.00  0.00    -0.002 C 
ATOM     34  C   UNL     1       6.168   6.622   6.545  0.00  0.00    -0.002 C 
ATOM     35  C   UNL     1       6.196   6.856   5.020  0.00  0.00    -0.019 C 
ATOM     36  C   UNL     1       6.879   5.684   4.370  0.00  0.00    -0.079 C 
ATOM     37  H   UNL     1       6.519   3.713   3.863  0.00  0.00    -0.082 HD
ENDBRANCH  29  30
ENDBRANCH  28  29
ENDBRANCH  27  28
ENDBRANCH  12  27
TORSDOF 6
