REMARK  Name = ZINC67419470
REMARK  9 active torsions:
REMARK  status: ('A' for Active; 'I' for Inactive)
REMARK    1  A    between atoms: C_1  and  C_2
REMARK    2  A    between atoms: C_4  and  C_31
REMARK    3  A    between atoms: C_6  and  N_8
REMARK    4  A    between atoms: C_9  and  C_11
REMARK    5  A    between atoms: C_11  and  C_13
REMARK    6  A    between atoms: C_11  and  N_19
REMARK    7  A    between atoms: C_23  and  C_26
REMARK    8  A    between atoms: C_26  and  N_27
REMARK    9  A    between atoms: C_28  and  C_30
REMARK                            x       y       z     vdW  Elec       q    Type
REMARK                         _______ _______ _______ _____ _____    ______ ____
ROOT
ATOM      1  C   UNL     1       0.280  -2.900   4.854  0.00  0.00    +0.050 C 
ENDROOT
BRANCH   1   2
ATOM      2  N   UNL     1       0.249  -1.962   5.984  0.00  0.00    +0.390 N 
ATOM      3  C   UNL     1       0.265  -2.716   7.244  0.00  0.00    -0.077 C 
ATOM      4  C   UNL     1       0.315  -1.743   8.424  0.00  0.00    -0.018 C 
ATOM      5  C   UNL     1      -0.919  -0.837   8.384  0.00  0.00    +0.001 C 
ATOM      6  C   UNL     1      -0.965  -0.112   7.036  0.00  0.00    -0.011 C 
ATOM      7  C   UNL     1      -0.967  -1.145   5.907  0.00  0.00    -0.072 C 
ATOM      8  H   UNL     1       1.060  -1.362   5.944  0.00  0.00    -0.080 HD
BRANCH   6   9
ATOM      9  C   UNL     1      -2.235   0.738   6.955  0.00  0.00    +0.105 C 
BRANCH   9  10
ATOM     10  N   UNL     1      -2.177   1.799   7.964  0.00  0.00    -0.315 N 
ATOM     11  C   UNL     1      -3.195   2.675   8.078  0.00  0.00    +0.210 C 
ATOM     12  O   UNL     1      -4.158   2.586   7.346  0.00  0.00    -0.276 OA
ATOM     13  C   UNL     1      -3.136   3.767   9.116  0.00  0.00    +0.109 C 
ATOM     14  H   UNL     1      -1.407   1.870   8.549  0.00  0.00    +0.149 HD
ENDBRANCH   9  10
ENDBRANCH   6   9
ENDBRANCH   1   2
BRANCH   1  15
ATOM     15  C   UNL     1       1.545  -3.718   4.913  0.00  0.00    -0.052 A 
ATOM     16  C   UNL     1       2.737  -3.121   5.279  0.00  0.00    +0.002 A 
ATOM     17  C   UNL     1       3.897  -3.871   5.334  0.00  0.00    +0.000 A 
ATOM     18  C   UNL     1       3.864  -5.218   5.023  0.00  0.00    +0.000 A 
ATOM     19  C   UNL     1       2.672  -5.814   4.658  0.00  0.00    +0.000 A 
ATOM     20  C   UNL     1       1.511  -5.065   4.607  0.00  0.00    +0.002 A 
ENDBRANCH   1  15
BRANCH   1  22
ATOM     21  N   UNL     1      -0.307  -2.683   2.461  0.00  0.00    -0.287 N 
ATOM     22  C   UNL     1       0.241  -2.128   3.560  0.00  0.00    +0.208 C 
ATOM     23  O   UNL     1       0.704  -1.008   3.507  0.00  0.00    -0.277 OA
ATOM     24  H   UNL     1      -0.741  -3.549   2.519  0.00  0.00    +0.155 HD
BRANCH  21  30
ATOM     25  C   UNL     1      -2.367  -1.595  -1.869  0.00  0.00    +0.044 C 
ATOM     26  C   UNL     1      -1.235  -1.466  -0.882  0.00  0.00    -0.048 A 
ATOM     27  C   UNL     1      -0.139  -0.680  -1.189  0.00  0.00    +0.006 A 
ATOM     28  C   UNL     1       0.902  -0.558  -0.286  0.00  0.00    -0.048 A 
ATOM     29  C   UNL     1       0.849  -1.221   0.924  0.00  0.00    +0.026 A 
ATOM     30  C   UNL     1      -0.251  -2.010   1.235  0.00  0.00    +0.034 A 
ATOM     31  C   UNL     1      -1.296  -2.127   0.329  0.00  0.00    +0.026 A 
ATOM     32  C   UNL     1       2.095   0.298  -0.624  0.00  0.00    +0.044 C 
ENDBRANCH  21  30
ENDBRANCH   1  22
TORSDOF 6
