REMARK  Name = ZINC34971409
REMARK  17 active torsions:
REMARK  status: ('A' for Active; 'I' for Inactive)
REMARK    1  A    between atoms: C_1  and  C_2
REMARK    2  A    between atoms: C_2  and  C_3
REMARK    3  A    between atoms: C_2  and  C_4
REMARK    4  A    between atoms: C_2  and  C_5
REMARK    5  A    between atoms: C_8  and  S_11
REMARK    6  A    between atoms: S_11  and  N_14
REMARK    7  A    between atoms: N_14  and  C_15
REMARK    8  A    between atoms: N_14  and  C_28
REMARK    9  A    between atoms: C_15  and  C_16
REMARK   10  A    between atoms: C_16  and  C_17
REMARK   11  A    between atoms: C_17  and  C_18
REMARK   12  A    between atoms: C_18  and  C_19
REMARK   13  A    between atoms: C_19  and  C_20
REMARK   14  A    between atoms: C_20  and  N_21
REMARK   15  A    between atoms: C_28  and  C_29
REMARK   16  A    between atoms: C_32  and  O_35
REMARK   17  A    between atoms: O_35  and  C_36
REMARK                            x       y       z     vdW  Elec       q    Type
REMARK                         _______ _______ _______ _____ _____    ______ ____
ROOT
ATOM      1  N   UNL     1       2.702  -0.741  -6.109  0.00  0.00    -0.172 NA
ENDROOT
BRANCH   1   2
ATOM      2  S   UNL     1       2.803  -1.867  -4.898  0.00  0.00    +0.061 S 
ATOM      3  O   UNL     1       1.477  -2.312  -4.647  0.00  0.00    -0.153 OA
ATOM      4  O   UNL     1       3.621  -1.300  -3.884  0.00  0.00    -0.153 OA
BRANCH   2   8
ATOM      5  C   UNL     1       5.069  -5.418  -6.555  0.00  0.00    -0.042 A 
ATOM      6  C   UNL     1       5.737  -4.446  -5.834  0.00  0.00    +0.006 A 
ATOM      7  C   UNL     1       5.045  -3.361  -5.328  0.00  0.00    +0.029 A 
ATOM      8  C   UNL     1       3.685  -3.248  -5.544  0.00  0.00    +0.106 A 
ATOM      9  C   UNL     1       3.016  -4.220  -6.265  0.00  0.00    +0.029 A 
ATOM     10  C   UNL     1       3.709  -5.302  -6.774  0.00  0.00    +0.006 A 
BRANCH   5  12
ATOM     11  C   UNL     1       5.691  -6.623  -8.630  0.00  0.00    +0.015 C 
ATOM     12  C   UNL     1       5.823  -6.600  -7.106  0.00  0.00    -0.013 C 
ATOM     13  C   UNL     1       5.243  -7.891  -6.524  0.00  0.00    +0.015 C 
ATOM     14  C   UNL     1       7.300  -6.486  -6.723  0.00  0.00    +0.015 C 
ENDBRANCH   5  12
ENDBRANCH   2   8
ENDBRANCH   1   2
BRANCH   1  15
ATOM     15  C   UNL     1       3.786   0.226  -6.301  0.00  0.00    +0.110 C 
BRANCH  15  16
ATOM     16  C   UNL     1       4.753  -0.297  -7.365  0.00  0.00    +0.017 C 
BRANCH  16  17
ATOM     17  C   UNL     1       5.884   0.713  -7.567  0.00  0.00    +0.001 C 
BRANCH  17  18
ATOM     18  C   UNL     1       6.851   0.191  -8.631  0.00  0.00    +0.002 C 
BRANCH  18  19
ATOM     19  C   UNL     1       7.983   1.200  -8.832  0.00  0.00    +0.019 C 
BRANCH  19  20
ATOM     20  C   UNL     1       8.950   0.678  -9.896  0.00  0.00    +0.103 C 
BRANCH  20  21
ATOM     21  N   UNL     1      10.033   1.645 -10.089  0.00  0.00    -0.331 N 
ATOM     22  C   UNL     1      11.039   1.386 -11.013  0.00  0.00    +0.096 A 
ATOM     23  C   UNL     1      11.008   0.210 -11.755  0.00  0.00    +0.041 A 
ATOM     24  C   UNL     1      12.016  -0.035 -12.670  0.00  0.00    +0.005 A 
ATOM     25  C   UNL     1      13.024   0.909 -12.813  0.00  0.00    +0.018 A 
ATOM     26  C   UNL     1      12.993   2.055 -12.044  0.00  0.00    +0.084 A 
ATOM     27  N   UNL     1      12.016   2.264 -11.182  0.00  0.00    -0.350 N 
ATOM     28  H   UNL     1      10.048   2.465  -9.572  0.00  0.00    +0.147 HD
ATOM     29  H   UNL     1      12.015   3.080 -10.657  0.00  0.00    +0.166 HD
ENDBRANCH  20  21
ENDBRANCH  19  20
ENDBRANCH  18  19
ENDBRANCH  17  18
ENDBRANCH  16  17
ENDBRANCH  15  16
ENDBRANCH   1  15
BRANCH   1  30
ATOM     30  C   UNL     1       1.530  -0.712  -6.987  0.00  0.00    +0.144 C 
BRANCH  30  31
ATOM     31  C   UNL     1       0.544   0.307  -6.476  0.00  0.00    -0.031 A 
ATOM     32  C   UNL     1      -0.499  -0.090  -5.660  0.00  0.00    +0.008 A 
ATOM     33  C   UNL     1      -1.403   0.843  -5.190  0.00  0.00    +0.046 A 
ATOM     34  C   UNL     1      -1.265   2.179  -5.538  0.00  0.00    +0.120 A 
ATOM     35  C   UNL     1      -0.217   2.574  -6.357  0.00  0.00    +0.046 A 
ATOM     36  C   UNL     1       0.688   1.639  -6.819  0.00  0.00    +0.008 A 
BRANCH  34  37
ATOM     37  O   UNL     1      -2.154   3.098  -5.078  0.00  0.00    -0.495 OA
ATOM     38  C   UNL     1      -1.949   4.455  -5.477  0.00  0.00    +0.277 C 
ENDBRANCH  34  37
ENDBRANCH  30  31
ENDBRANCH   1  30
TORSDOF 13
