REMARK  Name = ZINC21841882
REMARK  5 active torsions:
REMARK  status: ('A' for Active; 'I' for Inactive)
REMARK    1  A    between atoms: C_3  and  N_21
REMARK    2  A    between atoms: C_5  and  C_6
REMARK    3  A    between atoms: N_7  and  N_8
REMARK    4  A    between atoms: C_9  and  C_11
REMARK    5  A    between atoms: C_13  and  N_19
REMARK                            x       y       z     vdW  Elec       q    Type
REMARK                         _______ _______ _______ _____ _____    ______ ____
ROOT
ATOM      1  N   UNL     1      -0.011   0.966   0.007  0.00  0.00    -0.202 N 
ATOM      2  C   UNL     1      -1.187   1.624   0.017  0.00  0.00    +0.283 C 
ATOM      3  O   UNL     1      -1.204   2.840   0.023  0.00  0.00    -0.267 OA
ATOM      4  H   UNL     1       0.004  -0.134   0.006  0.00  0.00    +0.178 HD
ENDROOT
BRANCH   2   5
ATOM      5  C   UNL     1      -2.458   0.867   0.018  0.00  0.00    +0.149 A 
ATOM      6  C   UNL     1      -3.670   1.553   0.034  0.00  0.00    +0.094 A 
ATOM      7  C   UNL     1      -4.859   0.824   0.030  0.00  0.00    +0.067 A 
ATOM      8  C   UNL     1      -4.783  -0.568   0.022  0.00  0.00    +0.100 A 
ATOM      9  C   UNL     1      -3.539  -1.178   0.013  0.00  0.00    +0.150 A 
ATOM     10  N   UNL     1      -2.433  -0.463   0.011  0.00  0.00    -0.228 NA
ATOM     11 CL   UNL     1      -3.436  -2.911   0.003  0.00  0.00    -0.060 Cl
ATOM     12 CL   UNL     1      -6.230  -1.526   0.024  0.00  0.00    -0.078 Cl
ATOM     13 CL   UNL     1      -3.699   3.289   0.050  0.00  0.00    -0.079 Cl
BRANCH   7  14
ATOM     14  N   UNL     1      -6.093   1.472   0.040  0.00  0.00    -0.356 N 
ATOM     15  H   UNL     1      -7.023   0.883   0.037  0.00  0.00    +0.142 HD
ATOM     16  H   UNL     1      -6.138   2.571   0.051  0.00  0.00    +0.142 HD
ENDBRANCH   7  14
ENDBRANCH   2   5
BRANCH   1  18
ATOM     17  C   UNL     1       2.329   1.047  -0.015  0.00  0.00    +0.145 C 
ATOM     18  N   UNL     1       1.193   1.683  -0.000  0.00  0.00    -0.187 NA
BRANCH  17  23
ATOM     19  C   UNL     1       4.886   1.317  -0.037  0.00  0.00    +0.019 A 
ATOM     20  C   UNL     1       5.918   2.225  -0.043  0.00  0.00    +0.031 A 
ATOM     21  C   UNL     1       5.628   3.562  -0.033  0.00  0.00    +0.069 A 
ATOM     22  S   UNL     1       3.842   3.562  -0.023  0.00  0.00    -0.073 S 
ATOM     23  C   UNL     1       3.586   1.796  -0.022  0.00  0.00    +0.034 A 
BRANCH  21  24
ATOM     24  N   UNL     1       6.500   4.644  -0.035  0.00  0.00    -0.325 N 
ATOM     25  C   UNL     1       7.441   4.564   1.089  0.00  0.00    +0.105 C 
ATOM     26  C   UNL     1       8.475   5.686   0.973  0.00  0.00    +0.019 C 
ATOM     27  C   UNL     1       7.756   7.038   0.980  0.00  0.00    +0.003 C 
ATOM     28  C   UNL     1       6.747   7.077  -0.171  0.00  0.00    +0.019 C 
ATOM     29  C   UNL     1       5.764   5.914  -0.021  0.00  0.00    +0.105 C 
ENDBRANCH  21  24
ENDBRANCH  17  23
ENDBRANCH   1  18
TORSDOF 5
