REMARK  Name = ZINC53044179
REMARK  10 active torsions:
REMARK  status: ('A' for Active; 'I' for Inactive)
REMARK    1  A    between atoms: C_1  and  C_2
REMARK    2  A    between atoms: C_2  and  C_3
REMARK    3  A    between atoms: C_3  and  C_4
REMARK    4  A    between atoms: C_3  and  C_6
REMARK    5  A    between atoms: C_3  and  N_8
REMARK    6  A    between atoms: C_4  and  C_5
REMARK    7  A    between atoms: C_6  and  O_7
REMARK    8  A    between atoms: C_9  and  C_11
REMARK    9  A    between atoms: C_13  and  N_19
REMARK   10  A    between atoms: C_14  and  C_18
REMARK                            x       y       z     vdW  Elec       q    Type
REMARK                         _______ _______ _______ _____ _____    ______ ____
ROOT
ATOM      1  N   UNL     1       2.077   0.091   1.294  0.00  0.00    -0.304 N 
ATOM      2  C   UNL     1       2.949  -0.115   0.287  0.00  0.00    +0.245 C 
ATOM      3  O   UNL     1       2.628  -0.800  -0.664  0.00  0.00    -0.270 OA
ATOM      4  H   UNL     1       2.333   0.638   2.053  0.00  0.00    +0.150 HD
ENDROOT
BRANCH   2   5
ATOM      5  C   UNL     1       4.296   0.493   0.340  0.00  0.00    +0.041 A 
ATOM      6  C   UNL     1       5.198   0.285  -0.704  0.00  0.00    +0.036 A 
ATOM      7  C   UNL     1       6.460   0.858  -0.649  0.00  0.00    +0.031 A 
ATOM      8  C   UNL     1       6.823   1.635   0.445  0.00  0.00    +0.005 A 
ATOM      9  C   UNL     1       5.929   1.842   1.480  0.00  0.00    +0.129 A 
ATOM     10  C   UNL     1       4.666   1.280   1.431  0.00  0.00    +0.051 A 
ATOM     11  F   UNL     1       6.288   2.599   2.540  0.00  0.00    -0.205 F 
ATOM     12  C   UNL     1       8.195   2.256   0.502  0.00  0.00    +0.048 C 
BRANCH   7  13
ATOM     13  N   UNL     1       7.366   0.653  -1.692  0.00  0.00    -0.358 N 
ATOM     14  H   UNL     1       7.112   0.110  -2.455  0.00  0.00    +0.142 HD
ATOM     15  H   UNL     1       8.248   1.053  -1.653  0.00  0.00    +0.142 HD
ENDBRANCH   7  13
ENDBRANCH   2   5
BRANCH   1  16
ATOM     16  C   UNL     1       0.742  -0.511   1.242  0.00  0.00    +0.057 C 
BRANCH  16  18
ATOM     17  C   UNL     1      -0.019   1.526   0.010  0.00  0.00    +0.006 C 
ATOM     18  C   UNL     1       0.002  -0.004   0.002  0.00  0.00    +0.024 C 
ENDBRANCH  16  18
BRANCH  16  19
ATOM     19  C   UNL     1      -0.042  -0.124   2.497  0.00  0.00    +0.024 C 
ATOM     20  C   UNL     1      -1.435  -0.752   2.443  0.00  0.00    +0.006 C 
ENDBRANCH  16  19
BRANCH  16  21
ATOM     21  C   UNL     1       0.872  -2.034   1.171  0.00  0.00    +0.181 C 
BRANCH  21  22
ATOM     22  O   UNL     1       1.563  -2.507   2.329  0.00  0.00    -0.393 OA
ATOM     23  H   UNL     1       1.682  -3.466   2.351  0.00  0.00    +0.209 HD
ENDBRANCH  21  22
ENDBRANCH  16  21
ENDBRANCH   1  16
TORSDOF 7
