REMARK  Name = ZINC32594309
REMARK  15 active torsions:
REMARK  status: ('A' for Active; 'I' for Inactive)
REMARK    1  A    between atoms: C_1  and  C_2
REMARK    2  A    between atoms: C_5  and  O_8
REMARK    3  A    between atoms: O_8  and  C_9
REMARK    4  A    between atoms: C_9  and  C_10
REMARK    5  A    between atoms: N_12  and  C_20
REMARK    6  A    between atoms: N_15  and  C_16
REMARK    7  A    between atoms: C_16  and  C_17
REMARK    8  A    between atoms: C_17  and  C_18
REMARK    9  A    between atoms: C_17  and  C_19
REMARK   10  A    between atoms: C_22  and  N_35
REMARK   11  A    between atoms: C_24  and  O_34
REMARK   12  A    between atoms: C_26  and  O_33
REMARK   13  A    between atoms: C_28  and  C_31
REMARK   14  A    between atoms: C_31  and  O_32
REMARK   15  A    between atoms: C_36  and  C_38
REMARK                            x       y       z     vdW  Elec       q    Type
REMARK                         _______ _______ _______ _____ _____    ______ ____
ROOT
ATOM      1  C   UNL     1      -0.737   5.208   4.760  0.00  0.00    +0.170 A 
ATOM      2  N   UNL     1       0.052   4.694   3.873  0.00  0.00    -0.150 NA
ATOM      3  N   UNL     1      -0.296   5.221   2.621  0.00  0.00    -0.209 N 
ATOM      4  C   UNL     1      -1.333   6.063   2.814  0.00  0.00    +0.181 A 
ATOM      5  S   UNL     1      -2.143   6.967   1.607  0.00  0.00    -0.011 S 
ATOM      6  N   UNL     1      -1.612   6.061   4.133  0.00  0.00    -0.304 N 
ENDROOT
BRANCH   3   7
ATOM      7  C   UNL     1       0.344   4.911   1.340  0.00  0.00    +0.262 C 
ATOM      8  C   UNL     1       1.695   5.627   1.258  0.00  0.00    +0.155 C 
ATOM      9  C   UNL     1       2.384   5.251  -0.057  0.00  0.00    +0.170 C 
ATOM     10  C   UNL     1       2.528   3.727  -0.128  0.00  0.00    +0.176 C 
ATOM     11  C   UNL     1       1.145   3.085   0.008  0.00  0.00    +0.177 C 
ATOM     12  O   UNL     1       0.547   3.501   1.237  0.00  0.00    -0.345 OA
BRANCH   8  13
ATOM     13  N   UNL     1       1.485   7.076   1.304  0.00  0.00    -0.306 N 
ATOM     14  C   UNL     1       2.471   7.886   1.739  0.00  0.00    +0.210 C 
ATOM     15  O   UNL     1       3.531   7.416   2.093  0.00  0.00    -0.276 OA
ATOM     16  C   UNL     1       2.255   9.377   1.786  0.00  0.00    +0.109 C 
ATOM     17  H   UNL     1       0.524   7.503   0.983  0.00  0.00    +0.149 HD
ENDBRANCH   8  13
BRANCH  10  18
ATOM     18  O   UNL     1       3.104   3.360  -1.383  0.00  0.00    -0.387 OA
ATOM     19  H   UNL     1       3.284   2.300  -1.616  0.00  0.00    +0.210 HD
ENDBRANCH  10  18
BRANCH   9  20
ATOM     20  O   UNL     1       3.678   5.856  -0.109  0.00  0.00    -0.387 OA
ATOM     21  H   UNL     1       4.324   5.697  -0.985  0.00  0.00    +0.210 HD
ENDBRANCH   9  20
BRANCH  11  22
ATOM     22  C   UNL     1       1.286   1.562  -0.002  0.00  0.00    +0.190 C 
BRANCH  22  23
ATOM     23  O   UNL     1      -0.011   0.963   0.007  0.00  0.00    -0.392 OA
ATOM     24  H   UNL     1      -0.111  -0.133   0.002  0.00  0.00    +0.210 HD
ENDBRANCH  22  23
ENDBRANCH  11  22
ENDBRANCH   3   7
BRANCH   1  25
ATOM     25  C   UNL     1      -0.706   4.914   6.237  0.00  0.00    +0.305 C 
BRANCH  25  26
ATOM     26  O   UNL     1      -1.557   3.802   6.520  0.00  0.00    -0.484 OA
BRANCH  26  31
ATOM     27  C   UNL     1      -1.913   2.154  11.894  0.00  0.00    +0.044 C 
ATOM     28  C   UNL     1      -1.818   2.595  10.456  0.00  0.00    -0.050 A 
ATOM     29  C   UNL     1      -2.537   1.929   9.481  0.00  0.00    +0.007 A 
ATOM     30  C   UNL     1      -2.451   2.331   8.162  0.00  0.00    +0.046 A 
ATOM     31  C   UNL     1      -1.643   3.405   7.817  0.00  0.00    +0.121 A 
ATOM     32  C   UNL     1      -0.918   4.068   8.796  0.00  0.00    +0.046 A 
ATOM     33  C   UNL     1      -1.012   3.665  10.114  0.00  0.00    +0.007 A 
ENDBRANCH  26  31
ENDBRANCH  25  26
ENDBRANCH   1  25
BRANCH   6  34
ATOM     34  C   UNL     1      -2.669   6.838   4.787  0.00  0.00    +0.128 C 
BRANCH  34  35
ATOM     35  C   UNL     1      -3.960   6.017   4.817  0.00  0.00    +0.003 C 
ATOM     36  C   UNL     1      -5.028   6.775   5.608  0.00  0.00    +0.009 C 
ATOM     37  C   UNL     1      -4.452   5.787   3.387  0.00  0.00    +0.009 C 
ENDBRANCH  34  35
ENDBRANCH   6  34
TORSDOF 11
