REMARK  Name = ZINC40702012
REMARK  6 active torsions:
REMARK  status: ('A' for Active; 'I' for Inactive)
REMARK    1  A    between atoms: C_1  and  C_2
REMARK    2  A    between atoms: C_2  and  N_3
REMARK    3  A    between atoms: N_3  and  C_4
REMARK    4  A    between atoms: C_15  and  N_28
REMARK    5  A    between atoms: C_16  and  N_20
REMARK    6  A    between atoms: N_20  and  C_21
REMARK                            x       y       z     vdW  Elec       q    Type
REMARK                         _______ _______ _______ _____ _____    ______ ____
ROOT
ATOM      1  N   UNL     1      -2.545  -1.354  -0.638  0.00  0.00    -0.283 N 
ATOM      2  C   UNL     1      -2.947  -1.540   0.680  0.00  0.00    +0.151 A 
ATOM      3  C   UNL     1      -2.354  -2.528   1.470  0.00  0.00    +0.104 A 
ATOM      4  C   UNL     1      -2.795  -2.671   2.786  0.00  0.00    +0.126 A 
ATOM      5  N   UNL     1      -3.756  -1.867   3.236  0.00  0.00    -0.333 N 
ATOM      6  C   UNL     1      -4.289  -0.947   2.457  0.00  0.00    +0.200 A 
ATOM      7  N   UNL     1      -3.898  -0.775   1.211  0.00  0.00    -0.220 NA
ATOM      8  H   UNL     1      -4.069  -1.960   4.149  0.00  0.00    +0.168 HD
ENDROOT
BRANCH   1   9
ATOM      9  C   UNL     1      -3.250  -1.963  -1.674  0.00  0.00    +0.043 A 
ATOM     10  C   UNL     1      -2.899  -3.225  -2.107  0.00  0.00    +0.024 A 
ATOM     11  C   UNL     1      -3.597  -3.842  -3.141  0.00  0.00    +0.002 A 
ATOM     12  C   UNL     1      -4.642  -3.220  -3.753  0.00  0.00    +0.008 A 
ATOM     13  C   UNL     1      -5.032  -1.934  -3.342  0.00  0.00    -0.016 A 
ATOM     14  C   UNL     1      -4.333  -1.297  -2.287  0.00  0.00    +0.003 A 
ATOM     15  C   UNL     1      -4.727  -0.015  -1.874  0.00  0.00    +0.010 A 
ATOM     16  C   UNL     1      -5.777   0.598  -2.487  0.00  0.00    +0.001 A 
ATOM     17  C   UNL     1      -6.468  -0.029  -3.522  0.00  0.00    +0.001 A 
ATOM     18  C   UNL     1      -6.107  -1.268  -3.956  0.00  0.00    +0.008 A 
ENDBRANCH   1   9
BRANCH   3  19
ATOM     19  N   UNL     1      -1.344  -3.354   0.953  0.00  0.00    -0.353 N 
ATOM     20  H   UNL     1      -0.986  -3.186   0.067  0.00  0.00    +0.143 HD
ATOM     21  H   UNL     1      -1.004  -4.092   1.482  0.00  0.00    +0.143 HD
ENDBRANCH   3  19
BRANCH   1  23
ATOM     22  C   UNL     1      -1.837   0.919  -1.200  0.00  0.00    +0.025 C 
ATOM     23  C   UNL     1      -1.380  -0.517  -0.937  0.00  0.00    +0.109 C 
ENDBRANCH   1  23
BRANCH   4  24
ATOM     24  N   UNL     1      -2.240  -3.639   3.615  0.00  0.00    -0.299 N 
ATOM     25  H   UNL     1      -1.477  -4.157   3.313  0.00  0.00    +0.154 HD
BRANCH  24  26
ATOM     26  C   UNL     1      -2.780  -3.867   4.884  0.00  0.00    +0.032 A 
ATOM     27  C   UNL     1      -4.157  -3.863   5.065  0.00  0.00    +0.024 A 
ATOM     28  C   UNL     1      -4.688  -4.088   6.320  0.00  0.00    +0.017 A 
ATOM     29  C   UNL     1      -3.849  -4.316   7.397  0.00  0.00    +0.018 A 
ATOM     30  C   UNL     1      -2.477  -4.319   7.220  0.00  0.00    +0.017 A 
ATOM     31  C   UNL     1      -1.941  -4.101   5.966  0.00  0.00    +0.024 A 
ATOM     32 BR   UNL     1      -4.580  -4.622   9.114  0.00  0.00    -0.050 Br
ENDBRANCH  24  26
ENDBRANCH   4  24
TORSDOF 5
