REMARK  Name = ZINC12531580
REMARK  13 active torsions:
REMARK  status: ('A' for Active; 'I' for Inactive)
REMARK    1  A    between atoms: C_1  and  C_2
REMARK    2  A    between atoms: C_2  and  O_37
REMARK    3  A    between atoms: C_5  and  C_23
REMARK    4  A    between atoms: C_9  and  C_21
REMARK    5  A    between atoms: C_9  and  C_22
REMARK    6  A    between atoms: C_11  and  N_13
REMARK    7  A    between atoms: C_14  and  C_16
REMARK    8  A    between atoms: C_23  and  C_24
REMARK    9  A    between atoms: C_24  and  C_25
REMARK   10  A    between atoms: N_27  and  C_28
REMARK   11  A    between atoms: C_28  and  C_29
REMARK   12  A    between atoms: C_32  and  O_35
REMARK   13  A    between atoms: O_35  and  C_36
REMARK                            x       y       z     vdW  Elec       q    Type
REMARK                         _______ _______ _______ _____ _____    ______ ____
ROOT
ATOM      1  C   UNL     1       0.247   1.705  -0.138  0.00  0.00    +0.041 C 
ATOM      2  C   UNL     1       0.257   0.178  -0.227  0.00  0.00    +0.064 C 
ATOM      3  C   UNL     1      -1.182  -0.348  -0.198  0.00  0.00    +0.035 C 
ATOM      4  C   UNL     1      -1.143  -1.867  -0.365  0.00  0.00    +0.012 C 
ATOM      5  C   UNL     1      -0.338  -2.521   0.734  0.00  0.00    -0.007 C 
ATOM      6  C   UNL     1       1.075  -1.927   0.882  0.00  0.00    +0.005 C 
ATOM      7  C   UNL     1       1.012  -0.400   0.968  0.00  0.00    +0.039 C 
ATOM      8  C   UNL     1       1.482  -2.435   2.297  0.00  0.00    -0.030 C 
ATOM      9  C   UNL     1       0.184  -2.308   3.124  0.00  0.00    +0.029 C 
ATOM     10  C   UNL     1      -0.983  -2.357   2.116  0.00  0.00    +0.080 C 
ATOM     11  C   UNL     1       2.584  -1.553   2.888  0.00  0.00    +0.011 C 
ATOM     12  C   UNL     1       1.937  -3.895   2.233  0.00  0.00    +0.011 C 
ENDROOT
BRANCH  10  13
ATOM     13  N   UNL     1      -1.852  -3.499   2.406  0.00  0.00    -0.305 N 
ATOM     14  C   UNL     1      -2.954  -3.332   3.165  0.00  0.00    +0.280 C 
ATOM     15  O   UNL     1      -3.226  -2.232   3.609  0.00  0.00    -0.267 OA
ATOM     16  H   UNL     1      -1.636  -4.376   2.053  0.00  0.00    +0.149 HD
BRANCH  14  17
ATOM     17  C   UNL     1      -3.825  -4.476   3.455  0.00  0.00    +0.189 A 
ATOM     18  C   UNL     1      -4.968  -4.445   4.201  0.00  0.00    +0.054 A 
ATOM     19  C   UNL     1      -5.475  -5.754   4.217  0.00  0.00    +0.042 A 
ATOM     20  C   UNL     1      -4.630  -6.516   3.489  0.00  0.00    +0.196 A 
ATOM     21  O   UNL     1      -3.640  -5.742   3.027  0.00  0.00    -0.458 OA
ENDBRANCH  14  17
ENDBRANCH  10  13
BRANCH   2  22
ATOM     22  O   UNL     1       0.895  -0.228  -1.439  0.00  0.00    -0.389 OA
ATOM     23  H   UNL     1       0.464   0.100  -2.240  0.00  0.00    +0.210 HD
ENDBRANCH   2  22
BRANCH   5  24
ATOM     24  C   UNL     1      -0.196  -4.013   0.427  0.00  0.00    +0.018 C 
BRANCH  24  25
ATOM     25  C   UNL     1       0.653  -4.196  -0.834  0.00  0.00    +0.096 C 
BRANCH  25  26
ATOM     26  C   UNL     1       0.908  -5.664  -1.058  0.00  0.00    +0.213 C 
ATOM     27  O   UNL     1       0.457  -6.483  -0.287  0.00  0.00    -0.276 OA
ATOM     28  N   UNL     1       1.639  -6.066  -2.117  0.00  0.00    -0.311 N 
ATOM     29  H   UNL     1       2.000  -5.411  -2.734  0.00  0.00    +0.149 HD
BRANCH  28  30
ATOM     30  C   UNL     1       1.888  -7.493  -2.336  0.00  0.00    +0.139 C 
BRANCH  30  31
ATOM     31  C   UNL     1       2.723  -7.673  -3.577  0.00  0.00    -0.030 A 
ATOM     32  C   UNL     1       2.109  -7.822  -4.806  0.00  0.00    +0.009 A 
ATOM     33  C   UNL     1       2.873  -7.988  -5.946  0.00  0.00    +0.046 A 
ATOM     34  C   UNL     1       4.257  -8.004  -5.855  0.00  0.00    +0.120 A 
ATOM     35  C   UNL     1       4.871  -7.854  -4.620  0.00  0.00    +0.046 A 
ATOM     36  C   UNL     1       4.103  -7.683  -3.485  0.00  0.00    +0.009 A 
BRANCH  34  37
ATOM     37  O   UNL     1       5.010  -8.168  -6.974  0.00  0.00    -0.495 OA
ATOM     38  C   UNL     1       6.429  -8.174  -6.806  0.00  0.00    +0.277 C 
ENDBRANCH  34  37
ENDBRANCH  30  31
ENDBRANCH  28  30
ENDBRANCH  25  26
ENDBRANCH  24  25
ENDBRANCH   5  24
TORSDOF 9
