REMARK  Name = ZINC21738775
REMARK  12 active torsions:
REMARK  status: ('A' for Active; 'I' for Inactive)
REMARK    1  A    between atoms: C_3  and  C_6
REMARK    2  A    between atoms: C_6  and  C_8
REMARK    3  A    between atoms: C_8  and  C_9
REMARK    4  A    between atoms: C_9  and  C_10
REMARK    5  A    between atoms: N_12  and  C_13
REMARK    6  A    between atoms: C_13  and  C_14
REMARK    7  A    between atoms: C_14  and  C_15
REMARK    8  A    between atoms: C_15  and  O_17
REMARK    9  A    between atoms: O_17  and  C_18
REMARK   10  A    between atoms: C_18  and  C_19
REMARK   11  A    between atoms: N_21  and  C_22
REMARK   12  A    between atoms: C_23  and  C_31
REMARK                            x       y       z     vdW  Elec       q    Type
REMARK                         _______ _______ _______ _____ _____    ______ ____
ROOT
ATOM      1  C   UNL     1       1.280   1.980   0.001  0.00  0.00    +0.328 C 
ENDROOT
BRANCH   1   2
ATOM      2  C   UNL     1      -0.014   1.209   0.009  0.00  0.00    +0.255 C 
ATOM      3  O   UNL     1       0.002  -0.004   0.002  0.00  0.00    -0.272 OA
ATOM      4  N   UNL     1      -1.191   1.867   0.018  0.00  0.00    -0.277 N 
ATOM      5  H   UNL     1      -1.206   2.966   0.024  0.00  0.00    +0.155 HD
BRANCH   4   6
ATOM      6  C   UNL     1      -2.382   1.157   0.020  0.00  0.00    +0.084 A 
ATOM      7  C   UNL     1      -3.679   1.650   0.034  0.00  0.00    +0.068 A 
ATOM      8  C   UNL     1      -4.764   0.684   0.029  0.00  0.00    -0.023 A 
ATOM      9  C   UNL     1      -4.382  -0.611   0.021  0.00  0.00    -0.004 A 
ATOM     10  S   UNL     1      -2.612  -0.560   0.012  0.00  0.00    -0.077 S 
ATOM     11  C   UNL     1      -5.272  -1.816   0.019  0.00  0.00    +0.043 C 
ATOM     12  C   UNL     1      -6.689  -1.371   0.407  0.00  0.00    +0.005 C 
ATOM     13  C   UNL     1      -7.063  -0.138  -0.422  0.00  0.00    +0.005 C 
ATOM     14  C   UNL     1      -6.239   1.066   0.037  0.00  0.00    +0.037 C 
BRANCH   7  15
ATOM     15  C   UNL     1      -3.944   3.092   0.051  0.00  0.00    +0.244 C 
ATOM     16  O   UNL     1      -4.063   3.701  -0.997  0.00  0.00    -0.270 OA
ATOM     17  N   UNL     1      -4.057   3.743   1.225  0.00  0.00    -0.325 N 
ATOM     18  H   UNL     1      -4.256   4.825   1.238  0.00  0.00    +0.145 HD
ATOM     19  H   UNL     1      -3.950   3.192   2.172  0.00  0.00    +0.145 HD
ENDBRANCH   7  15
ENDBRANCH   4   6
ENDBRANCH   1   2
BRANCH   1  20
ATOM     20  O   UNL     1       2.397   1.051  -0.015  0.00  0.00    -0.455 OA
BRANCH  20  21
ATOM     21  C   UNL     1       3.630   1.581  -0.024  0.00  0.00    +0.309 C 
ATOM     22  O   UNL     1       3.772   2.781  -0.019  0.00  0.00    -0.251 OA
BRANCH  21  23
ATOM     23  C   UNL     1       4.837   0.680  -0.041  0.00  0.00    +0.139 C 
BRANCH  23  24
ATOM     24  C   UNL     1       6.109   1.530  -0.048  0.00  0.00    +0.115 C 
BRANCH  24  27
ATOM     25  C   UNL     1       8.521   1.186  -0.073  0.00  0.00    +0.213 C 
ATOM     26  O   UNL     1       8.664   2.390  -0.068  0.00  0.00    -0.276 OA
ATOM     27  N   UNL     1       7.283   0.654  -0.064  0.00  0.00    -0.315 N 
ATOM     28  H   UNL     1       7.153  -0.439  -0.069  0.00  0.00    +0.149 HD
BRANCH  25  29
ATOM     29  C   UNL     1       9.728   0.284  -0.089  0.00  0.00    +0.103 C 
BRANCH  29  30
ATOM     30  C   UNL     1      11.000   1.135  -0.097  0.00  0.00    +0.089 C 
BRANCH  30  31
ATOM     31  C   UNL     1      12.207   0.233  -0.113  0.00  0.00    +0.170 C 
ATOM     32  O   UNL     1      12.065  -0.973  -0.118  0.00  0.00    -0.291 OA
BRANCH  31  35
ATOM     33  C   UNL     1      15.855   0.937  -0.145  0.00  0.00    +0.008 A 
ATOM     34  C   UNL     1      14.737   0.145  -0.132  0.00  0.00    +0.019 A 
ATOM     35  C   UNL     1      13.505   0.791  -0.123  0.00  0.00    +0.055 A 
ATOM     36  S   UNL     1      13.992   2.507  -0.117  0.00  0.00    -0.094 S 
ATOM     37  C   UNL     1      15.712   2.290  -0.136  0.00  0.00    +0.046 A 
ENDBRANCH  31  35
ENDBRANCH  30  31
ENDBRANCH  29  30
ENDBRANCH  25  29
ENDBRANCH  24  27
ENDBRANCH  23  24
ENDBRANCH  21  23
ENDBRANCH  20  21
ENDBRANCH   1  20
TORSDOF 12
