REMARK  Name = ZINC20206774
REMARK  8 active torsions:
REMARK  status: ('A' for Active; 'I' for Inactive)
REMARK    1  A    between atoms: C_1  and  C_2
REMARK    2  A    between atoms: C_6  and  C_8
REMARK    3  A    between atoms: C_8  and  C_9
REMARK    4  A    between atoms: C_9  and  N_10
REMARK    5  A    between atoms: N_10  and  C_11
REMARK    6  A    between atoms: C_11  and  C_12
REMARK    7  A    between atoms: N_14  and  C_24
REMARK    8  A    between atoms: C_16  and  C_17
REMARK                            x       y       z     vdW  Elec       q    Type
REMARK                         _______ _______ _______ _____ _____    ______ ____
ROOT
ATOM      1  C   UNL     1       2.547   5.331  -0.100  0.00  0.00    +0.012 A 
ATOM      2  C   UNL     1       3.861   5.606  -0.253  0.00  0.00    +0.120 A 
ATOM      3  N   UNL     1       4.552   4.449  -0.076  0.00  0.00    -0.239 N 
ATOM      4  N   UNL     1       3.629   3.432   0.200  0.00  0.00    -0.166 NA
ATOM      5  C   UNL     1       2.423   3.958   0.190  0.00  0.00    +0.099 A 
ENDROOT
BRANCH   5   6
ATOM      6  C   UNL     1       1.153   3.231   0.435  0.00  0.00    +0.021 A 
ATOM      7  C   UNL     1       0.074   3.395  -0.433  0.00  0.00    +0.011 A 
ATOM      8  C   UNL     1      -1.105   2.717  -0.200  0.00  0.00    +0.001 A 
ATOM      9  C   UNL     1      -1.220   1.879   0.895  0.00  0.00    +0.001 A 
ATOM     10  C   UNL     1      -0.152   1.707   1.757  0.00  0.00    +0.020 A 
ATOM     11  C   UNL     1       1.033   2.381   1.534  0.00  0.00    +0.050 A 
ATOM     12 CL   UNL     1       2.371   2.170   2.620  0.00  0.00    -0.083 Cl
ENDBRANCH   5   6
BRANCH   3  13
ATOM     13  C   UNL     1       5.943   4.300  -0.156  0.00  0.00    +0.066 A 
ATOM     14  C   UNL     1       6.744   5.397  -0.445  0.00  0.00    +0.030 A 
ATOM     15  C   UNL     1       8.115   5.249  -0.518  0.00  0.00    +0.040 A 
ATOM     16  C   UNL     1       8.691   4.006  -0.315  0.00  0.00    +0.124 A 
ATOM     17  C   UNL     1       7.893   2.910  -0.032  0.00  0.00    +0.040 A 
ATOM     18  C   UNL     1       6.522   3.055   0.047  0.00  0.00    +0.030 A 
ATOM     19  F   UNL     1      10.032   3.862  -0.393  0.00  0.00    -0.205 F 
ENDBRANCH   3  13
BRANCH   1  20
ATOM     20  C   UNL     1       1.415   6.319  -0.216  0.00  0.00    +0.120 C 
BRANCH  20  21
ATOM     21  N   UNL     1       0.917   6.653   1.125  0.00  0.00    -0.311 NA
ATOM     22  H   UNL     1       1.715   7.171   1.678  0.00  0.00    +0.122 HD
BRANCH  21  23
ATOM     23  C   UNL     1      -0.266   7.520   1.046  0.00  0.00    +0.089 C 
BRANCH  23  24
ATOM     24  C   UNL     1      -0.830   7.742   2.451  0.00  0.00    +0.087 C 
BRANCH  24  30
ATOM     25  C   UNL     1      -3.792  11.651   1.426  0.00  0.00    +0.065 C 
ATOM     26  C   UNL     1      -3.326  10.311   1.932  0.00  0.00    +0.030 A 
ATOM     27  C   UNL     1      -4.082   9.403   2.579  0.00  0.00    +0.104 A 
ATOM     28  N   UNL     1      -3.270   8.335   2.852  0.00  0.00    -0.350 N 
ATOM     29  H   UNL     1      -3.675   7.456   3.376  0.00  0.00    +0.166 HD
ATOM     30  C   UNL     1      -2.044   8.631   2.370  0.00  0.00    +0.086 A 
ATOM     31  N   UNL     1      -2.086   9.813   1.819  0.00  0.00    -0.347 N 
ATOM     32  H   UNL     1      -1.302  10.399   1.317  0.00  0.00    +0.167 HD
ENDBRANCH  24  30
ENDBRANCH  23  24
ENDBRANCH  21  23
ENDBRANCH  20  21
ENDBRANCH   1  20
TORSDOF 7
