REMARK  Name = ZINC63375490
REMARK  10 active torsions:
REMARK  status: ('A' for Active; 'I' for Inactive)
REMARK    1  A    between atoms: CB_1  and  CA_2
REMARK    2  A    between atoms: CA_2  and  C_4
REMARK    3  A    between atoms: CA_2  and  N_7
REMARK    4  A    between atoms: C_8  and  CA_10
REMARK    5  A    between atoms: CA_10  and  CB_12
REMARK    6  A    between atoms: CA_10  and  N_16
REMARK    7  A    between atoms: CB_12  and  CG_13
REMARK    8  A    between atoms: CG_13  and  CD1_14
REMARK    9  A    between atoms: CG_13  and  CD2_15
REMARK   10  A    between atoms: C_17  and  C_19
REMARK                            x       y       z     vdW  Elec       q    Type
REMARK                         _______ _______ _______ _____ _____    ______ ____
ROOT
ATOM      1  C   UNK A   0      -1.097  -1.019  -7.028  0.00  0.00    +0.167 C 
ATOM      2  C   UNK A   0      -2.477  -1.594  -6.656  0.00  0.00    +0.065 C 
ATOM      3  C   UNK A   0      -2.426  -3.079  -6.918  0.00  0.00    -0.034 C 
ATOM      4  C   UNK A   0      -2.720  -4.110  -6.133  0.00  0.00    -0.001 A 
ATOM      5  C   UNK A   0      -3.284  -4.177  -4.776  0.00  0.00    +0.010 A 
ATOM      6  C   UNK A   0      -3.441  -5.421  -4.252  0.00  0.00    +0.001 A 
ATOM      7  C   UNK A   0      -3.098  -6.592  -4.935  0.00  0.00    +0.002 A 
ATOM      8  C   UNK A   0      -2.581  -6.625  -6.189  0.00  0.00    +0.026 A 
ATOM      9  C   UNK A   0      -2.377  -5.378  -6.847  0.00  0.00    +0.043 A 
ATOM     10  N   UNK A   0      -1.923  -5.120  -8.037  0.00  0.00    -0.375 N 
ATOM     11  C   UNK A   0      -1.970  -3.671  -8.247  0.00  0.00    +0.131 C 
ATOM     12  C   UNK A   0      -0.577  -3.095  -8.524  0.00  0.00    +0.134 C 
ATOM     13  N   UNK A   0      -0.656  -1.632  -8.288  0.00  0.00    -0.276 N 
ATOM     14  C   UNK A   0      -0.278  -0.988  -9.407  0.00  0.00    +0.248 C 
ATOM     15  O   UNK A   0      -0.163   0.218  -9.510  0.00  0.00    -0.270 OA
ATOM     16  C   UNK A   0      -0.024  -1.949 -10.482  0.00  0.00    +0.042 A 
ATOM     17  C   UNK A   0      -0.204  -3.269  -9.960  0.00  0.00    -0.013 A 
ATOM     18  C   UNK A   0      -0.037  -4.396 -10.734  0.00  0.00    +0.006 A 
ATOM     19  C   UNK A   0       0.325  -4.202 -12.064  0.00  0.00    +0.000 A 
ATOM     20  C   UNK A   0       0.511  -2.939 -12.589  0.00  0.00    +0.001 A 
ATOM     21  C   UNK A   0       0.340  -1.751 -11.816  0.00  0.00    +0.013 A 
ATOM     22  H   UNK A   0      -1.605  -5.776  -8.678  0.00  0.00    +0.160 HD
ENDROOT
BRANCH   1  24
ATOM     23  N   LEU A   1      -0.312  -0.878  -4.686  0.00  0.00    -0.302 N 
ATOM     24  C   UNK A   0      -0.106  -1.335  -5.938  0.00  0.00    +0.235 C 
ATOM     25  O   UNK A   0       0.877  -2.000  -6.186  0.00  0.00    -0.274 OA
ATOM     26  H   LEU A   1      -1.133  -0.408  -4.471  0.00  0.00    +0.150 HD
BRANCH  23  27
ATOM     27  CA  LEU A   1       0.703  -1.092  -3.652  0.00  0.00    +0.159 C 
BRANCH  27  29
ATOM     28  N   LEU A   1       0.736  -1.399  -1.197  0.00  0.00    -0.301 N 
ATOM     29  C   LEU A   1       0.062  -0.992  -2.291  0.00  0.00    +0.234 C 
ATOM     30  O   LEU A   1      -1.061  -0.546  -2.181  0.00  0.00    -0.274 OA
ATOM     31  H   LEU A   1       1.614  -1.799  -1.290  0.00  0.00    +0.150 HD
BRANCH  28  33
ATOM     32  CB  LEU A   1       0.436   0.171   0.653  0.00  0.00    +0.040 C 
ATOM     33  CA  LEU A   1       0.141  -1.237   0.132  0.00  0.00    +0.183 C 
BRANCH  33  34
ATOM     34  C   LEU A   1       0.731  -2.255   1.073  0.00  0.00    +0.376 C 
ATOM     35  O   LEU A   1       0.245  -2.414   2.180  0.00  0.00    -0.244 OA
ATOM     36  OXT LEU A   1       1.693  -2.919   0.728  0.00  0.00    -0.244 OA
ENDBRANCH  33  34
ENDBRANCH  28  33
ENDBRANCH  27  29
BRANCH  27  37
ATOM     37  CB  LEU A   1       1.794  -0.029  -3.780  0.00  0.00    +0.034 C 
BRANCH  37  38
ATOM     38  CG  LEU A   1       2.872  -0.274  -2.722  0.00  0.00    -0.015 C 
ATOM     39  CD1 LEU A   1       3.591  -1.591  -3.022  0.00  0.00    +0.007 C 
ATOM     40  CD2 LEU A   1       3.882   0.876  -2.747  0.00  0.00    +0.007 C 
ENDBRANCH  37  38
ENDBRANCH  27  37
ENDBRANCH  23  27
ENDBRANCH   1  24
TORSDOF 7
