REMARK  Name = ZINC17578688
REMARK  3 active torsions:
REMARK  status: ('A' for Active; 'I' for Inactive)
REMARK    1  A    between atoms: C_1  and  C_2
REMARK    2  A    between atoms: C_7  and  N_8
REMARK    3  A    between atoms: C_9  and  C_11
REMARK                            x       y       z     vdW  Elec       q    Type
REMARK                         _______ _______ _______ _____ _____    ______ ____
ROOT
ATOM      1  C   UNL     1      -0.169   0.054   4.882  0.00  0.00    +0.169 C 
ATOM      2  C   UNL     1       0.965   1.067   5.104  0.00  0.00    +0.056 C 
ATOM      3  C   UNL     1       1.986   0.191   5.873  0.00  0.00    +0.100 C 
ATOM      4  C   UNL     1       1.137  -0.857   6.555  0.00  0.00    +0.221 C 
ATOM      5  O   UNL     1       1.537  -1.624   7.407  0.00  0.00    -0.275 OA
ATOM      6  N   UNL     1      -0.132  -0.821   6.083  0.00  0.00    -0.246 N 
ATOM      7  C   UNL     1      -1.409  -1.307   6.435  0.00  0.00    +0.052 A 
ATOM      8  C   UNL     1      -1.700  -2.533   7.046  0.00  0.00    +0.025 A 
ATOM      9  C   UNL     1      -2.988  -2.844   7.424  0.00  0.00    +0.002 A 
ATOM     10  C   UNL     1      -4.029  -1.959   7.212  0.00  0.00    +0.001 A 
ATOM     11  C   UNL     1      -3.775  -0.758   6.569  0.00  0.00    +0.016 A 
ATOM     12  C   UNL     1      -2.498  -0.468   6.156  0.00  0.00    +0.032 A 
ATOM     13  S   UNL     1      -1.813   0.832   5.146  0.00  0.00    -0.088 S 
ENDROOT
BRANCH   1  15
ATOM     14  N   UNL     1       0.025  -0.014   2.417  0.00  0.00    -0.283 N 
ATOM     15  C   UNL     1      -0.057  -0.693   3.578  0.00  0.00    +0.252 C 
ATOM     16  O   UNL     1      -0.040  -1.906   3.574  0.00  0.00    -0.272 OA
ATOM     17  H   UNL     1       0.077   0.955   2.425  0.00  0.00    +0.155 HD
BRANCH  14  24
ATOM     18  C   UNL     1      -1.265   1.183   0.181  0.00  0.00    +0.046 C 
ATOM     19  C   UNL     1      -0.584  -0.158   0.084  0.00  0.00    -0.028 A 
ATOM     20  C   UNL     1      -0.569  -0.841  -1.116  0.00  0.00    +0.025 A 
ATOM     21  C   UNL     1       0.056  -2.072  -1.206  0.00  0.00    +0.041 A 
ATOM     22  C   UNL     1       0.668  -2.623  -0.093  0.00  0.00    +0.022 A 
ATOM     23  C   UNL     1       0.656  -1.944   1.109  0.00  0.00    +0.025 A 
ATOM     24  C   UNL     1       0.034  -0.706   1.201  0.00  0.00    +0.036 A 
ATOM     25 CL   UNL     1       0.072  -2.928  -2.716  0.00  0.00    -0.084 Cl
ENDBRANCH  14  24
ENDBRANCH   1  15
TORSDOF 2
