REMARK  Name = ZINC39696226
REMARK  9 active torsions:
REMARK  status: ('A' for Active; 'I' for Inactive)
REMARK    1  A    between atoms: C_1  and  C_2
REMARK    2  A    between atoms: C_2  and  C_3
REMARK    3  A    between atoms: C_6  and  C_9
REMARK    4  A    between atoms: C_9  and  C_11
REMARK    5  A    between atoms: C_9  and  N_12
REMARK    6  A    between atoms: C_13  and  C_15
REMARK    7  A    between atoms: C_26  and  C_28
REMARK    8  A    between atoms: C_31  and  O_34
REMARK    9  A    between atoms: O_34  and  C_35
REMARK                            x       y       z     vdW  Elec       q    Type
REMARK                         _______ _______ _______ _____ _____    ______ ____
ROOT
ATOM      1  C   UNL     1       1.822  -4.015   7.413  0.00  0.00    +0.100 C 
ATOM      2  C   UNL     1       0.733  -3.660   8.450  0.00  0.00    +0.121 C 
ATOM      3  N   UNL     1       0.767  -4.776   9.425  0.00  0.00    -0.296 N 
ATOM      4  C   UNL     1       2.208  -5.088   9.580  0.00  0.00    +0.115 C 
ATOM      5  C   UNL     1       2.788  -4.952   8.158  0.00  0.00    -0.004 C 
ATOM      6  C   UNL     1       4.182  -4.335   8.214  0.00  0.00    -0.010 C 
ATOM      7  C   UNL     1       5.138  -5.310   8.908  0.00  0.00    -0.082 C 
ATOM      8  N   UNL     1       5.171  -6.577   8.168  0.00  0.00    +0.379 N 
ATOM      9  C   UNL     1       3.846  -7.209   8.198  0.00  0.00    -0.082 C 
ATOM     10  C   UNL     1       2.835  -6.315   7.474  0.00  0.00    -0.010 C 
ATOM     11  C   UNL     1      -0.278  -5.374  10.032  0.00  0.00    +0.248 C 
ATOM     12  O   UNL     1      -1.414  -5.094   9.703  0.00  0.00    -0.270 OA
ATOM     13  H   UNL     1       5.435  -6.399   7.211  0.00  0.00    -0.086 HD
ATOM     14  H   UNL     1       5.846  -7.195   8.592  0.00  0.00    -0.086 HD
ENDROOT
BRANCH  11  15
ATOM     15  C   UNL     1      -0.042  -6.369  11.097  0.00  0.00    +0.055 A 
ATOM     16  C   UNL     1       1.188  -6.413  11.770  0.00  0.00    +0.020 A 
ATOM     17  C   UNL     1       1.361  -7.361  12.758  0.00  0.00    +0.068 A 
ATOM     18  C   UNL     1       0.319  -8.235  13.051  0.00  0.00    +0.220 A 
ATOM     19  N   UNL     1      -0.830  -8.169  12.396  0.00  0.00    -0.220 NA
ATOM     20  C   UNL     1      -1.040  -7.277  11.452  0.00  0.00    +0.127 A 
BRANCH  18  21
ATOM     21  O   UNL     1       0.483  -9.168  14.020  0.00  0.00    -0.438 OA
BRANCH  21  22
ATOM     22  C   UNL     1      -0.585  -9.943  14.347  0.00  0.00    +0.130 A 
ATOM     23  C   UNL     1      -0.934 -11.020  13.546  0.00  0.00    +0.046 A 
ATOM     24  C   UNL     1      -2.019 -11.805  13.881  0.00  0.00    +0.004 A 
ATOM     25  C   UNL     1      -2.758 -11.519  15.014  0.00  0.00    +0.000 A 
ATOM     26  C   UNL     1      -2.412 -10.446  15.814  0.00  0.00    +0.004 A 
ATOM     27  C   UNL     1      -1.324  -9.661  15.487  0.00  0.00    +0.046 A 
ENDBRANCH  21  22
ENDBRANCH  18  21
ENDBRANCH  11  15
BRANCH   1  29
ATOM     28  N   UNL     1       3.076  -2.714   5.724  0.00  0.00    -0.308 N 
ATOM     29  C   UNL     1       2.541  -2.771   6.960  0.00  0.00    +0.219 C 
ATOM     30  O   UNL     1       2.639  -1.821   7.708  0.00  0.00    -0.275 OA
ATOM     31  H   UNL     1       2.998  -3.474   5.127  0.00  0.00    +0.149 HD
BRANCH  28  32
ATOM     32  C   UNL     1       3.776  -1.504   5.284  0.00  0.00    +0.100 C 
ATOM     33  C   UNL     1       2.761  -0.501   4.732  0.00  0.00    +0.033 C 
BRANCH  32  37
ATOM     34  C   UNL     1       6.587  -2.517   2.232  0.00  0.00    -0.048 A 
ATOM     35  C   UNL     1       6.923  -1.590   3.200  0.00  0.00    +0.004 A 
ATOM     36  C   UNL     1       6.013  -1.262   4.188  0.00  0.00    +0.006 A 
ATOM     37  C   UNL     1       4.767  -1.861   4.207  0.00  0.00    -0.027 A 
ATOM     38  C   UNL     1       4.431  -2.788   3.238  0.00  0.00    +0.006 A 
ATOM     39  C   UNL     1       5.339  -3.112   2.248  0.00  0.00    +0.004 A 
BRANCH  34  41
ATOM     40  C   UNL     1       7.397  -1.934  -0.038  0.00  0.00    +0.009 C 
ATOM     41  C   UNL     1       7.579  -2.875   1.155  0.00  0.00    +0.032 C 
ENDBRANCH  34  41
ENDBRANCH  32  37
ENDBRANCH  28  32
ENDBRANCH   1  29
TORSDOF 7
