REMARK  Name = ZINC39940413
REMARK  13 active torsions:
REMARK  status: ('A' for Active; 'I' for Inactive)
REMARK    1  A    between atoms: C_1  and  C_2
REMARK    2  A    between atoms: C_3  and  C_35
REMARK    3  A    between atoms: C_7  and  N_8
REMARK    4  A    between atoms: C_9  and  C_34
REMARK    5  A    between atoms: C_12  and  C_16
REMARK    6  A    between atoms: C_13  and  C_15
REMARK    7  A    between atoms: C_17  and  C_18
REMARK    8  A    between atoms: C_17  and  C_20
REMARK    9  A    between atoms: N_22  and  C_23
REMARK   10  A    between atoms: C_23  and  C_24
REMARK   11  A    between atoms: C_24  and  C_25
REMARK   12  A    between atoms: C_35  and  O_37
REMARK   13  A    between atoms: O_37  and  C_38
REMARK                            x       y       z     vdW  Elec       q    Type
REMARK                         _______ _______ _______ _____ _____    ______ ____
ROOT
ATOM      1  C   UNL     1       0.718   2.797   4.542  0.00  0.00    +0.029 C 
ATOM      2  C   UNL     1       0.707   2.615   5.910  0.00  0.00    +0.114 C 
ENDROOT
BRANCH   1   6
ATOM      3  N   UNL     1      -0.430   0.296   1.977  0.00  0.00    -0.317 N 
ATOM      4  C   UNL     1      -1.653   0.618   2.724  0.00  0.00    +0.094 C 
ATOM      5  C   UNL     1      -1.281   1.623   3.783  0.00  0.00    +0.000 C 
ATOM      6  C   UNL     1       0.022   1.896   3.704  0.00  0.00    -0.028 C 
ATOM      7  C   UNL     1       0.641   1.093   2.590  0.00  0.00    +0.101 C 
ATOM      8  C   UNL     1       1.248   2.036   1.549  0.00  0.00    +0.033 C 
ATOM      9  C   UNL     1      -2.698   1.216   1.780  0.00  0.00    +0.032 C 
BRANCH   3  16
ATOM     10  C   UNL     1      -0.030  -2.457   2.557  0.00  0.00    +0.046 C 
ATOM     11  C   UNL     1      -0.113  -1.943   1.143  0.00  0.00    -0.015 A 
ATOM     12  C   UNL     1       0.001  -2.826   0.069  0.00  0.00    +0.064 A 
ATOM     13  C   UNL     1      -0.077  -2.342  -1.238  0.00  0.00    +0.015 A 
ATOM     14  C   UNL     1      -0.268  -0.994  -1.464  0.00  0.00    +0.003 A 
ATOM     15  C   UNL     1      -0.381  -0.119  -0.401  0.00  0.00    +0.023 A 
ATOM     16  C   UNL     1      -0.309  -0.591   0.905  0.00  0.00    +0.034 A 
BRANCH  12  17
ATOM     17  C   UNL     1       0.205  -4.269   0.314  0.00  0.00    +0.339 C 
ATOM     18  O   UNL     1       0.164  -4.704   1.447  0.00  0.00    -0.245 OA
BRANCH  17  19
ATOM     19  O   UNL     1       0.437  -5.101  -0.720  0.00  0.00    -0.464 OA
ATOM     20  C   UNL     1       0.625  -6.483  -0.410  0.00  0.00    +0.280 C 
ENDBRANCH  17  19
ENDBRANCH  12  17
ENDBRANCH   3  16
ENDBRANCH   1   6
BRANCH   2  21
ATOM     21  C   UNL     1       0.116   1.397   6.486  0.00  0.00    +0.254 C 
ATOM     22  O   UNL     1      -0.265   0.502   5.755  0.00  0.00    -0.269 OA
ATOM     23  N   UNL     1      -0.005   1.274   7.822  0.00  0.00    -0.310 N 
ATOM     24  H   UNL     1       0.298   1.988   8.405  0.00  0.00    +0.149 HD
BRANCH  23  25
ATOM     25  C   UNL     1      -0.594   0.061   8.396  0.00  0.00    +0.109 C 
BRANCH  25  26
ATOM     26  C   UNL     1      -0.613   0.176   9.921  0.00  0.00    +0.056 C 
BRANCH  26  27
ATOM     27  C   UNL     1      -1.219  -1.072  10.511  0.00  0.00    -0.021 A 
ATOM     28  C   UNL     1      -0.519  -2.324  10.808  0.00  0.00    +0.003 A 
ATOM     29  C   UNL     1       0.801  -2.754  10.667  0.00  0.00    +0.010 A 
ATOM     30  C   UNL     1       1.146  -4.020  11.050  0.00  0.00    +0.001 A 
ATOM     31  C   UNL     1       0.194  -4.882  11.577  0.00  0.00    +0.002 A 
ATOM     32  C   UNL     1      -1.115  -4.477  11.725  0.00  0.00    +0.026 A 
ATOM     33  C   UNL     1      -1.488  -3.193  11.342  0.00  0.00    +0.047 A 
ATOM     34  N   UNL     1      -2.682  -2.507  11.362  0.00  0.00    -0.360 N 
ATOM     35  C   UNL     1      -2.502  -1.244  10.869  0.00  0.00    +0.087 A 
ATOM     36  H   UNL     1      -3.525  -2.865  11.682  0.00  0.00    +0.165 HD
ENDBRANCH  26  27
ENDBRANCH  25  26
ENDBRANCH  23  25
ENDBRANCH   2  21
BRANCH   2  37
ATOM     37  C   UNL     1       1.272   3.612   6.769  0.00  0.00    +0.104 C 
ATOM     38  N   UNL     1       1.720   4.403   7.450  0.00  0.00    -0.191 NA
ENDBRANCH   2  37
TORSDOF 9
