REMARK  Name = ZINC39920364
REMARK  6 active torsions:
REMARK  status: ('A' for Active; 'I' for Inactive)
REMARK    1  A    between atoms: C_1  and  C_2
REMARK    2  A    between atoms: N_13  and  N_14
REMARK    3  A    between atoms: C_15  and  C_17
REMARK    4  A    between atoms: C_17  and  C_19
REMARK    5  A    between atoms: C_17  and  O_20
REMARK    6  A    between atoms: O_20  and  C_21
REMARK                            x       y       z     vdW  Elec       q    Type
REMARK                         _______ _______ _______ _____ _____    ______ ____
ROOT
ATOM      1  N   UNL     1       2.114  -0.531   0.879  0.00  0.00    -0.227 N 
ATOM      2  C   UNL     1       2.983   0.307   1.479  0.00  0.00    +0.270 C 
ATOM      3  O   UNL     1       2.596   1.371   1.914  0.00  0.00    -0.270 OA
ATOM      4  H   UNL     1       2.423  -1.382   0.531  0.00  0.00    +0.173 HD
ENDROOT
BRANCH   1  16
ATOM      5  C   UNL     1       0.389   1.774  -0.667  0.00  0.00    +0.051 C 
ATOM      6  C   UNL     1       0.249   0.256  -0.541  0.00  0.00    +0.177 C 
ATOM      7  N   UNL     1      -1.166  -0.114  -0.671  0.00  0.00    -0.324 N 
ATOM      8  C   UNL     1      -2.013   0.115   0.408  0.00  0.00    +0.041 A 
ATOM      9  C   UNL     1      -3.361   0.383   0.238  0.00  0.00    +0.025 A 
ATOM     10  C   UNL     1      -4.159   0.606   1.343  0.00  0.00    +0.017 A 
ATOM     11  C   UNL     1      -3.621   0.564   2.621  0.00  0.00    +0.019 A 
ATOM     12  C   UNL     1      -2.279   0.298   2.808  0.00  0.00    +0.030 A 
ATOM     13  C   UNL     1      -1.465   0.069   1.702  0.00  0.00    +0.060 A 
ATOM     14  C   UNL     1      -0.028  -0.230   1.845  0.00  0.00    +0.266 C 
ATOM     15  O   UNL     1       0.434  -0.523   2.931  0.00  0.00    -0.268 OA
ATOM     16  N   UNL     1       0.765  -0.173   0.759  0.00  0.00    -0.196 N 
ATOM     17 BR   UNL     1      -4.733   0.876   4.118  0.00  0.00    -0.050 Br
ATOM     18  H   UNL     1      -1.502  -0.509  -1.490  0.00  0.00    +0.148 HD
ENDBRANCH   1  16
BRANCH   2  19
ATOM     19  C   UNL     1       4.434  -0.078   1.608  0.00  0.00    +0.257 C 
ATOM     20  C   UNL     1       5.062  -0.173   0.217  0.00  0.00    +0.062 C 
BRANCH  19  21
ATOM     21  O   UNL     1       5.122   0.912   2.376  0.00  0.00    -0.479 OA
BRANCH  21  22
ATOM     22  C   UNL     1       6.250   0.517   3.021  0.00  0.00    +0.129 A 
ATOM     23  C   UNL     1       6.744  -0.744   2.835  0.00  0.00    +0.046 A 
ATOM     24  C   UNL     1       7.899  -1.164   3.489  0.00  0.00    +0.004 A 
ATOM     25  C   UNL     1       8.570  -0.332   4.332  0.00  0.00    +0.009 A 
ATOM     26  C   UNL     1       8.096   0.972   4.550  0.00  0.00    -0.014 A 
ATOM     27  C   UNL     1       6.923   1.406   3.882  0.00  0.00    +0.024 A 
ATOM     28  C   UNL     1       6.452   2.711   4.097  0.00  0.00    +0.012 A 
ATOM     29  C   UNL     1       7.128   3.543   4.936  0.00  0.00    +0.001 A 
ATOM     30  C   UNL     1       8.284   3.118   5.589  0.00  0.00    +0.001 A 
ATOM     31  C   UNL     1       8.764   1.857   5.413  0.00  0.00    +0.008 A 
ENDBRANCH  21  22
ENDBRANCH  19  21
ENDBRANCH   2  19
TORSDOF 4
