REMARK  Name = ZINC39405203
REMARK  7 active torsions:
REMARK  status: ('A' for Active; 'I' for Inactive)
REMARK    1  A    between atoms: C_6  and  C_11
REMARK    2  A    between atoms: C_11  and  N_12
REMARK    3  A    between atoms: C_13  and  C_15
REMARK    4  A    between atoms: C_15  and  C_16
REMARK    5  A    between atoms: C_16  and  C_17
REMARK    6  A    between atoms: C_21  and  C_24
REMARK    7  A    between atoms: C_24  and  C_28
REMARK                            x       y       z     vdW  Elec       q    Type
REMARK                         _______ _______ _______ _____ _____    ______ ____
ROOT
ATOM      1  C   UNL     1     -10.146  -0.056   4.649  0.00  0.00    +0.202 C 
ATOM      2  N   UNL     1     -11.603  -0.101   4.405  0.00  0.00    -0.227 NA
ATOM      3  N   UNL     1     -12.170   1.028   5.152  0.00  0.00    -0.226 NA
ATOM      4  C   UNL     1     -11.147   1.309   6.193  0.00  0.00    +0.212 C 
ATOM      5  O   UNL     1      -9.899   1.079   5.499  0.00  0.00    -0.341 OA
ATOM      6  H   UNL     1     -11.807  -0.022   3.420  0.00  0.00    +0.143 HD
ATOM      7  H   UNL     1     -13.053   0.777   5.571  0.00  0.00    +0.143 HD
ENDROOT
BRANCH   4   8
ATOM      8  C   UNL     1     -11.245   2.759   6.670  0.00  0.00    +0.036 C 
ATOM      9  C   UNL     1     -10.634   3.773   5.689  0.00  0.00    +0.015 C 
ATOM     10  C   UNL     1     -10.079   4.510   6.919  0.00  0.00    +0.002 C 
ATOM     11  C   UNL     1     -10.134   3.161   7.654  0.00  0.00    +0.015 C 
BRANCH   8  12
ATOM     12  C   UNL     1     -12.629   3.128   7.138  0.00  0.00    -0.037 A 
ATOM     13  C   UNL     1     -13.374   4.053   6.431  0.00  0.00    +0.006 A 
ATOM     14  C   UNL     1     -14.644   4.392   6.861  0.00  0.00    +0.020 A 
ATOM     15  C   UNL     1     -15.169   3.805   7.998  0.00  0.00    +0.041 A 
ATOM     16  C   UNL     1     -14.423   2.879   8.705  0.00  0.00    +0.020 A 
ATOM     17  C   UNL     1     -13.155   2.537   8.272  0.00  0.00    +0.006 A 
ATOM     18 CL   UNL     1     -16.763   4.231   8.538  0.00  0.00    -0.084 Cl
ENDBRANCH   8  12
ENDBRANCH   4   8
BRANCH   1  19
ATOM     19  C   UNL     1      -9.399   0.111   3.324  0.00  0.00    +0.058 C 
BRANCH  19  20
ATOM     20  C   UNL     1      -7.892   0.081   3.581  0.00  0.00    +0.099 C 
BRANCH  20  22
ATOM     21  N   UNL     1      -5.808   0.249   2.258  0.00  0.00    -0.310 N 
ATOM     22  C   UNL     1      -7.156   0.245   2.276  0.00  0.00    +0.213 C 
ATOM     23  O   UNL     1      -7.777   0.373   1.242  0.00  0.00    -0.276 OA
ATOM     24  H   UNL     1      -5.312   0.146   3.085  0.00  0.00    +0.149 HD
BRANCH  21  25
ATOM     25  C   UNL     1      -5.093   0.408   0.990  0.00  0.00    +0.157 C 
BRANCH  25  31
ATOM     26  C   UNL     1       0.886   0.857   2.029  0.00  0.00    +0.001 A 
ATOM     27  C   UNL     1       0.825  -0.529   1.969  0.00  0.00    +0.002 A 
ATOM     28  C   UNL     1      -0.373  -1.170   1.741  0.00  0.00    +0.026 A 
ATOM     29  C   UNL     1      -1.534  -0.424   1.569  0.00  0.00    +0.047 A 
ATOM     30  N   UNL     1      -2.849  -0.757   1.332  0.00  0.00    -0.357 N 
ATOM     31  C   UNL     1      -3.608   0.378   1.243  0.00  0.00    +0.034 A 
ATOM     32  H   UNL     1      -3.187  -1.662   1.241  0.00  0.00    +0.166 HD
ATOM     33  C   UNL     1      -2.834   1.461   1.415  0.00  0.00    +0.032 A 
ATOM     34  C   UNL     1      -1.467   0.980   1.631  0.00  0.00    -0.000 A 
ATOM     35  C   UNL     1      -0.243   1.609   1.869  0.00  0.00    +0.010 A 
ENDBRANCH  25  31
ENDBRANCH  21  25
ENDBRANCH  20  22
ENDBRANCH  19  20
ENDBRANCH   1  19
TORSDOF 7
