REMARK  Name = ZINC04821172
REMARK  10 active torsions:
REMARK  status: ('A' for Active; 'I' for Inactive)
REMARK    1  A    between atoms: C_1  and  C_2
REMARK    2  A    between atoms: C_2  and  O_3
REMARK    3  A    between atoms: O_3  and  C_4
REMARK    4  A    between atoms: C_6  and  C_16
REMARK    5  A    between atoms: C_9  and  O_10
REMARK    6  A    between atoms: O_10  and  C_11
REMARK    7  A    between atoms: C_11  and  C_12
REMARK    8  A    between atoms: C_16  and  N_50
REMARK    9  A    between atoms: C_17  and  N_50
REMARK   10  A    between atoms: C_23  and  C_25
REMARK                            x       y       z     vdW  Elec       q    Type
REMARK                         _______ _______ _______ _____ _____    ______ ____
ROOT
ATOM      1  C   UNL     1      -0.194   1.207  -2.360  0.00  0.00    +0.162 A 
ATOM      2  C   UNL     1       0.950   0.428  -2.432  0.00  0.00    +0.052 A 
ATOM      3  C   UNL     1       1.464   0.066  -3.663  0.00  0.00    -0.042 A 
ATOM      4  C   UNL     1       0.846   0.490  -4.826  0.00  0.00    +0.046 A 
ATOM      5  C   UNL     1      -0.293   1.273  -4.761  0.00  0.00    +0.069 A 
ATOM      6  C   UNL     1      -0.816   1.633  -3.530  0.00  0.00    +0.164 A 
ATOM      7 CL   UNL     1       1.500   0.039  -6.369  0.00  0.00    -0.083 Cl
ENDROOT
BRANCH   1   8
ATOM      8  O   UNL     1      -0.704   1.559  -1.150  0.00  0.00    -0.489 OA
BRANCH   8  10
ATOM      9  C   UNL     1      -0.729   1.579   1.267  0.00  0.00    +0.048 C 
ATOM     10  C   UNL     1      -0.013   1.086   0.008  0.00  0.00    +0.226 C 
ENDBRANCH   8  10
ENDBRANCH   1   8
BRANCH   6  11
ATOM     11  O   UNL     1      -1.935   2.403  -3.464  0.00  0.00    -0.479 OA
BRANCH  11  12
ATOM     12  C   UNL     1      -2.521   2.804  -4.705  0.00  0.00    +0.324 C 
BRANCH  12  13
ATOM     13  C   UNL     1      -3.743   3.644  -4.435  0.00  0.00    +0.248 C 
ATOM     14  O   UNL     1      -4.079   3.877  -3.294  0.00  0.00    -0.272 OA
ATOM     15  N   UNL     1      -4.462   4.137  -5.463  0.00  0.00    -0.327 N 
ATOM     16  H   UNL     1      -4.192   3.950  -6.377  0.00  0.00    +0.145 HD
ATOM     17  H   UNL     1      -5.248   4.677  -5.290  0.00  0.00    +0.145 HD
ENDBRANCH  12  13
ENDBRANCH  11  12
ENDBRANCH   6  11
BRANCH   3  18
ATOM     18  C   UNL     1       2.705  -0.786  -3.738  0.00  0.00    -0.045 C 
BRANCH  18  19
ATOM     19  N   UNL     1       2.325  -2.159  -4.122  0.00  0.00    +0.384 N 
ATOM     20  H   UNL     1       1.860  -2.139  -5.037  0.00  0.00    -0.085 HD
ATOM     21  H   UNL     1       1.682  -2.541  -3.419  0.00  0.00    -0.085 HD
BRANCH  19  22
ATOM     22  C   UNL     1       3.522  -3.017  -4.204  0.00  0.00    -0.069 C 
ATOM     23  C   UNL     1       3.855  -3.564  -2.814  0.00  0.00    -0.015 C 
ATOM     24  C   UNL     1       5.091  -4.461  -2.901  0.00  0.00    -0.002 C 
ATOM     25  C   UNL     1       4.810  -5.625  -3.854  0.00  0.00    +0.000 C 
ATOM     26  C   UNL     1       4.478  -5.078  -5.243  0.00  0.00    +0.002 C 
ATOM     27  C   UNL     1       3.242  -4.181  -5.156  0.00  0.00    -0.028 C 
ATOM     28  C   UNL     1       2.910  -3.634  -6.546  0.00  0.00    +0.006 C 
ENDBRANCH  19  22
ENDBRANCH  18  19
ENDBRANCH   3  18
TORSDOF 8
