REMARK  Name = ZINC67124706
REMARK  7 active torsions:
REMARK  status: ('A' for Active; 'I' for Inactive)
REMARK    1  A    between atoms: C_1  and  C_2
REMARK    2  A    between atoms: C_2  and  C_3
REMARK    3  A    between atoms: C_6  and  N_13
REMARK    4  A    between atoms: C_8  and  S_9
REMARK    5  A    between atoms: S_9  and  N_12
REMARK    6  A    between atoms: N_13  and  S_14
REMARK    7  A    between atoms: S_14  and  C_17
REMARK                            x       y       z     vdW  Elec       q    Type
REMARK                         _______ _______ _______ _____ _____    ______ ____
ROOT
ATOM      1  C   UNL     1       0.675  -0.692  -1.145  0.00  0.00    -0.021 A 
ATOM      2  C   UNL     1      -0.059  -1.010  -2.273  0.00  0.00    +0.007 A 
ATOM      3  C   UNL     1       0.578  -1.478  -3.405  0.00  0.00    +0.027 A 
ATOM      4  C   UNL     1       1.960  -1.629  -3.409  0.00  0.00    +0.076 A 
ATOM      5  C   UNL     1       2.694  -1.309  -2.275  0.00  0.00    +0.055 A 
ATOM      6  C   UNL     1       2.050  -0.836  -1.148  0.00  0.00    +0.110 A 
ENDROOT
BRANCH   6   7
ATOM      7  S   UNL     1       2.982  -0.422   0.289  0.00  0.00    +0.056 S 
ATOM      8  O   UNL     1       2.351  -1.073   1.383  0.00  0.00    -0.153 OA
ATOM      9  O   UNL     1       4.348  -0.633  -0.038  0.00  0.00    -0.153 OA
BRANCH   7  10
ATOM     10  N   UNL     1       2.801   1.205   0.539  0.00  0.00    -0.204 NA
ATOM     11  H   UNL     1       2.320   1.744  -0.109  0.00  0.00    +0.144 HD
ATOM     12  H   UNL     1       3.175   1.619   1.332  0.00  0.00    +0.144 HD
ENDBRANCH   7  10
ENDBRANCH   6   7
BRANCH   1  14
ATOM     13  C   UNL     1      -1.536  -0.180  -0.146  0.00  0.00    +0.009 C 
ATOM     14  C   UNL     1      -0.025  -0.182   0.089  0.00  0.00    +0.034 C 
ENDBRANCH   1  14
BRANCH   4  15
ATOM     15  N   UNL     1       2.608  -2.102  -4.552  0.00  0.00    -0.098 NA
BRANCH  15  16
ATOM     16  S   UNL     1       1.730  -2.484  -5.904  0.00  0.00    +0.093 S 
ATOM     17  O   UNL     1       0.925  -3.604  -5.562  0.00  0.00    -0.148 OA
ATOM     18  O   UNL     1       1.177  -1.268  -6.386  0.00  0.00    -0.148 OA
BRANCH  16  19
ATOM     19  C   UNL     1       2.871  -3.039  -7.126  0.00  0.00    +0.128 A 
ATOM     20  C   UNL     1       3.452  -2.137  -8.006  0.00  0.00    +0.033 A 
ATOM     21  C   UNL     1       4.343  -2.618  -8.951  0.00  0.00    +0.042 A 
ATOM     22  C   UNL     1       4.623  -3.972  -8.986  0.00  0.00    +0.129 A 
ATOM     23  N   UNL     1       4.052  -4.801  -8.133  0.00  0.00    -0.242 NA
ATOM     24  C   UNL     1       3.203  -4.377  -7.217  0.00  0.00    +0.141 A 
ATOM     25 CL   UNL     1       5.739  -4.588 -10.166  0.00  0.00    -0.062 Cl
ENDBRANCH  16  19
ENDBRANCH  15  16
ENDBRANCH   4  15
TORSDOF 6
