REMARK  Name = ZINC16662114
REMARK  6 active torsions:
REMARK  status: ('A' for Active; 'I' for Inactive)
REMARK    1  A    between atoms: C_2  and  C_26
REMARK    2  A    between atoms: C_3  and  N_23
REMARK    3  A    between atoms: C_5  and  C_10
REMARK    4  A    between atoms: C_6  and  N_7
REMARK    5  A    between atoms: C_19  and  O_22
REMARK    6  A    between atoms: C_35  and  O_38
REMARK                            x       y       z     vdW  Elec       q    Type
REMARK                         _______ _______ _______ _____ _____    ______ ____
ROOT
ATOM      1  C   UNL     1       1.147  -0.671   0.131  0.00  0.00    +0.039 A 
ATOM      2  C   UNL     1      -0.028   0.054   0.075  0.00  0.00    -0.009 A 
ATOM      3  C   UNL     1       0.014   1.429  -0.063  0.00  0.00    +0.130 A 
ATOM      4  C   UNL     1       1.232   2.078  -0.145  0.00  0.00    +0.039 A 
ATOM      5  C   UNL     1       2.407   1.352  -0.090  0.00  0.00    -0.009 A 
ATOM      6  C   UNL     1       2.365  -0.023   0.048  0.00  0.00    +0.130 A 
ENDROOT
BRANCH   5   7
ATOM      7  C   UNL     1       3.735   2.059  -0.179  0.00  0.00    +0.001 C 
ATOM      8  C   UNL     1       4.545   1.481  -1.341  0.00  0.00    +0.015 C 
ATOM      9  C   UNL     1       5.893   2.199  -1.431  0.00  0.00    -0.007 C 
ATOM     10  C   UNL     1       6.664   2.002  -0.124  0.00  0.00    +0.007 C 
ATOM     11  C   UNL     1       5.854   2.581   1.038  0.00  0.00    -0.007 C 
ATOM     12  C   UNL     1       4.506   1.863   1.128  0.00  0.00    +0.015 C 
ATOM     13  C   UNL     1       5.621   4.075   0.803  0.00  0.00    +0.038 C 
ATOM     14  C   UNL     1       4.850   4.271  -0.504  0.00  0.00    +0.067 C 
ATOM     15  C   UNL     1       5.660   3.693  -1.666  0.00  0.00    +0.038 C 
ATOM     16  C   UNL     1       3.502   3.553  -0.414  0.00  0.00    +0.046 C 
BRANCH  14  17
ATOM     17  O   UNL     1       4.633   5.667  -0.723  0.00  0.00    -0.389 OA
ATOM     18  H   UNL     1       4.091   6.005  -1.619  0.00  0.00    +0.210 HD
ENDBRANCH  14  17
ENDBRANCH   5   7
BRANCH   2  19
ATOM     19  C   UNL     1      -1.356  -0.653   0.164  0.00  0.00    +0.001 C 
ATOM     20  C   UNL     1      -2.160  -0.082   1.334  0.00  0.00    +0.015 C 
ATOM     21  C   UNL     1      -3.508  -0.800   1.425  0.00  0.00    -0.007 C 
ATOM     22  C   UNL     1      -4.285  -0.594   0.123  0.00  0.00    +0.007 C 
ATOM     23  C   UNL     1      -3.481  -1.165  -1.046  0.00  0.00    -0.007 C 
ATOM     24  C   UNL     1      -2.133  -0.447  -1.137  0.00  0.00    +0.015 C 
ATOM     25  C   UNL     1      -3.248  -2.660  -0.823  0.00  0.00    +0.038 C 
ATOM     26  C   UNL     1      -2.471  -2.866   0.479  0.00  0.00    +0.067 C 
ATOM     27  C   UNL     1      -3.275  -2.295   1.648  0.00  0.00    +0.038 C 
ATOM     28  C   UNL     1      -1.123  -2.148   0.388  0.00  0.00    +0.046 C 
BRANCH  26  29
ATOM     29  O   UNL     1      -2.253  -4.263   0.687  0.00  0.00    -0.389 OA
ATOM     30  H   UNL     1      -1.708  -4.608   1.578  0.00  0.00    +0.210 HD
ENDBRANCH  26  29
ENDBRANCH   2  19
BRANCH   6  31
ATOM     31  N   UNL     1       3.623  -0.800   0.109  0.00  0.00    +0.057 N 
ATOM     32  O   UNL     1       3.588  -2.017   0.094  0.00  0.00    -0.126 OA
ATOM     33  O   UNL     1       4.693  -0.222   0.174  0.00  0.00    -0.126 OA
ENDBRANCH   6  31
BRANCH   3  34
ATOM     34  N   UNL     1      -1.244   2.206  -0.129  0.00  0.00    +0.057 N 
ATOM     35  O   UNL     1      -1.210   3.423  -0.109  0.00  0.00    -0.126 OA
ATOM     36  O   UNL     1      -2.313   1.628  -0.203  0.00  0.00    -0.126 OA
ENDBRANCH   3  34
TORSDOF 6
