REMARK  Name = ZINC60367714
REMARK  10 active torsions:
REMARK  status: ('A' for Active; 'I' for Inactive)
REMARK    1  A    between atoms: C_1  and  C_2
REMARK    2  A    between atoms: N_7  and  C_9
REMARK    3  A    between atoms: C_9  and  C_10
REMARK    4  A    between atoms: C_9  and  C_11
REMARK    5  A    between atoms: C_9  and  C_12
REMARK    6  A    between atoms: C_12  and  N_13
REMARK    7  A    between atoms: C_14  and  C_16
REMARK    8  A    between atoms: C_16  and  C_18
REMARK    9  A    between atoms: C_16  and  N_24
REMARK   10  A    between atoms: C_25  and  C_27
REMARK                            x       y       z     vdW  Elec       q    Type
REMARK                         _______ _______ _______ _____ _____    ______ ____
ROOT
ATOM      1  C   UNL     1       2.962  -6.266  -0.361  0.00  0.00    +0.190 C 
ENDROOT
BRANCH   1   2
ATOM      2  C   UNL     1       4.370  -5.736  -0.446  0.00  0.00    -0.018 A 
ATOM      3  C   UNL     1       5.387  -6.359   0.254  0.00  0.00    +0.006 A 
ATOM      4  C   UNL     1       6.678  -5.873   0.175  0.00  0.00    +0.000 A 
ATOM      5  C   UNL     1       6.954  -4.765  -0.604  0.00  0.00    +0.000 A 
ATOM      6  C   UNL     1       5.938  -4.143  -1.305  0.00  0.00    +0.000 A 
ATOM      7  C   UNL     1       4.647  -4.631  -1.230  0.00  0.00    +0.006 A 
ENDBRANCH   1   2
BRANCH   1   9
ATOM      8  N   UNL     1       2.186  -4.461   1.142  0.00  0.00    -0.315 N 
ATOM      9  C   UNL     1       2.321  -5.782   0.914  0.00  0.00    +0.238 C 
ATOM     10  O   UNL     1       1.925  -6.582   1.736  0.00  0.00    -0.273 OA
ATOM     11  H   UNL     1       2.502  -3.821   0.485  0.00  0.00    +0.149 HD
BRANCH   8  12
ATOM     12  C   UNL     1       1.562  -3.991   2.382  0.00  0.00    +0.092 C 
BRANCH  12  13
ATOM     13  C   UNL     1       1.534  -2.461   2.390  0.00  0.00    -0.055 C 
ATOM     14  C   UNL     1       2.963  -1.924   2.303  0.00  0.00    -0.008 C 
ATOM     15  C   UNL     1       0.882  -1.970   3.685  0.00  0.00    -0.008 C 
BRANCH  13  21
ATOM     16  C   UNL     1      -0.019   1.526   0.010  0.00  0.00    +0.005 C 
ATOM     17  C   UNL     1       0.002  -0.004   0.002  0.00  0.00    -0.031 C 
ATOM     18  C   UNL     1      -1.434  -0.535   0.015  0.00  0.00    -0.001 C 
ATOM     19  C   UNL     1      -1.402  -2.064   0.086  0.00  0.00    -0.018 C 
ATOM     20  C   UNL     1      -0.613  -2.496   1.324  0.00  0.00    -0.078 C 
ATOM     21  N   UNL     1       0.758  -1.980   1.239  0.00  0.00    +0.384 N 
ATOM     22  C   UNL     1       0.740  -0.512   1.242  0.00  0.00    -0.075 C 
ATOM     23  H   UNL     1       1.188  -2.307   0.386  0.00  0.00    -0.081 HD
ENDBRANCH  13  21
ENDBRANCH  12  13
ENDBRANCH   8  12
ENDBRANCH   1   9
BRANCH   1  24
ATOM     24  N   UNL     1       2.990  -7.730  -0.369  0.00  0.00    -0.296 N 
ATOM     25  C   UNL     1       3.031  -8.397  -1.539  0.00  0.00    +0.245 C 
ATOM     26  O   UNL     1       3.046  -7.783  -2.588  0.00  0.00    -0.270 OA
ATOM     27  H   UNL     1       2.978  -8.220   0.469  0.00  0.00    +0.150 HD
BRANCH  25  28
ATOM     28  C   UNL     1       3.059  -9.875  -1.547  0.00  0.00    +0.037 A 
ATOM     29  C   UNL     1       3.037 -10.583  -0.344  0.00  0.00    +0.013 A 
ATOM     30  C   UNL     1       3.062 -11.963  -0.359  0.00  0.00    +0.001 A 
ATOM     31  C   UNL     1       3.111 -12.644  -1.562  0.00  0.00    +0.000 A 
ATOM     32  C   UNL     1       3.134 -11.948  -2.758  0.00  0.00    +0.001 A 
ATOM     33  C   UNL     1       3.102 -10.569  -2.758  0.00  0.00    +0.013 A 
ENDBRANCH  25  28
ENDBRANCH   1  24
TORSDOF 7
