REMARK  Name = ZINC20242705
REMARK  14 active torsions:
REMARK  status: ('A' for Active; 'I' for Inactive)
REMARK    1  A    between atoms: C_1  and  C_2
REMARK    2  A    between atoms: C_2  and  C_3
REMARK    3  A    between atoms: C_3  and  C_4
REMARK    4  A    between atoms: C_4  and  N_5
REMARK    5  A    between atoms: N_5  and  C_6
REMARK    6  A    between atoms: N_5  and  C_7
REMARK    7  A    between atoms: C_7  and  C_8
REMARK    8  A    between atoms: C_8  and  C_9
REMARK    9  A    between atoms: C_9  and  N_10
REMARK   10  A    between atoms: C_11  and  C_13
REMARK   11  A    between atoms: N_19  and  C_30
REMARK   12  A    between atoms: C_30  and  C_31
REMARK   13  A    between atoms: C_33  and  C_38
REMARK   14  A    between atoms: C_36  and  C_37
REMARK                            x       y       z     vdW  Elec       q    Type
REMARK                         _______ _______ _______ _____ _____    ______ ____
ROOT
ATOM      1  C   UNL     1      -3.450   1.696   3.105  0.00  0.00    +0.039 A 
ATOM      2  C   UNL     1      -3.010   0.461   2.624  0.00  0.00    +0.014 A 
ATOM      3  C   UNL     1      -2.599   0.348   1.313  0.00  0.00    +0.020 A 
ATOM      4  C   UNL     1      -2.619   1.447   0.472  0.00  0.00    +0.065 A 
ATOM      5  C   UNL     1      -3.056   2.679   0.933  0.00  0.00    +0.054 A 
ATOM      6  C   UNL     1      -3.471   2.801   2.259  0.00  0.00    +0.037 A 
ATOM      7  N   UNL     1      -3.097   3.801   0.125  0.00  0.00    -0.262 N 
ATOM      8  C   UNL     1      -2.217   4.277  -0.715  0.00  0.00    +0.252 C 
ATOM      9  O   UNL     1      -2.530   5.311  -1.272  0.00  0.00    -0.270 OA
ATOM     10  C   UNL     1      -0.906   3.735  -1.079  0.00  0.00    +0.053 A 
ATOM     11  C   UNL     1       0.188   4.603  -1.188  0.00  0.00    +0.014 A 
ATOM     12  C   UNL     1       1.430   4.112  -1.526  0.00  0.00    +0.001 A 
ATOM     13  C   UNL     1       1.606   2.759  -1.757  0.00  0.00    +0.001 A 
ATOM     14  C   UNL     1       0.532   1.894  -1.652  0.00  0.00    +0.018 A 
ATOM     15  C   UNL     1      -0.718   2.376  -1.323  0.00  0.00    +0.056 A 
ATOM     16  S   UNL     1      -2.079   1.264  -1.196  0.00  0.00    +0.088 S 
ATOM     17  O   UNL     1      -3.102   1.889  -1.959  0.00  0.00    -0.247 OA
ENDROOT
BRANCH   1  19
ATOM     18  N   UNL     1      -3.871   0.759   5.327  0.00  0.00    -0.311 N 
ATOM     19  C   UNL     1      -3.892   1.830   4.509  0.00  0.00    +0.244 C 
ATOM     20  O   UNL     1      -4.274   2.905   4.926  0.00  0.00    -0.270 OA
ATOM     21  H   UNL     1      -3.525  -0.215   4.950  0.00  0.00    +0.149 HD
BRANCH  18  22
ATOM     22  C   UNL     1      -4.309   0.891   6.719  0.00  0.00    +0.102 C 
BRANCH  22  23
ATOM     23  C   UNL     1      -4.187  -0.462   7.423  0.00  0.00    +0.000 C 
BRANCH  23  24
ATOM     24  C   UNL     1      -4.645  -0.324   8.876  0.00  0.00    -0.078 C 
BRANCH  24  25
ATOM     25  N   UNL     1      -4.527  -1.623   9.552  0.00  0.00    +0.378 N 
ATOM     26  C   UNL     1      -3.121  -2.032   9.666  0.00  0.00    -0.096 C 
ATOM     27  H   UNL     1      -5.049  -2.372   8.938  0.00  0.00    -0.082 HD
BRANCH  25  28
ATOM     28  C   UNL     1      -5.175  -1.591  10.871  0.00  0.00    -0.079 C 
BRANCH  28  29
ATOM     29  C   UNL     1      -5.253  -3.010  11.435  0.00  0.00    -0.019 C 
BRANCH  29  31
ATOM     30  C   UNL     1      -6.005  -4.397  13.373  0.00  0.00    +0.004 C 
ATOM     31  C   UNL     1      -5.927  -2.977  12.808  0.00  0.00    -0.005 C 
ENDBRANCH  29  31
ENDBRANCH  28  29
ENDBRANCH  25  28
ENDBRANCH  24  25
ENDBRANCH  23  24
ENDBRANCH  22  23
ENDBRANCH  18  22
ENDBRANCH   1  19
BRANCH   7  32
ATOM     32  C   UNL     1      -4.331   4.585   0.229  0.00  0.00    +0.149 C 
BRANCH  32  33
ATOM     33  C   UNL     1      -5.316   4.110  -0.808  0.00  0.00    -0.027 A 
ATOM     34  C   UNL     1      -5.484   2.756  -1.033  0.00  0.00    +0.008 A 
ATOM     35  C   UNL     1      -6.391   2.320  -1.981  0.00  0.00    -0.050 A 
ATOM     36  C   UNL     1      -7.123   3.239  -2.710  0.00  0.00    +0.003 A 
ATOM     37  C   UNL     1      -6.952   4.592  -2.489  0.00  0.00    +0.004 A 
ATOM     38  C   UNL     1      -6.048   5.028  -1.538  0.00  0.00    -0.046 A 
ATOM     39  C   UNL     1      -5.860   6.503  -1.297  0.00  0.00    +0.044 C 
ATOM     40  C   UNL     1      -6.579   0.845  -2.222  0.00  0.00    +0.044 C 
ENDBRANCH  32  33
ENDBRANCH   7  32
TORSDOF 10
