REMARK  Name = ZINC10768640
REMARK  6 active torsions:
REMARK  status: ('A' for Active; 'I' for Inactive)
REMARK    1  A    between atoms: C_1  and  C_2
REMARK    2  A    between atoms: C_9  and  N_14
REMARK    3  A    between atoms: C_10  and  C_11
REMARK    4  A    between atoms: C_15  and  C_17
REMARK    5  A    between atoms: N_22  and  S_24
REMARK    6  A    between atoms: S_24  and  C_27
REMARK                            x       y       z     vdW  Elec       q    Type
REMARK                         _______ _______ _______ _____ _____    ______ ____
ROOT
ATOM      1  N   UNL     1      -3.481   8.515   4.455  0.00  0.00    -0.279 N 
ATOM      2  C   UNL     1      -2.713   7.614   3.811  0.00  0.00    +0.222 C 
ATOM      3  O   UNL     1      -1.506   7.662   3.913  0.00  0.00    -0.275 OA
ATOM      4  H   UNL     1      -4.446   8.477   4.373  0.00  0.00    +0.155 HD
ENDROOT
BRANCH   1  12
ATOM      5  C   UNL     1       0.235  13.834   8.825  0.00  0.00    +0.008 C 
ATOM      6  C   UNL     1      -0.808  12.818   8.355  0.00  0.00    -0.009 C 
ATOM      7  C   UNL     1      -2.029  13.557   7.797  0.00  0.00    +0.008 C 
ATOM      8  C   UNL     1      -3.170  12.568   7.555  0.00  0.00    +0.037 C 
ATOM      9  C   UNL     1      -2.648  11.415   6.707  0.00  0.00    -0.023 A 
ATOM     10  C   UNL     1      -1.323  11.175   6.598  0.00  0.00    -0.004 A 
ATOM     11  S   UNL     1      -1.204   9.763   5.538  0.00  0.00    -0.077 S 
ATOM     12  C   UNL     1      -2.889   9.498   5.235  0.00  0.00    +0.084 A 
ATOM     13  C   UNL     1      -3.504  10.504   5.967  0.00  0.00    +0.068 A 
ATOM     14  C   UNL     1      -0.211  11.942   7.244  0.00  0.00    +0.046 C 
BRANCH  13  15
ATOM     15  C   UNL     1      -4.964  10.642   5.992  0.00  0.00    +0.244 C 
ATOM     16  O   UNL     1      -5.615  10.061   6.841  0.00  0.00    -0.270 OA
ATOM     17  N   UNL     1      -5.584  11.412   5.077  0.00  0.00    -0.325 N 
ATOM     18  H   UNL     1      -5.065  11.874   4.400  0.00  0.00    +0.145 HD
ATOM     19  H   UNL     1      -6.549  11.503   5.093  0.00  0.00    +0.145 HD
ENDBRANCH  13  15
ENDBRANCH   1  12
BRANCH   2  20
ATOM     20  C   UNL     1      -3.356   6.546   2.964  0.00  0.00    +0.091 C 
ATOM     21  C   UNL     1      -4.276   5.688   3.835  0.00  0.00    +0.015 C 
ATOM     22  C   UNL     1      -4.954   4.623   2.969  0.00  0.00    +0.018 C 
ATOM     23  C   UNL     1      -3.890   3.718   2.352  0.00  0.00    +0.109 C 
ATOM     24  N   UNL     1      -2.913   4.548   1.633  0.00  0.00    -0.175 NA
ATOM     25  C   UNL     1      -2.269   5.659   2.348  0.00  0.00    +0.122 C 
BRANCH  24  26
ATOM     26  S   UNL     1      -2.551   4.243   0.047  0.00  0.00    +0.067 S 
ATOM     27  O   UNL     1      -2.072   5.463  -0.503  0.00  0.00    -0.152 OA
ATOM     28  O   UNL     1      -3.664   3.547  -0.497  0.00  0.00    -0.152 OA
BRANCH  26  29
ATOM     29  C   UNL     1      -1.196   3.117   0.029  0.00  0.00    +0.144 A 
ATOM     30  C   UNL     1      -1.213   1.762   0.017  0.00  0.00    +0.038 A 
ATOM     31  C   UNL     1      -0.013   1.076   0.008  0.00  0.00    +0.030 A 
ATOM     32  C   UNL     1       1.147   1.780   0.001  0.00  0.00    +0.080 A 
ATOM     33  S   UNL     1       0.555   3.465   0.015  0.00  0.00    -0.057 S 
ATOM     34 CL   UNL     1       2.781   1.196  -0.017  0.00  0.00    -0.076 Cl
ENDBRANCH  26  29
ENDBRANCH  24  26
ENDBRANCH   2  20
TORSDOF 5
