REMARK  Name = ZINC01418982
REMARK  12 active torsions:
REMARK  status: ('A' for Active; 'I' for Inactive)
REMARK    1  A    between atoms: C_1  and  O_2
REMARK    2  A    between atoms: O_2  and  C_3
REMARK    3  A    between atoms: C_6  and  C_9
REMARK    4  A    between atoms: C_9  and  N_10
REMARK    5  A    between atoms: N_10  and  C_11
REMARK    6  A    between atoms: C_11  and  C_13
REMARK    7  A    between atoms: C_11  and  C_20
REMARK    8  A    between atoms: N_22  and  C_23
REMARK    9  A    between atoms: C_26  and  O_29
REMARK   10  A    between atoms: O_29  and  C_30
REMARK   11  A    between atoms: C_31  and  C_33
REMARK   12  A    between atoms: C_33  and  N_34
REMARK                            x       y       z     vdW  Elec       q    Type
REMARK                         _______ _______ _______ _____ _____    ______ ____
ROOT
ATOM      1  N   UNL     1      -1.644   5.383   0.263  0.00  0.00    -0.280 N 
ATOM      2  C   UNL     1      -2.277   5.309  -0.924  0.00  0.00    +0.238 C 
ATOM      3  O   UNL     1      -2.761   4.258  -1.290  0.00  0.00    -0.274 OA
ENDROOT
BRANCH   1   4
ATOM      4  C   UNL     1      -1.193   6.680   0.773  0.00  0.00    +0.144 C 
BRANCH   4   8
ATOM      5  C   UNL     1       1.474   8.471  -2.045  0.00  0.00    +0.120 A 
ATOM      6  C   UNL     1       0.411   9.202  -1.532  0.00  0.00    +0.046 A 
ATOM      7  C   UNL     1      -0.449   8.620  -0.621  0.00  0.00    +0.009 A 
ATOM      8  C   UNL     1      -0.253   7.312  -0.220  0.00  0.00    -0.030 A 
ATOM      9  C   UNL     1       0.808   6.583  -0.726  0.00  0.00    +0.009 A 
ATOM     10  C   UNL     1       1.668   7.158  -1.641  0.00  0.00    +0.046 A 
BRANCH   5  12
ATOM     11  C   UNL     1       3.393   8.229  -3.427  0.00  0.00    +0.277 C 
ATOM     12  O   UNL     1       2.321   9.041  -2.941  0.00  0.00    -0.495 OA
ENDBRANCH   5  12
ENDBRANCH   4   8
ENDBRANCH   1   4
BRANCH   1  13
ATOM     13  C   UNL     1      -1.406   4.166   1.043  0.00  0.00    +0.193 C 
BRANCH  13  14
ATOM     14  C   UNL     1      -2.293   4.169   2.262  0.00  0.00    -0.018 A 
ATOM     15  C   UNL     1      -2.284   5.253   3.120  0.00  0.00    +0.007 A 
ATOM     16  C   UNL     1      -3.102   5.259   4.234  0.00  0.00    +0.020 A 
ATOM     17  C   UNL     1      -3.920   4.175   4.497  0.00  0.00    +0.041 A 
ATOM     18  C   UNL     1      -3.924   3.088   3.641  0.00  0.00    +0.020 A 
ATOM     19  C   UNL     1      -3.110   3.086   2.524  0.00  0.00    +0.007 A 
ATOM     20 CL   UNL     1      -4.941   4.178   5.901  0.00  0.00    -0.084 Cl
ENDBRANCH  13  14
BRANCH  13  21
ATOM     21  C   UNL     1       0.038   4.119   1.473  0.00  0.00    +0.242 C 
ATOM     22  O   UNL     1       0.655   5.149   1.637  0.00  0.00    -0.273 OA
ATOM     23  N   UNL     1       0.642   2.931   1.674  0.00  0.00    -0.284 N 
ATOM     24  H   UNL     1       0.167   2.107   1.487  0.00  0.00    +0.155 HD
BRANCH  23  25
ATOM     25  C   UNL     1       1.958   2.888   2.154  0.00  0.00    +0.034 A 
ATOM     26  C   UNL     1       2.876   3.849   1.754  0.00  0.00    +0.027 A 
ATOM     27  C   UNL     1       4.173   3.803   2.224  0.00  0.00    +0.047 A 
ATOM     28  C   UNL     1       4.561   2.794   3.095  0.00  0.00    +0.120 A 
ATOM     29  C   UNL     1       3.644   1.833   3.495  0.00  0.00    +0.047 A 
ATOM     30  C   UNL     1       2.346   1.879   3.026  0.00  0.00    +0.027 A 
BRANCH  28  31
ATOM     31  O   UNL     1       5.838   2.749   3.557  0.00  0.00    -0.495 OA
ATOM     32  C   UNL     1       6.729   3.771   3.103  0.00  0.00    +0.277 C 
ENDBRANCH  28  31
ENDBRANCH  23  25
ENDBRANCH  13  21
ENDBRANCH   1  13
BRANCH   2  33
ATOM     33  C   UNL     1      -2.385   6.532  -1.798  0.00  0.00    +0.241 C 
BRANCH  33  34
ATOM     34  N   UNL     1      -2.982   6.163  -3.084  0.00  0.00    -0.235 N 
ATOM     35  C   UNL     1      -2.314   5.757  -4.215  0.00  0.00    +0.090 A 
ATOM     36  C   UNL     1      -0.974   5.554  -4.526  0.00  0.00    +0.029 A 
ATOM     37  C   UNL     1      -0.623   5.126  -5.775  0.00  0.00    +0.002 A 
ATOM     38  C   UNL     1      -1.595   4.888  -6.739  0.00  0.00    +0.002 A 
ATOM     39  C   UNL     1      -2.917   5.074  -6.458  0.00  0.00    +0.032 A 
ATOM     40  C   UNL     1      -3.303   5.511  -5.184  0.00  0.00    +0.113 A 
ATOM     41  N   UNL     1      -4.500   5.778  -4.624  0.00  0.00    -0.129 NA
ATOM     42  N   UNL     1      -4.348   6.159  -3.405  0.00  0.00    -0.064 NA
ENDBRANCH  33  34
ENDBRANCH   2  33
TORSDOF 10
