REMARK  Name = ZINC38986118
REMARK  5 active torsions:
REMARK  status: ('A' for Active; 'I' for Inactive)
REMARK    1  A    between atoms: C_1  and  C_2
REMARK    2  A    between atoms: C_5  and  C_8
REMARK    3  A    between atoms: C_10  and  C_21
REMARK    4  A    between atoms: N_23  and  N_24
REMARK    5  A    between atoms: C_25  and  C_26
REMARK                            x       y       z     vdW  Elec       q    Type
REMARK                         _______ _______ _______ _____ _____    ______ ____
ROOT
ATOM      1  C   UNL     1       0.059  -4.275  -0.021  0.00  0.00    +0.167 C 
ATOM      2  C   UNL     1      -1.338  -4.844   0.301  0.00  0.00    +0.243 C 
ATOM      3  N   UNL     1      -1.135  -5.604   1.541  0.00  0.00    -0.156 NA
ATOM      4  N   UNL     1       0.034  -5.548   1.911  0.00  0.00    -0.076 NA
ATOM      5  N   UNL     1       0.880  -4.795   1.088  0.00  0.00    -0.173 N 
ATOM      6  C   UNL     1       2.243  -4.576   1.280  0.00  0.00    +0.228 A 
ATOM      7  C   UNL     1       3.051  -5.104   2.384  0.00  0.00    +0.204 A 
ATOM      8  N   UNL     1       4.278  -4.689   2.229  0.00  0.00    -0.032 NA
ATOM      9  O   UNL     1       4.324  -3.898   1.055  0.00  0.00    -0.239 OA
ATOM     10  N   UNL     1       3.019  -3.872   0.504  0.00  0.00    -0.030 NA
ATOM     11  N   UNL     1       2.588  -5.907   3.420  0.00  0.00    -0.338 N 
ATOM     12  H   UNL     1       1.653  -6.166   3.453  0.00  0.00    +0.144 HD
ATOM     13  H   UNL     1       3.199  -6.209   4.110  0.00  0.00    +0.144 HD
ENDROOT
BRANCH   1  18
ATOM     14  C   UNL     1      -0.018   1.503   0.010  0.00  0.00    +0.044 C 
ATOM     15  C   UNL     1       0.002  -0.004   0.002  0.00  0.00    -0.050 A 
ATOM     16  C   UNL     1       0.006  -0.689  -1.199  0.00  0.00    +0.004 A 
ATOM     17  C   UNL     1       0.025  -2.071  -1.206  0.00  0.00    +0.006 A 
ATOM     18  C   UNL     1       0.040  -2.768  -0.013  0.00  0.00    -0.022 A 
ATOM     19  C   UNL     1       0.037  -2.084   1.188  0.00  0.00    +0.006 A 
ATOM     20  C   UNL     1       0.023  -0.702   1.195  0.00  0.00    +0.004 A 
ENDBRANCH   1  18
BRANCH   2  21
ATOM     21  C   UNL     1      -1.808  -5.751  -0.807  0.00  0.00    +0.261 C 
ATOM     22  O   UNL     1      -1.715  -6.954  -0.687  0.00  0.00    -0.272 OA
ATOM     23  N   UNL     1      -2.333  -5.225  -1.932  0.00  0.00    -0.205 N 
ATOM     24  H   UNL     1      -2.408  -4.262  -2.028  0.00  0.00    +0.177 HD
BRANCH  23  25
ATOM     25  N   UNL     1      -2.770  -6.068  -2.962  0.00  0.00    -0.188 NA
ATOM     26  C   UNL     1      -3.280  -5.557  -4.054  0.00  0.00    +0.136 C 
BRANCH  26  27
ATOM     27  C   UNL     1      -3.717  -6.401  -5.085  0.00  0.00    +0.000 C 
ATOM     28  C   UNL     1      -4.274  -6.022  -6.304  0.00  0.00    +0.004 A 
ATOM     29  C   UNL     1      -4.563  -4.761  -6.871  0.00  0.00    +0.010 A 
ATOM     30  C   UNL     1      -5.119  -4.689  -8.106  0.00  0.00    +0.001 A 
ATOM     31  C   UNL     1      -5.416  -5.839  -8.844  0.00  0.00    +0.002 A 
ATOM     32  C   UNL     1      -5.165  -7.081  -8.364  0.00  0.00    +0.026 A 
ATOM     33  C   UNL     1      -4.585  -7.237  -7.077  0.00  0.00    +0.043 A 
ATOM     34  N   UNL     1      -4.250  -8.313  -6.397  0.00  0.00    -0.380 N 
ATOM     35  C   UNL     1      -3.677  -7.913  -5.108  0.00  0.00    +0.150 C 
ATOM     36  H   UNL     1      -4.361  -9.227  -6.702  0.00  0.00    +0.160 HD
ENDBRANCH  26  27
ENDBRANCH  23  25
ENDBRANCH   2  21
TORSDOF 4
