REMARK  Name = ZINC31806998
REMARK  7 active torsions:
REMARK  status: ('A' for Active; 'I' for Inactive)
REMARK    1  A    between atoms: C_1  and  C_2
REMARK    2  A    between atoms: C_18  and  O_33
REMARK    3  A    between atoms: C_21  and  C_23
REMARK    4  A    between atoms: C_26  and  O_29
REMARK    5  A    between atoms: O_29  and  C_30
REMARK    6  A    between atoms: C_30  and  C_31
REMARK    7  A    between atoms: C_30  and  C_32
REMARK                            x       y       z     vdW  Elec       q    Type
REMARK                         _______ _______ _______ _____ _____    ______ ____
ROOT
ATOM      1  C   UNL     1       0.279   1.004  -0.553  0.00  0.00    +0.068 C 
ATOM      2  C   UNL     1       0.399  -0.476  -0.810  0.00  0.00    +0.067 A 
ATOM      3  C   UNL     1       0.428  -1.085  -2.079  0.00  0.00    +0.037 A 
ATOM      4  C   UNL     1       0.549  -2.435  -1.890  0.00  0.00    +0.166 A 
ATOM      5  N   UNL     1       0.586  -2.640  -0.522  0.00  0.00    -0.194 N 
ATOM      6  N   UNL     1       0.499  -1.397   0.105  0.00  0.00    -0.168 NA
ATOM      7  C   UNL     1       0.696  -3.872   0.117  0.00  0.00    +0.187 A 
ATOM      8  C   UNL     1       0.717  -3.955   1.518  0.00  0.00    +0.152 A 
ATOM      9  C   UNL     1       0.829  -5.228   2.106  0.00  0.00    +0.163 A 
ATOM     10  N   UNL     1       0.827  -5.019   3.462  0.00  0.00    -0.329 N 
ATOM     11  H   UNL     1       0.891  -5.702   4.148  0.00  0.00    +0.168 HD
ATOM     12  C   UNL     1       0.718  -3.676   3.668  0.00  0.00    +0.198 A 
ATOM     13  N   UNL     1       0.653  -3.054   2.527  0.00  0.00    -0.231 NA
ATOM     14  N   UNL     1       0.909  -6.297   1.321  0.00  0.00    -0.216 NA
ATOM     15  C   UNL     1       0.885  -6.170   0.011  0.00  0.00    +0.226 A 
ATOM     16  N   UNL     1       0.776  -4.997  -0.585  0.00  0.00    -0.214 NA
ATOM     17  N   UNL     1       0.636  -3.458  -2.755  0.00  0.00    -0.197 NA
ATOM     18  C   UNL     1       0.637  -3.599  -4.000  0.00  0.00    +0.199 C 
ATOM     19  C   UNL     1       0.473  -2.591  -5.068  0.00  0.00    +0.165 C 
ATOM     20  S   UNL     1       1.277  -1.027  -4.693  0.00  0.00    -0.138 S 
ATOM     21  C   UNL     1       0.330  -0.299  -3.351  0.00  0.00    +0.112 C 
ENDROOT
BRANCH  21  22
ATOM     22  C   UNL     1       0.837   1.098  -3.100  0.00  0.00    -0.030 A 
ATOM     23  C   UNL     1       2.139   1.294  -2.679  0.00  0.00    +0.008 A 
ATOM     24  C   UNL     1       2.606   2.574  -2.448  0.00  0.00    +0.046 A 
ATOM     25  C   UNL     1       1.767   3.662  -2.639  0.00  0.00    +0.121 A 
ATOM     26  C   UNL     1       0.461   3.462  -3.062  0.00  0.00    +0.046 A 
ATOM     27  C   UNL     1       0.000   2.181  -3.297  0.00  0.00    +0.008 A 
BRANCH  25  28
ATOM     28  O   UNL     1       2.224   4.922  -2.412  0.00  0.00    -0.489 OA
BRANCH  28  29
ATOM     29  C   UNL     1       3.539   5.046  -1.865  0.00  0.00    +0.167 C 
ATOM     30  C   UNL     1       4.567   5.002  -2.997  0.00  0.00    +0.051 C 
ATOM     31  C   UNL     1       3.657   6.377  -1.119  0.00  0.00    +0.051 C 
ENDBRANCH  28  29
ENDBRANCH  25  28
ENDBRANCH  21  22
BRANCH  18  32
ATOM     32  O   UNL     1       0.816  -4.864  -4.431  0.00  0.00    -0.495 OA
ATOM     33  H   UNL     1       0.921  -5.511  -3.720  0.00  0.00    +0.293 HD
ENDBRANCH  18  32
TORSDOF 4
