REMARK  Name = ZINC37294711
REMARK  6 active torsions:
REMARK  status: ('A' for Active; 'I' for Inactive)
REMARK    1  A    between atoms: C_1  and  C_2
REMARK    2  A    between atoms: C_2  and  C_3
REMARK    3  A    between atoms: C_9  and  N_11
REMARK    4  A    between atoms: N_11  and  C_12
REMARK    5  A    between atoms: C_12  and  C_14
REMARK    6  A    between atoms: C_12  and  C_19
REMARK                            x       y       z     vdW  Elec       q    Type
REMARK                         _______ _______ _______ _____ _____    ______ ____
ROOT
ATOM      1  C   UNL     1      -0.869  -3.896  -1.324  0.00  0.00    +0.004 C 
ENDROOT
BRANCH   1   2
ATOM      2  C   UNL     1      -2.305  -4.319  -1.496  0.00  0.00    -0.018 A 
ATOM      3  C   UNL     1      -2.808  -5.364  -2.197  0.00  0.00    +0.011 A 
ATOM      4  C   UNL     1      -4.176  -5.563  -2.215  0.00  0.00    +0.028 A 
ATOM      5  C   UNL     1      -4.974  -4.705  -1.531  0.00  0.00    +0.078 A 
ATOM      6  S   UNL     1      -3.783  -3.578  -0.824  0.00  0.00    -0.083 S 
ATOM      7 CL   UNL     1      -6.703  -4.707  -1.376  0.00  0.00    -0.076 Cl
ENDBRANCH   1   2
BRANCH   1   8
ATOM      8  C   UNL     1      -0.357  -4.383   0.007  0.00  0.00    -0.019 A 
ATOM      9  C   UNL     1       0.413  -5.464   0.282  0.00  0.00    +0.010 A 
ATOM     10  C   UNL     1       0.765  -5.720   1.594  0.00  0.00    +0.008 A 
ATOM     11  C   UNL     1       0.330  -4.883   2.567  0.00  0.00    +0.045 A 
ATOM     12  S   UNL     1      -0.603  -3.683   1.630  0.00  0.00    -0.103 S 
ENDBRANCH   1   8
BRANCH   1  13
ATOM     13  N   UNL     1      -0.780  -2.431  -1.376  0.00  0.00    +0.389 N 
ATOM     14  H   UNL     1      -1.271  -2.036  -0.588  0.00  0.00    -0.084 HD
ATOM     15  H   UNL     1      -1.198  -2.099  -2.233  0.00  0.00    -0.084 HD
BRANCH  13  21
ATOM     16  C   UNL     1       0.718  -0.497  -1.257  0.00  0.00    -0.025 C 
ATOM     17  C   UNL     1       2.187  -0.073  -1.207  0.00  0.00    +0.002 C 
ATOM     18  C   UNL     1       2.904  -0.566  -2.466  0.00  0.00    +0.000 C 
ATOM     19  C   UNL     1       2.816  -2.092  -2.538  0.00  0.00    -0.002 C 
ATOM     20  C   UNL     1       1.347  -2.517  -2.587  0.00  0.00    -0.015 C 
ATOM     21  C   UNL     1       0.630  -2.023  -1.329  0.00  0.00    -0.067 C 
BRANCH  16  23
ATOM     22  C   UNL     1      -0.019   1.526   0.010  0.00  0.00    +0.004 C 
ATOM     23  C   UNL     1       0.002  -0.004   0.002  0.00  0.00    -0.002 C 
ENDBRANCH  16  23
ENDBRANCH  13  21
ENDBRANCH   1  13
TORSDOF 5
