REMARK  Name = ZINC34673088
REMARK  6 active torsions:
REMARK  status: ('A' for Active; 'I' for Inactive)
REMARK    1  A    between atoms: C_1  and  C_2
REMARK    2  A    between atoms: C_2  and  N_3
REMARK    3  A    between atoms: N_3  and  C_4
REMARK    4  A    between atoms: C_4  and  C_6
REMARK    5  A    between atoms: C_4  and  C_20
REMARK    6  A    between atoms: C_9  and  C_11
REMARK                            x       y       z     vdW  Elec       q    Type
REMARK                         _______ _______ _______ _____ _____    ______ ____
ROOT
ATOM      1  C   UNL     1      -2.766  -2.502  -0.109  0.00  0.00    -0.023 A 
ATOM      2  C   UNL     1      -3.231  -3.555  -0.828  0.00  0.00    +0.010 A 
ATOM      3  C   UNL     1      -4.575  -3.857  -0.784  0.00  0.00    +0.016 A 
ATOM      4  C   UNL     1      -5.399  -3.081  -0.013  0.00  0.00    +0.022 A 
ATOM      5  S   UNL     1      -4.252  -1.898   0.675  0.00  0.00    -0.095 S 
ENDROOT
BRANCH   4   6
ATOM      6  C   UNL     1      -6.857  -3.196   0.199  0.00  0.00    +0.025 A 
ATOM      7  C   UNL     1      -7.713  -2.187  -0.249  0.00  0.00    +0.052 A 
ATOM      8  C   UNL     1      -9.074  -2.301  -0.048  0.00  0.00    +0.036 A 
ATOM      9  C   UNL     1      -9.591  -3.412   0.596  0.00  0.00    +0.021 A 
ATOM     10  C   UNL     1      -8.748  -4.416   1.043  0.00  0.00    +0.036 A 
ATOM     11  C   UNL     1      -7.386  -4.317   0.844  0.00  0.00    +0.052 A 
ATOM     12 CL   UNL     1      -6.331  -5.580   1.398  0.00  0.00    -0.083 Cl
ATOM     13 BR   UNL     1     -11.457  -3.560   0.867  0.00  0.00    -0.050 Br
ATOM     14 CL   UNL     1      -7.066  -0.793  -1.056  0.00  0.00    -0.083 Cl
ENDBRANCH   4   6
BRANCH   1  15
ATOM     15  C   UNL     1      -1.356  -1.981   0.004  0.00  0.00    -0.031 C 
BRANCH  15  16
ATOM     16  N   UNL     1      -1.376  -0.512   0.012  0.00  0.00    +0.384 N 
ATOM     17  H   UNL     1      -1.848  -0.187   0.843  0.00  0.00    -0.085 HD
ATOM     18  H   UNL     1      -1.864  -0.178  -0.805  0.00  0.00    -0.085 HD
BRANCH  16  20
ATOM     19  C   UNL     1      -0.019   1.526   0.010  0.00  0.00    -0.017 C 
ATOM     20  C   UNL     1       0.002  -0.004   0.002  0.00  0.00    -0.085 C 
ENDBRANCH  16  20
ENDBRANCH  15  16
BRANCH  15  21
ATOM     21  C   UNL     1      -0.727  -2.490   1.303  0.00  0.00    -0.020 C 
ATOM     22  C   UNL     1       0.638  -3.173   1.206  0.00  0.00    +0.002 C 
ATOM     23  C   UNL     1      -0.615  -4.005   1.488  0.00  0.00    +0.002 C 
ENDBRANCH  15  21
ENDBRANCH   1  15
TORSDOF 5
