REMARK  Name = ZINC15716749
REMARK  16 active torsions:
REMARK  status: ('A' for Active; 'I' for Inactive)
REMARK    1  A    between atoms: C_1  and  C_2
REMARK    2  A    between atoms: C_2  and  C_4
REMARK    3  A    between atoms: C_2  and  O_13
REMARK    4  A    between atoms: N_9  and  C_10
REMARK    5  A    between atoms: C_10  and  C_11
REMARK    6  A    between atoms: C_10  and  C_12
REMARK    7  A    between atoms: O_13  and  C_14
REMARK    8  A    between atoms: C_14  and  C_16
REMARK    9  A    between atoms: C_19  and  C_22
REMARK   10  A    between atoms: C_22  and  O_24
REMARK   11  A    between atoms: O_24  and  C_25
REMARK   12  A    between atoms: C_25  and  C_27
REMARK   13  A    between atoms: C_25  and  C_28
REMARK   14  A    between atoms: N_33  and  C_34
REMARK   15  A    between atoms: C_34  and  C_35
REMARK   16  A    between atoms: C_34  and  C_36
REMARK                            x       y       z     vdW  Elec       q    Type
REMARK                         _______ _______ _______ _____ _____    ______ ____
ROOT
ATOM      1  C   UNL     1       0.536  -1.150  -3.521  0.00  0.00    +0.059 A 
ATOM      2  C   UNL     1       1.911  -1.390  -3.569  0.00  0.00    +0.016 A 
ATOM      3  C   UNL     1       2.492  -1.835  -4.736  0.00  0.00    +0.016 A 
ATOM      4  C   UNL     1       1.706  -2.045  -5.871  0.00  0.00    +0.059 A 
ATOM      5  C   UNL     1       0.332  -1.806  -5.823  0.00  0.00    +0.016 A 
ATOM      6  C   UNL     1      -0.250  -1.366  -4.654  0.00  0.00    +0.016 A 
ENDROOT
BRANCH   1   7
ATOM      7  C   UNL     1      -0.088  -0.673  -2.267  0.00  0.00    +0.340 C 
ATOM      8  O   UNL     1      -1.284  -0.469  -2.224  0.00  0.00    -0.245 OA
BRANCH   7   9
ATOM      9  O   UNL     1       0.671  -0.465  -1.174  0.00  0.00    -0.449 OA
BRANCH   9  11
ATOM     10  C   UNL     1      -0.019   1.526   0.010  0.00  0.00    +0.062 C 
ATOM     11  C   UNL     1       0.002  -0.004   0.002  0.00  0.00    +0.259 C 
BRANCH  11  12
ATOM     12  C   UNL     1       0.731  -0.503   1.223  0.00  0.00    +0.261 C 
ATOM     13  O   UNL     1       1.774  -1.109   1.101  0.00  0.00    -0.271 OA
ATOM     14  N   UNL     1       0.223  -0.277   2.451  0.00  0.00    -0.237 N 
ATOM     15  C   UNL     1       0.875  -0.723   3.542  0.00  0.00    +0.306 C 
ATOM     16  O   UNL     1       1.921  -1.330   3.420  0.00  0.00    -0.252 OA
ATOM     17  N   UNL     1       0.367  -0.496   4.770  0.00  0.00    -0.297 N 
ATOM     18  H   UNL     1      -0.611   0.208   2.548  0.00  0.00    +0.159 HD
ATOM     19  H   UNL     1      -0.467  -0.011   4.868  0.00  0.00    +0.151 HD
BRANCH  17  20
ATOM     20  C   UNL     1       1.076  -0.981   5.957  0.00  0.00    +0.068 C 
ATOM     21  C   UNL     1       0.697  -0.121   7.164  0.00  0.00    +0.027 C 
ATOM     22  C   UNL     1       0.685  -2.436   6.225  0.00  0.00    +0.027 C 
ENDBRANCH  17  20
ENDBRANCH  11  12
ENDBRANCH   9  11
ENDBRANCH   7   9
ENDBRANCH   1   7
BRANCH   4  23
ATOM     23  C   UNL     1       2.331  -2.522  -7.125  0.00  0.00    +0.340 C 
ATOM     24  O   UNL     1       3.527  -2.729  -7.167  0.00  0.00    -0.245 OA
BRANCH  23  25
ATOM     25  O   UNL     1       1.573  -2.725  -8.220  0.00  0.00    -0.449 OA
BRANCH  25  26
ATOM     26  C   UNL     1       2.242  -3.185  -9.395  0.00  0.00    +0.259 C 
ATOM     27  C   UNL     1       2.258  -4.715  -9.407  0.00  0.00    +0.062 C 
BRANCH  26  28
ATOM     28  C   UNL     1       1.516  -2.681 -10.616  0.00  0.00    +0.261 C 
ATOM     29  O   UNL     1       0.524  -1.995 -10.492  0.00  0.00    -0.271 OA
ATOM     30  N   UNL     1       1.970  -2.992 -11.846  0.00  0.00    -0.237 N 
ATOM     31  C   UNL     1       1.321  -2.541 -12.938  0.00  0.00    +0.306 C 
ATOM     32  O   UNL     1       0.326  -1.854 -12.813  0.00  0.00    -0.252 OA
ATOM     33  N   UNL     1       1.775  -2.853 -14.168  0.00  0.00    -0.297 N 
ATOM     34  H   UNL     1       2.764  -3.541 -11.946  0.00  0.00    +0.159 HD
ATOM     35  H   UNL     1       2.568  -3.401 -14.268  0.00  0.00    +0.151 HD
BRANCH  33  36
ATOM     36  C   UNL     1       1.069  -2.362 -15.355  0.00  0.00    +0.068 C 
ATOM     37  C   UNL     1       2.042  -2.292 -16.534  0.00  0.00    +0.027 C 
ATOM     38  C   UNL     1      -0.078  -3.316 -15.697  0.00  0.00    +0.027 C 
ENDBRANCH  33  36
ENDBRANCH  26  28
ENDBRANCH  25  26
ENDBRANCH  23  25
ENDBRANCH   4  23
TORSDOF 10
