REMARK  Name = ZINC12491429
REMARK  14 active torsions:
REMARK  status: ('A' for Active; 'I' for Inactive)
REMARK    1  A    between atoms: C_1  and  C_2
REMARK    2  A    between atoms: C_2  and  C_3
REMARK    3  A    between atoms: C_3  and  C_4
REMARK    4  A    between atoms: C_3  and  C_5
REMARK    5  A    between atoms: C_3  and  N_6
REMARK    6  A    between atoms: C_7  and  C_9
REMARK    7  A    between atoms: C_9  and  C_11
REMARK    8  A    between atoms: C_9  and  N_18
REMARK    9  A    between atoms: N_18  and  C_19
REMARK   10  A    between atoms: C_23  and  C_25
REMARK   11  A    between atoms: C_26  and  C_28
REMARK   12  A    between atoms: C_28  and  C_29
REMARK   13  A    between atoms: C_29  and  C_30
REMARK   14  A    between atoms: C_35  and  C_38
REMARK                            x       y       z     vdW  Elec       q    Type
REMARK                         _______ _______ _______ _____ _____    ______ ____
ROOT
ATOM      1  N   UNL     1      -6.042  -3.091  -0.245  0.00  0.00    -0.255 N 
ATOM      2  C   UNL     1      -5.979  -1.745  -0.257  0.00  0.00    +0.221 C 
ATOM      3  O   UNL     1      -6.989  -1.092  -0.413  0.00  0.00    -0.275 OA
ENDROOT
BRANCH   1   4
ATOM      4  C   UNL     1      -4.896  -3.842   0.038  0.00  0.00    +0.038 A 
ATOM      5  C   UNL     1      -3.874  -3.932  -0.899  0.00  0.00    +0.023 A 
ATOM      6  C   UNL     1      -2.742  -4.670  -0.615  0.00  0.00    +0.002 A 
ATOM      7  C   UNL     1      -2.629  -5.328   0.597  0.00  0.00    +0.003 A 
ATOM      8  C   UNL     1      -3.647  -5.245   1.529  0.00  0.00    -0.049 A 
ATOM      9  C   UNL     1      -4.780  -4.504   1.253  0.00  0.00    +0.027 A 
ATOM     10  C   UNL     1      -3.520  -5.963   2.848  0.00  0.00    +0.044 C 
ENDBRANCH   1   4
BRANCH   1  11
ATOM     11  C   UNL     1      -7.310  -3.768  -0.528  0.00  0.00    +0.199 C 
BRANCH  11  12
ATOM     12  C   UNL     1      -7.639  -4.710   0.601  0.00  0.00    +0.000 A 
ATOM     13  C   UNL     1      -7.417  -6.066   0.458  0.00  0.00    +0.007 A 
ATOM     14  C   UNL     1      -7.720  -6.930   1.493  0.00  0.00    +0.000 A 
ATOM     15  C   UNL     1      -8.244  -6.438   2.674  0.00  0.00    +0.001 A 
ATOM     16  C   UNL     1      -8.467  -5.082   2.819  0.00  0.00    +0.020 A 
ATOM     17  C   UNL     1      -8.159  -4.216   1.784  0.00  0.00    +0.046 A 
ATOM     18 CL   UNL     1      -8.431  -2.511   1.968  0.00  0.00    -0.083 Cl
ENDBRANCH  11  12
BRANCH  11  20
ATOM     19  N   UNL     1      -8.289  -5.059  -2.398  0.00  0.00    -0.308 N 
ATOM     20  C   UNL     1      -7.188  -4.547  -1.812  0.00  0.00    +0.239 C 
ATOM     21  O   UNL     1      -6.098  -4.714  -2.319  0.00  0.00    -0.273 OA
ATOM     22  H   UNL     1      -9.166  -4.866  -2.032  0.00  0.00    +0.149 HD
BRANCH  19  23
ATOM     23  C   UNL     1      -8.160  -5.906  -3.586  0.00  0.00    +0.029 C 
ATOM     24  C   UNL     1      -7.480  -5.114  -4.705  0.00  0.00    +0.031 C 
ATOM     25  C   UNL     1      -7.317  -7.136  -3.246  0.00  0.00    +0.031 C 
BRANCH  23  27
ATOM     26  C   UNL     1      -9.415  -7.236  -5.288  0.00  0.00    +0.006 C 
ATOM     27  C   UNL     1      -9.549  -6.351  -4.047  0.00  0.00    +0.022 C 
ENDBRANCH  23  27
ENDBRANCH  19  23
ENDBRANCH  11  20
ENDBRANCH   1  11
BRANCH   2  28
ATOM     28  C   UNL     1      -4.654  -1.051  -0.078  0.00  0.00    +0.105 C 
BRANCH  28  29
ATOM     29  C   UNL     1      -4.849   0.462  -0.201  0.00  0.00    +0.105 C 
BRANCH  29  30
ATOM     30  C   UNL     1      -3.524   1.156  -0.021  0.00  0.00    +0.219 C 
ATOM     31  O   UNL     1      -2.522   0.505   0.184  0.00  0.00    -0.275 OA
ATOM     32  N   UNL     1      -3.453   2.500  -0.089  0.00  0.00    -0.268 N 
ATOM     33  C   UNL     1      -2.226   3.143   0.076  0.00  0.00    +0.168 A 
ATOM     34  C   UNL     1      -0.969   2.530   0.322  0.00  0.00    +0.091 A 
ATOM     35  C   UNL     1      -0.108   3.571   0.398  0.00  0.00    +0.136 A 
ATOM     36  O   UNL     1      -0.834   4.683   0.213  0.00  0.00    -0.358 OA
ATOM     37  N   UNL     1      -2.003   4.431   0.041  0.00  0.00    -0.063 NA
ATOM     38  C   UNL     1       1.378   3.494   0.641  0.00  0.00    +0.089 C 
ATOM     39  H   UNL     1      -4.255   3.021  -0.254  0.00  0.00    +0.156 HD
ENDBRANCH  29  30
ENDBRANCH  28  29
ENDBRANCH   2  28
TORSDOF 9
