REMARK  Name = ZINC65259950
REMARK  6 active torsions:
REMARK  status: ('A' for Active; 'I' for Inactive)
REMARK    1  A    between atoms: C_1  and  O_2
REMARK    2  A    between atoms: O_2  and  C_3
REMARK    3  A    between atoms: C_6  and  C_11
REMARK    4  A    between atoms: C_7  and  O_9
REMARK    5  A    between atoms: O_9  and  C_10
REMARK    6  A    between atoms: N_28  and  C_29
REMARK                            x       y       z     vdW  Elec       q    Type
REMARK                         _______ _______ _______ _____ _____    ______ ____
ROOT
ATOM      1  C   UNL     1      -4.952  -2.524   0.035  0.00  0.00    +0.252 C 
ATOM      2  O   UNL     1      -5.952  -1.842   0.150  0.00  0.00    -0.270 OA
ATOM      3  N   UNL     1      -5.058  -3.863  -0.068  0.00  0.00    -0.295 N 
ATOM      4  C   UNL     1      -3.858  -4.712  -0.073  0.00  0.00    +0.108 C 
ATOM      5  C   UNL     1      -4.002  -5.778   1.017  0.00  0.00    +0.021 C 
ATOM      6  C   UNL     1      -5.310  -6.545   0.806  0.00  0.00    +0.036 C 
ATOM      7  C   UNL     1      -6.491  -5.582   0.901  0.00  0.00    +0.102 C 
ATOM      8  C   UNL     1      -6.376  -4.505  -0.171  0.00  0.00    +0.141 C 
ATOM      9  C   UNL     1      -7.787  -6.344   0.720  0.00  0.00    +0.098 C 
ATOM     10  N   UNL     1      -8.152  -7.193   1.749  0.00  0.00    -0.301 N 
ATOM     11  C   UNL     1      -7.901  -6.768   3.065  0.00  0.00    +0.053 A 
ATOM     12  C   UNL     1      -8.468  -7.448   4.131  0.00  0.00    +0.025 A 
ATOM     13  C   UNL     1      -8.217  -7.034   5.426  0.00  0.00    +0.002 A 
ATOM     14  C   UNL     1      -7.399  -5.944   5.661  0.00  0.00    +0.002 A 
ATOM     15  C   UNL     1      -6.832  -5.259   4.603  0.00  0.00    +0.025 A 
ATOM     16  C   UNL     1      -7.082  -5.665   3.301  0.00  0.00    +0.049 A 
ATOM     17  N   UNL     1      -6.521  -4.955   2.229  0.00  0.00    -0.329 N 
ATOM     18  N   UNL     1      -8.514  -6.208  -0.341  0.00  0.00    -0.372 N 
ATOM     19  H   UNL     1      -6.158  -4.065   2.363  0.00  0.00    +0.147 HD
ATOM     20  H   UNL     1      -8.234  -5.605  -1.047  0.00  0.00    +0.161 HD
ATOM     21  H   UNL     1      -8.567  -8.051   1.569  0.00  0.00    +0.153 HD
ENDROOT
BRANCH   1  25
ATOM     22  C   UNL     1      -1.182  -0.665   0.027  0.00  0.00    +0.218 A 
ATOM     23  C   UNL     1      -1.501  -1.518  -1.026  0.00  0.00    +0.068 A 
ATOM     24  C   UNL     1      -2.733  -2.140  -1.044  0.00  0.00    +0.023 A 
ATOM     25  C   UNL     1      -3.624  -1.886   0.008  0.00  0.00    +0.098 A 
ATOM     26  C   UNL     1      -3.232  -1.014   1.035  0.00  0.00    +0.230 A 
ATOM     27  N   UNL     1      -2.038  -0.446   1.012  0.00  0.00    -0.177 NA
BRANCH  22  29
ATOM     28  C   UNL     1       0.303   0.805   1.154  0.00  0.00    +0.279 C 
ATOM     29  O   UNL     1       0.028  -0.055   0.046  0.00  0.00    -0.480 OA
ENDBRANCH  22  29
BRANCH  26  30
ATOM     30  O   UNL     1      -4.079  -0.756   2.059  0.00  0.00    -0.479 OA
ATOM     31  C   UNL     1      -3.619   0.140   3.072  0.00  0.00    +0.279 C 
ENDBRANCH  26  30
ENDBRANCH   1  25
BRANCH  18  32
ATOM     32  C   UNL     1      -9.761  -6.965  -0.476  0.00  0.00    +0.080 C 
ATOM     33  C   UNL     1      -9.477  -8.342  -1.111  0.00  0.00    +0.024 C 
ATOM     34  C   UNL     1     -10.698  -8.595  -2.030  0.00  0.00    +0.002 C 
ATOM     35  C   UNL     1     -10.989  -7.188  -2.609  0.00  0.00    +0.002 C 
ATOM     36  C   UNL     1     -10.722  -6.231  -1.428  0.00  0.00    +0.024 C 
ENDBRANCH  18  32
TORSDOF 4
