REMARK  Name = ZINC08695242
REMARK  17 active torsions:
REMARK  status: ('A' for Active; 'I' for Inactive)
REMARK    1  A    between atoms: C_1  and  C_2
REMARK    2  A    between atoms: C_2  and  C_3
REMARK    3  A    between atoms: C_3  and  C_4
REMARK    4  A    between atoms: C_4  and  N_71
REMARK    5  A    between atoms: C_5  and  C_6
REMARK    6  A    between atoms: C_5  and  N_71
REMARK    7  A    between atoms: C_6  and  C_7
REMARK    8  A    between atoms: C_7  and  C_8
REMARK    9  A    between atoms: C_9  and  C_10
REMARK   10  A    between atoms: C_9  and  N_71
REMARK   11  A    between atoms: C_10  and  C_11
REMARK   12  A    between atoms: C_11  and  N_12
REMARK   13  A    between atoms: C_13  and  C_29
REMARK   14  A    between atoms: C_15  and  C_20
REMARK   15  A    between atoms: C_16  and  O_19
REMARK   16  A    between atoms: C_20  and  C_22
REMARK   17  A    between atoms: C_25  and  C_28
REMARK                            x       y       z     vdW  Elec       q    Type
REMARK                         _______ _______ _______ _____ _____    ______ ____
ROOT
ATOM      1  N   UNL     1      -1.995   3.173   0.911  0.00  0.00    -0.284 N 
ATOM      2  C   UNL     1      -1.688   1.891   0.267  0.00  0.00    +0.146 C 
ATOM      3  C   UNL     1      -2.080   2.043  -1.184  0.00  0.00    +0.071 C 
ATOM      4  C   UNL     1      -2.561   3.300  -1.329  0.00  0.00    +0.188 C 
ATOM      5  C   UNL     1      -2.505   3.994  -0.025  0.00  0.00    +0.282 C 
ATOM      6  O   UNL     1      -2.866   5.138   0.172  0.00  0.00    -0.267 OA
ENDROOT
BRANCH   2   7
ATOM      7  C   UNL     1      -0.215   1.595   0.378  0.00  0.00    -0.004 A 
ATOM      8  C   UNL     1       0.222   0.342   0.781  0.00  0.00    +0.009 A 
ATOM      9  C   UNL     1       1.586   0.116   0.873  0.00  0.00    +0.020 A 
ATOM     10  C   UNL     1       2.461   1.137   0.551  0.00  0.00    +0.111 A 
ATOM     11  N   UNL     1       2.010   2.315   0.167  0.00  0.00    -0.263 NA
ATOM     12  C   UNL     1       0.719   2.567   0.073  0.00  0.00    +0.116 A 
ENDBRANCH   2   7
BRANCH   4  13
ATOM     13  O   UNL     1      -3.019   3.835  -2.484  0.00  0.00    -0.502 OA
ATOM     14  H   UNL     1      -3.316   4.776  -2.320  0.00  0.00    +0.292 HD
ENDBRANCH   4  13
BRANCH   3  15
ATOM     15  C   UNL     1      -1.962   1.025  -2.233  0.00  0.00    +0.195 C 
ATOM     16  O   UNL     1      -1.184   1.188  -3.154  0.00  0.00    -0.287 OA
BRANCH  15  17
ATOM     17  C   UNL     1      -2.789  -0.199  -2.171  0.00  0.00    +0.022 A 
ATOM     18  C   UNL     1      -3.758  -0.342  -1.175  0.00  0.00    +0.012 A 
ATOM     19  C   UNL     1      -4.529  -1.484  -1.127  0.00  0.00    +0.004 A 
ATOM     20  C   UNL     1      -4.336  -2.493  -2.054  0.00  0.00    -0.050 A 
ATOM     21  C   UNL     1      -3.374  -2.361  -3.040  0.00  0.00    +0.004 A 
ATOM     22  C   UNL     1      -2.600  -1.221  -3.104  0.00  0.00    +0.012 A 
ATOM     23  C   UNL     1      -5.178  -3.741  -1.991  0.00  0.00    +0.044 C 
ENDBRANCH  15  17
ENDBRANCH   3  15
BRANCH   1  24
ATOM     24  C   UNL     1      -1.784   3.502   2.323  0.00  0.00    +0.107 C 
BRANCH  24  25
ATOM     25  C   UNL     1      -0.383   4.088   2.506  0.00  0.00    +0.000 C 
BRANCH  25  26
ATOM     26  C   UNL     1      -0.162   4.431   3.981  0.00  0.00    -0.077 C 
BRANCH  26  27
ATOM     27  N   UNL     1       1.202   4.976   4.145  0.00  0.00    +0.380 N 
ATOM     28  H   UNL     1       1.873   4.329   3.715  0.00  0.00    -0.082 HD
BRANCH  27  29
ATOM     29  C   UNL     1       1.305   6.289   3.475  0.00  0.00    -0.079 C 
BRANCH  29  30
ATOM     30  C   UNL     1       0.316   7.283   4.087  0.00  0.00    -0.019 C 
BRANCH  30  32
ATOM     31  C   UNL     1      -0.550   9.625   3.986  0.00  0.00    +0.004 C 
ATOM     32  C   UNL     1       0.439   8.631   3.373  0.00  0.00    -0.005 C 
ENDBRANCH  30  32
ENDBRANCH  29  30
ENDBRANCH  27  29
BRANCH  27  33
ATOM     33  C   UNL     1       1.521   5.115   5.581  0.00  0.00    -0.079 C 
BRANCH  33  34
ATOM     34  C   UNL     1       3.009   5.442   5.727  0.00  0.00    -0.019 C 
BRANCH  34  35
ATOM     35  C   UNL     1       3.374   5.505   7.211  0.00  0.00    -0.005 C 
ATOM     36  C   UNL     1       4.862   5.832   7.356  0.00  0.00    +0.004 C 
ENDBRANCH  34  35
ENDBRANCH  33  34
ENDBRANCH  27  33
ENDBRANCH  26  27
ENDBRANCH  25  26
ENDBRANCH  24  25
ENDBRANCH   1  24
TORSDOF 14
