REMARK  Name = ZINC20190116
REMARK  17 active torsions:
REMARK  status: ('A' for Active; 'I' for Inactive)
REMARK    1  A    between atoms: C_1  and  C_2
REMARK    2  A    between atoms: C_2  and  O_3
REMARK    3  A    between atoms: O_3  and  C_4
REMARK    4  A    between atoms: C_9  and  C_10
REMARK    5  A    between atoms: C_10  and  N_11
REMARK    6  A    between atoms: N_11  and  C_12
REMARK    7  A    between atoms: N_11  and  C_22
REMARK    8  A    between atoms: C_14  and  C_20
REMARK    9  A    between atoms: C_14  and  C_21
REMARK   10  A    between atoms: C_16  and  C_18
REMARK   11  A    between atoms: C_16  and  C_19
REMARK   12  A    between atoms: C_22  and  N_24
REMARK   13  A    between atoms: N_24  and  C_25
REMARK   14  A    between atoms: C_29  and  C_34
REMARK   15  A    between atoms: C_30  and  C_31
REMARK   16  A    between atoms: C_31  and  C_32
REMARK   17  A    between atoms: C_31  and  C_33
REMARK                            x       y       z     vdW  Elec       q    Type
REMARK                         _______ _______ _______ _____ _____    ______ ____
ROOT
ATOM      1  N   UNL     1      -0.553   5.057  -1.032  0.00  0.00    -0.305 N 
ENDROOT
BRANCH   1   2
ATOM      2  C   UNL     1      -0.348   3.619  -1.251  0.00  0.00    +0.073 C 
ATOM      3  C   UNL     1       0.880   3.161  -0.467  0.00  0.00    +0.009 C 
ATOM      4  C   UNL     1       1.105   1.663  -0.660  0.00  0.00    -0.072 C 
ATOM      5  N   UNL     1      -0.093   0.880  -0.443  0.00  0.00    +0.386 N 
ATOM      6  C   UNL     1      -1.372   1.352  -0.930  0.00  0.00    -0.072 C 
ATOM      7  C   UNL     1      -1.567   2.853  -0.737  0.00  0.00    +0.009 C 
ATOM      8  C   UNL     1      -1.567   0.996  -2.409  0.00  0.00    -0.010 C 
ATOM      9  C   UNL     1      -2.486   0.632  -0.137  0.00  0.00    -0.010 C 
ATOM     10  C   UNL     1       2.168   1.216   0.368  0.00  0.00    -0.010 C 
ATOM     11  C   UNL     1       1.689   1.408  -2.055  0.00  0.00    -0.010 C 
ATOM     12  H   UNL     1       0.022  -0.106  -0.919  0.00  0.00    -0.084 HD
ATOM     13  H   UNL     1      -0.255   0.749   0.637  0.00  0.00    -0.084 HD
ENDBRANCH   1   2
BRANCH   1  14
ATOM     14  C   UNL     1      -0.670   5.538   0.221  0.00  0.00    +0.138 C 
ATOM     15  S   UNL     1      -0.912   7.213   0.476  0.00  0.00    -0.018 S 
BRANCH  14  16
ATOM     16  N   UNL     1      -0.597   4.700   1.274  0.00  0.00    -0.296 N 
ATOM     17  H   UNL     1      -0.534   3.614   1.109  0.00  0.00    +0.154 HD
BRANCH  16  18
ATOM     18  C   UNL     1      -0.601   5.210   2.576  0.00  0.00    +0.036 A 
ATOM     19  C   UNL     1       0.202   6.297   2.900  0.00  0.00    +0.023 A 
ATOM     20  C   UNL     1       0.195   6.799   4.186  0.00  0.00    +0.002 A 
ATOM     21  C   UNL     1      -0.610   6.221   5.152  0.00  0.00    +0.004 A 
ATOM     22  C   UNL     1      -1.410   5.140   4.833  0.00  0.00    -0.045 A 
ATOM     23  C   UNL     1      -1.411   4.636   3.546  0.00  0.00    -0.021 A 
ATOM     24  C   UNL     1      -2.285   4.514   5.888  0.00  0.00    +0.044 C 
BRANCH  23  25
ATOM     25  C   UNL     1      -2.288   3.461   3.198  0.00  0.00    +0.015 C 
ATOM     26  C   UNL     1      -3.138   3.804   1.972  0.00  0.00    +0.012 C 
ATOM     27  C   UNL     1      -1.413   2.246   2.887  0.00  0.00    +0.012 C 
ENDBRANCH  23  25
ENDBRANCH  16  18
ENDBRANCH  14  16
ENDBRANCH   1  14
BRANCH   1  28
ATOM     28  C   UNL     1      -0.630   5.968  -2.177  0.00  0.00    +0.145 C 
BRANCH  28  34
ATOM     29  C   UNL     1      -3.011   6.750  -2.229  0.00  0.00    +0.125 A 
ATOM     30  C   UNL     1      -4.290   6.719  -2.766  0.00  0.00    +0.046 A 
ATOM     31  C   UNL     1      -4.577   5.868  -3.816  0.00  0.00    +0.004 A 
ATOM     32  C   UNL     1      -3.589   5.051  -4.334  0.00  0.00    +0.001 A 
ATOM     33  C   UNL     1      -2.313   5.083  -3.804  0.00  0.00    +0.009 A 
ATOM     34  C   UNL     1      -2.021   5.933  -2.755  0.00  0.00    +0.011 A 
BRANCH  29  35
ATOM     35  O   UNL     1      -2.728   7.583  -1.194  0.00  0.00    -0.492 OA
BRANCH  35  37
ATOM     36  C   UNL     1      -3.292   9.260   0.453  0.00  0.00    +0.048 C 
ATOM     37  C   UNL     1      -3.797   8.396  -0.704  0.00  0.00    +0.225 C 
ENDBRANCH  35  37
ENDBRANCH  29  35
ENDBRANCH  28  34
ENDBRANCH   1  28
TORSDOF 9
