REMARK  Name = ZINC17397910
REMARK  11 active torsions:
REMARK  status: ('A' for Active; 'I' for Inactive)
REMARK    1  A    between atoms: C_1  and  C_2
REMARK    2  A    between atoms: C_2  and  C_3
REMARK    3  A    between atoms: C_3  and  C_4
REMARK    4  A    between atoms: C_4  and  C_5
REMARK    5  A    between atoms: C_5  and  N_6
REMARK    6  A    between atoms: C_15  and  C_17
REMARK    7  A    between atoms: N_19  and  N_20
REMARK    8  A    between atoms: C_21  and  C_23
REMARK    9  A    between atoms: C_23  and  N_24
REMARK   10  A    between atoms: C_27  and  C_31
REMARK   11  A    between atoms: C_27  and  C_32
REMARK                            x       y       z     vdW  Elec       q    Type
REMARK                         _______ _______ _______ _____ _____    ______ ____
ROOT
ATOM      1  C   UNL     1       3.705   3.339  -0.014  0.00  0.00    +0.281 C 
ATOM      2  O   UNL     1       3.794   2.126  -0.022  0.00  0.00    -0.267 OA
ATOM      3  N   UNL     1       4.820   4.096  -0.021  0.00  0.00    -0.229 N 
ATOM      4  H   UNL     1       4.750   5.063  -0.015  0.00  0.00    +0.173 HD
ENDROOT
BRANCH   1  14
ATOM      5  N   UNL     1       1.160   5.922   0.024  0.00  0.00    -0.228 N 
ATOM      6  C   UNL     1      -0.044   5.314   0.032  0.00  0.00    +0.275 A 
ATOM      7  O   UNL     1      -1.071   5.967   0.044  0.00  0.00    -0.266 OA
ATOM      8  C   UNL     1      -0.086   3.845   0.024  0.00  0.00    +0.050 A 
ATOM      9  C   UNL     1      -1.275   3.123   0.031  0.00  0.00    +0.014 A 
ATOM     10  C   UNL     1      -1.229   1.745   0.017  0.00  0.00    +0.001 A 
ATOM     11  C   UNL     1      -0.013   1.076   0.008  0.00  0.00    +0.001 A 
ATOM     12  C   UNL     1       1.177   1.773   0.000  0.00  0.00    +0.011 A 
ATOM     13  C   UNL     1       1.153   3.164   0.008  0.00  0.00    +0.020 A 
ATOM     14  C   UNL     1       2.376   3.982   0.001  0.00  0.00    +0.155 A 
ATOM     15  N   UNL     1       2.272   5.289   0.009  0.00  0.00    -0.163 NA
BRANCH   5  16
ATOM     16  C   UNL     1       1.197   7.387   0.032  0.00  0.00    +0.147 C 
BRANCH  16  17
ATOM     17  C   UNL     1       1.224   7.888   1.477  0.00  0.00    +0.023 C 
BRANCH  17  18
ATOM     18  C   UNL     1       1.262   9.418   1.485  0.00  0.00    +0.002 C 
BRANCH  18  20
ATOM     19  C   UNL     1       1.327  11.449   2.939  0.00  0.00    +0.004 C 
ATOM     20  C   UNL     1       1.289   9.919   2.931  0.00  0.00    -0.003 C 
ENDBRANCH  18  20
ENDBRANCH  17  18
ENDBRANCH  16  17
ENDBRANCH   5  16
ENDBRANCH   1  14
BRANCH   3  21
ATOM     21  N   UNL     1       6.081   3.486  -0.035  0.00  0.00    -0.233 N 
ATOM     22  C   UNL     1       7.196   4.243  -0.042  0.00  0.00    +0.247 C 
ATOM     23  O   UNL     1       7.108   5.452  -0.034  0.00  0.00    -0.273 OA
ATOM     24  H   UNL     1       6.152   2.518  -0.041  0.00  0.00    +0.173 HD
BRANCH  22  25
ATOM     25  C   UNL     1       8.553   3.587  -0.058  0.00  0.00    +0.215 C 
BRANCH  25  26
ATOM     26  N   UNL     1       9.594   4.617  -0.061  0.00  0.00    -0.215 N 
ATOM     27  C   UNL     1      10.142   5.144   1.051  0.00  0.00    +0.247 C 
ATOM     28  O   UNL     1       9.876   4.865   2.201  0.00  0.00    -0.273 OA
ATOM     29  C   UNL     1      11.160   6.157   0.567  0.00  0.00    +0.113 C 
ATOM     30  N   UNL     1      11.057   6.076  -0.901  0.00  0.00    -0.285 N 
ATOM     31  C   UNL     1      10.122   5.148  -1.170  0.00  0.00    +0.310 C 
ATOM     32  O   UNL     1       9.791   4.829  -2.296  0.00  0.00    -0.252 OA
ATOM     33  C   UNL     1      12.566   5.773   1.033  0.00  0.00    +0.042 C 
ATOM     34  H   UNL     1      11.568   6.589  -1.546  0.00  0.00    +0.151 HD
BRANCH  29  35
ATOM     35  C   UNL     1      10.797   7.561   1.055  0.00  0.00    +0.021 C 
ATOM     36  C   UNL     1      10.344   8.578   0.006  0.00  0.00    +0.006 C 
ATOM     37  C   UNL     1      11.724   8.710   0.654  0.00  0.00    +0.006 C 
ENDBRANCH  29  35
ENDBRANCH  25  26
ENDBRANCH  22  25
ENDBRANCH   3  21
TORSDOF 9
