REMARK  Name = ZINC64623251
REMARK  10 active torsions:
REMARK  status: ('A' for Active; 'I' for Inactive)
REMARK    1  A    between atoms: C_1  and  C_2
REMARK    2  A    between atoms: C_2  and  O_3
REMARK    3  A    between atoms: O_3  and  C_4
REMARK    4  A    between atoms: C_4  and  C_6
REMARK    5  A    between atoms: C_6  and  C_7
REMARK    6  A    between atoms: C_10  and  N_13
REMARK    7  A    between atoms: C_22  and  O_38
REMARK    8  A    between atoms: C_29  and  C_31
REMARK    9  A    between atoms: C_34  and  C_37
REMARK   10  A    between atoms: O_38  and  C_39
REMARK                            x       y       z     vdW  Elec       q    Type
REMARK                         _______ _______ _______ _____ _____    ______ ____
ROOT
ATOM      1  N   UNL     1      -2.772  -8.680  -0.511  0.00  0.00    -0.269 N 
ATOM      2  C   UNL     1      -2.484  -9.083   0.742  0.00  0.00    +0.307 C 
ATOM      3  O   UNL     1      -2.381  -8.264   1.635  0.00  0.00    -0.252 OA
ATOM      4  N   UNL     1      -2.310 -10.393   1.006  0.00  0.00    -0.276 N 
ATOM      5  C   UNL     1      -2.312 -11.361  -0.096  0.00  0.00    +0.114 C 
ATOM      6  C   UNL     1      -3.409 -12.414   0.149  0.00  0.00    +0.052 C 
ATOM      7  C   UNL     1      -3.293 -12.831   1.595  0.00  0.00    -0.035 C 
ATOM      8  C   UNL     1      -3.196 -14.028   2.157  0.00  0.00    +0.003 A 
ATOM      9  C   UNL     1      -3.275 -15.386   1.597  0.00  0.00    +0.055 A 
ATOM     10  C   UNL     1      -3.109 -16.418   2.471  0.00  0.00    +0.121 A 
ATOM     11  C   UNL     1      -2.874 -16.252   3.844  0.00  0.00    +0.047 A 
ATOM     12  C   UNL     1      -2.792 -15.048   4.465  0.00  0.00    +0.029 A 
ATOM     13  C   UNL     1      -2.962 -13.855   3.624  0.00  0.00    +0.043 A 
ATOM     14  N   UNL     1      -2.957 -12.595   3.939  0.00  0.00    -0.375 N 
ATOM     15  C   UNL     1      -3.246 -11.818   2.733  0.00  0.00    +0.131 C 
ATOM     16  C   UNL     1      -2.113 -10.836   2.395  0.00  0.00    +0.134 C 
ATOM     17  H   UNL     1      -2.921  -9.337  -1.210  0.00  0.00    +0.156 HD
ATOM     18  H   UNL     1      -2.789 -12.231   4.822  0.00  0.00    +0.160 HD
ENDROOT
BRANCH  16  19
ATOM     19  C   UNL     1      -0.779 -11.526   2.527  0.00  0.00    -0.025 A 
ATOM     20  C   UNL     1      -0.428 -12.527   1.641  0.00  0.00    +0.006 A 
ATOM     21  C   UNL     1       0.795 -13.159   1.762  0.00  0.00    +0.004 A 
ATOM     22  C   UNL     1       1.667 -12.790   2.769  0.00  0.00    -0.050 A 
ATOM     23  C   UNL     1       1.317 -11.788   3.654  0.00  0.00    +0.004 A 
ATOM     24  C   UNL     1       0.095 -11.153   3.531  0.00  0.00    +0.006 A 
ATOM     25  C   UNL     1       3.001 -13.480   2.901  0.00  0.00    +0.044 C 
ENDBRANCH  16  19
BRANCH   1  29
ATOM     26  C   UNL     1      -3.030  -4.615  -1.387  0.00  0.00    -0.037 A 
ATOM     27  C   UNL     1      -2.777  -5.524  -2.398  0.00  0.00    +0.006 A 
ATOM     28  C   UNL     1      -2.691  -6.872  -2.111  0.00  0.00    +0.023 A 
ATOM     29  C   UNL     1      -2.858  -7.315  -0.805  0.00  0.00    +0.035 A 
ATOM     30  C   UNL     1      -3.112  -6.400   0.208  0.00  0.00    +0.023 A 
ATOM     31  C   UNL     1      -3.191  -5.052  -0.085  0.00  0.00    +0.006 A 
BRANCH  26  32
ATOM     32  C   UNL     1      -3.123  -3.145  -1.703  0.00  0.00    +0.155 C 
BRANCH  32  33
ATOM     33  C   UNL     1      -1.756  -2.519  -1.590  0.00  0.00    +0.311 C 
ATOM     34  O   UNL     1      -0.805  -3.197  -1.283  0.00  0.00    -0.250 OA
BRANCH  33  35
ATOM     35  O   UNL     1      -1.597  -1.208  -1.829  0.00  0.00    -0.465 OA
BRANCH  35  37
ATOM     36  C   UNL     1      -0.290   0.817  -2.012  0.00  0.00    +0.048 C 
ATOM     37  C   UNL     1      -0.274  -0.682  -1.703  0.00  0.00    +0.229 C 
ENDBRANCH  35  37
ENDBRANCH  33  35
ENDBRANCH  32  33
ENDBRANCH  26  32
ENDBRANCH   1  29
BRANCH  10  38
ATOM     38  O   UNL     1      -3.177 -17.684   1.983  0.00  0.00    -0.495 OA
ATOM     39  C   UNL     1      -3.000 -18.750   2.918  0.00  0.00    +0.277 C 
ENDBRANCH  10  38
TORSDOF 7
