REMARK  Name = ZINC64392499
REMARK  7 active torsions:
REMARK  status: ('A' for Active; 'I' for Inactive)
REMARK    1  A    between atoms: C_1  and  C_2
REMARK    2  A    between atoms: C_5  and  C_8
REMARK    3  A    between atoms: C_10  and  C_14
REMARK    4  A    between atoms: N_24  and  C_27
REMARK    5  A    between atoms: C_27  and  C_28
REMARK    6  A    between atoms: C_31  and  O_34
REMARK    7  A    between atoms: O_34  and  C_35
REMARK                            x       y       z     vdW  Elec       q    Type
REMARK                         _______ _______ _______ _____ _____    ______ ____
ROOT
ATOM      1  C   UNL     1      -1.573  -7.109   0.384  0.00  0.00    +0.006 A 
ATOM      2  C   UNL     1      -2.677  -6.398  -0.062  0.00  0.00    +0.009 A 
ATOM      3  C   UNL     1      -3.893  -7.027  -0.222  0.00  0.00    +0.016 A 
ATOM      4  C   UNL     1      -4.008  -8.385   0.067  0.00  0.00    +0.063 A 
ATOM      5  C   UNL     1      -2.888  -9.104   0.519  0.00  0.00    +0.056 A 
ATOM      6  C   UNL     1      -1.671  -8.456   0.669  0.00  0.00    +0.034 A 
ATOM      7  N   UNL     1      -3.031 -10.456   0.799  0.00  0.00    -0.307 N 
ATOM      8  H   UNL     1      -2.267 -10.965   1.112  0.00  0.00    +0.170 HD
ATOM      9  C   UNL     1      -4.218 -11.066   0.641  0.00  0.00    +0.330 A 
ATOM     10  O   UNL     1      -4.302 -12.251   0.898  0.00  0.00    -0.246 OA
ATOM     11  N   UNL     1      -5.316 -10.422   0.213  0.00  0.00    -0.256 N 
ATOM     12  C   UNL     1      -5.284  -9.106  -0.087  0.00  0.00    +0.265 A 
ATOM     13  O   UNL     1      -6.282  -8.530  -0.475  0.00  0.00    -0.267 OA
ENDROOT
BRANCH   1  16
ATOM     14  C   UNL     1       0.059  -4.253  -0.021  0.00  0.00    +0.134 C 
ATOM     15  N   UNL     1      -0.467  -4.996   0.903  0.00  0.00    -0.339 N 
ATOM     16  C   UNL     1      -0.251  -6.405   0.553  0.00  0.00    +0.274 C 
ATOM     17  O   UNL     1       0.467  -6.386  -0.690  0.00  0.00    -0.243 OA
ATOM     18  N   UNL     1       0.631  -5.014  -1.011  0.00  0.00    -0.247 N 
ATOM     19  H   UNL     1       1.078  -4.669  -1.800  0.00  0.00    +0.196 HD
ATOM     20  H   UNL     1      -0.926  -4.674   1.694  0.00  0.00    +0.164 HD
BRANCH  14  25
ATOM     21  C   UNL     1      -0.018   1.503   0.010  0.00  0.00    +0.044 C 
ATOM     22  C   UNL     1       0.002  -0.004   0.002  0.00  0.00    -0.050 A 
ATOM     23  C   UNL     1       0.006  -0.686  -1.201  0.00  0.00    +0.004 A 
ATOM     24  C   UNL     1       0.024  -2.066  -1.216  0.00  0.00    +0.012 A 
ATOM     25  C   UNL     1       0.040  -2.773  -0.013  0.00  0.00    +0.017 A 
ATOM     26  C   UNL     1       0.036  -2.079   1.197  0.00  0.00    +0.012 A 
ATOM     27  C   UNL     1       0.023  -0.699   1.198  0.00  0.00    +0.004 A 
ENDBRANCH  14  25
ENDBRANCH   1  16
BRANCH  11  28
ATOM     28  C   UNL     1      -6.572 -11.162   0.068  0.00  0.00    +0.165 C 
BRANCH  28  29
ATOM     29  C   UNL     1      -7.343 -11.101   1.361  0.00  0.00    -0.027 A 
ATOM     30  C   UNL     1      -7.146 -12.070   2.328  0.00  0.00    +0.009 A 
ATOM     31  C   UNL     1      -7.852 -12.017   3.515  0.00  0.00    +0.046 A 
ATOM     32  C   UNL     1      -8.758 -10.990   3.736  0.00  0.00    +0.120 A 
ATOM     33  C   UNL     1      -8.954 -10.019   2.764  0.00  0.00    +0.046 A 
ATOM     34  C   UNL     1      -8.242 -10.074   1.581  0.00  0.00    +0.009 A 
BRANCH  32  35
ATOM     35  O   UNL     1      -9.454 -10.936   4.902  0.00  0.00    -0.495 OA
ATOM     36  C   UNL     1     -10.370  -9.851   5.061  0.00  0.00    +0.277 C 
ENDBRANCH  32  35
ENDBRANCH  28  29
ENDBRANCH  11  28
TORSDOF 5
