REMARK  Name = ZINC36497792
REMARK  11 active torsions:
REMARK  status: ('A' for Active; 'I' for Inactive)
REMARK    1  A    between atoms: C_1  and  C_2
REMARK    2  A    between atoms: C_5  and  S_8
REMARK    3  A    between atoms: S_8  and  C_11
REMARK    4  A    between atoms: C_11  and  N_12
REMARK    5  A    between atoms: C_13  and  C_15
REMARK    6  A    between atoms: C_15  and  C_17
REMARK    7  A    between atoms: C_15  and  N_23
REMARK    8  A    between atoms: N_23  and  C_24
REMARK    9  A    between atoms: C_24  and  C_25
REMARK   10  A    between atoms: C_30  and  C_32
REMARK   11  A    between atoms: C_37  and  O_38
REMARK                            x       y       z     vdW  Elec       q    Type
REMARK                         _______ _______ _______ _____ _____    ______ ____
ROOT
ATOM      1  C   UNL     1       2.860  -5.017   3.942  0.00  0.00    +0.166 C 
ENDROOT
BRANCH   1   2
ATOM      2  C   UNL     1       4.216  -4.674   3.321  0.00  0.00    +0.019 C 
ATOM      3  C   UNL     1       5.305  -4.769   4.391  0.00  0.00    +0.006 C 
ATOM      4  C   UNL     1       6.661  -4.426   3.771  0.00  0.00    +0.000 C 
ATOM      5  C   UNL     1       6.620  -3.003   3.210  0.00  0.00    +0.000 C 
ATOM      6  C   UNL     1       5.530  -2.908   2.140  0.00  0.00    +0.000 C 
ATOM      7  C   UNL     1       4.174  -3.251   2.761  0.00  0.00    +0.006 C 
ENDBRANCH   1   2
BRANCH   1   9
ATOM      8  N   UNL     1       1.297  -3.840   2.428  0.00  0.00    -0.295 N 
ATOM      9  C   UNL     1       1.801  -5.010   2.870  0.00  0.00    +0.235 C 
ATOM     10  O   UNL     1       1.401  -6.056   2.406  0.00  0.00    -0.274 OA
ATOM     11  H   UNL     1       1.560  -3.008   2.852  0.00  0.00    +0.150 HD
BRANCH   8  12
ATOM     12  C   UNL     1       0.353  -3.826   1.308  0.00  0.00    +0.278 C 
BRANCH  12  13
ATOM     13  S   UNL     1      -1.344  -3.817   1.948  0.00  0.00    +0.013 S 
ATOM     14  O   UNL     1      -1.490  -4.802   2.961  0.00  0.00    -0.168 OA
ATOM     15  O   UNL     1      -2.272  -3.739   0.874  0.00  0.00    -0.168 OA
BRANCH  13  20
ATOM     16  C   UNL     1      -1.889   1.452   4.836  0.00  0.00    +0.044 C 
ATOM     17  C   UNL     1      -1.752   0.136   4.115  0.00  0.00    -0.050 A 
ATOM     18  C   UNL     1      -2.068   0.049   2.772  0.00  0.00    +0.005 A 
ATOM     19  C   UNL     1      -1.943  -1.159   2.110  0.00  0.00    +0.027 A 
ATOM     20  C   UNL     1      -1.502  -2.278   2.791  0.00  0.00    +0.090 A 
ATOM     21  C   UNL     1      -1.186  -2.190   4.134  0.00  0.00    +0.027 A 
ATOM     22  C   UNL     1      -1.307  -0.982   4.795  0.00  0.00    +0.005 A 
ENDBRANCH  13  20
ENDBRANCH  12  13
ENDBRANCH   8  12
ENDBRANCH   1   9
BRANCH   1  23
ATOM     23  N   UNL     1       2.926  -6.346   4.554  0.00  0.00    -0.278 N 
ATOM     24  C   UNL     1       2.692  -6.493   5.874  0.00  0.00    +0.251 C 
ATOM     25  O   UNL     1       2.508  -5.514   6.571  0.00  0.00    -0.270 OA
BRANCH  24  26
ATOM     26  C   UNL     1       2.661  -7.841   6.472  0.00  0.00    +0.078 A 
ATOM     27  C   UNL     1       3.445  -8.866   5.936  0.00  0.00    +0.017 A 
ATOM     28  C   UNL     1       3.411 -10.123   6.500  0.00  0.00    +0.001 A 
ATOM     29  C   UNL     1       2.604 -10.376   7.597  0.00  0.00    +0.004 A 
ATOM     30  C   UNL     1       1.825  -9.372   8.137  0.00  0.00    +0.046 A 
ATOM     31  C   UNL     1       1.850  -8.100   7.585  0.00  0.00    +0.129 A 
BRANCH  31  32
ATOM     32  O   UNL     1       1.089  -7.111   8.118  0.00  0.00    -0.506 OA
ATOM     33  H   UNL     1       0.203  -7.047   7.736  0.00  0.00    +0.292 HD
ENDBRANCH  31  32
ENDBRANCH  24  26
BRANCH  23  34
ATOM     34  C   UNL     1       3.245  -7.516   3.733  0.00  0.00    +0.183 C 
BRANCH  34  35
ATOM     35  C   UNL     1       4.705  -7.486   3.361  0.00  0.00    +0.122 A 
ATOM     36  C   UNL     1       5.727  -7.854   4.154  0.00  0.00    +0.046 A 
ATOM     37  C   UNL     1       6.914  -7.665   3.409  0.00  0.00    +0.041 A 
ATOM     38  C   UNL     1       6.546  -7.191   2.204  0.00  0.00    +0.195 A 
ATOM     39  O   UNL     1       5.207  -7.090   2.179  0.00  0.00    -0.466 OA
ENDBRANCH  34  35
ENDBRANCH  23  34
ENDBRANCH   1  23
TORSDOF 10
