REMARK  Name = ZINC09134388
REMARK  7 active torsions:
REMARK  status: ('A' for Active; 'I' for Inactive)
REMARK    1  A    between atoms: C_1  and  C_2
REMARK    2  A    between atoms: C_2  and  C_33
REMARK    3  A    between atoms: C_4  and  N_9
REMARK    4  A    between atoms: C_6  and  C_7
REMARK    5  A    between atoms: C_6  and  C_8
REMARK    6  A    between atoms: C_10  and  C_12
REMARK    7  A    between atoms: N_23  and  C_25
REMARK                            x       y       z     vdW  Elec       q    Type
REMARK                         _______ _______ _______ _____ _____    ______ ____
ROOT
ATOM      1  C   UNL     1       2.462   0.920  -0.017  0.00  0.00    +0.122 C 
ATOM      2  C   UNL     1       3.602   1.798   0.594  0.00  0.00    +0.155 C 
ATOM      3  C   UNL     1       4.871   0.939   0.601  0.00  0.00    +0.004 C 
ATOM      4  C   UNL     1       5.290   0.838  -0.666  0.00  0.00    +0.008 C 
ATOM      5  C   UNL     1       4.267   1.591  -1.437  0.00  0.00    +0.116 C 
ATOM      6  C   UNL     1       2.960   0.715  -1.458  0.00  0.00    +0.127 C 
ATOM      7  C   UNL     1       2.158   1.425  -2.512  0.00  0.00    +0.227 C 
ATOM      8  O   UNL     1       0.948   1.417  -2.597  0.00  0.00    -0.275 OA
ATOM      9  N   UNL     1       3.000   2.075  -3.354  0.00  0.00    -0.268 N 
ATOM     10  C   UNL     1       4.400   1.980  -2.876  0.00  0.00    +0.153 C 
ATOM     11  O   UNL     1       3.885   2.679  -0.553  0.00  0.00    -0.359 OA
ENDROOT
BRANCH   9  12
ATOM     12  C   UNL     1       2.600   2.746  -4.516  0.00  0.00    +0.036 A 
ATOM     13  C   UNL     1       3.544   3.387  -5.308  0.00  0.00    +0.025 A 
ATOM     14  C   UNL     1       3.147   4.044  -6.457  0.00  0.00    +0.022 A 
ATOM     15  C   UNL     1       1.810   4.072  -6.813  0.00  0.00    +0.041 A 
ATOM     16  C   UNL     1       0.868   3.438  -6.023  0.00  0.00    +0.022 A 
ATOM     17  C   UNL     1       1.260   2.775  -4.876  0.00  0.00    +0.025 A 
ATOM     18 CL   UNL     1       1.315   4.904  -8.254  0.00  0.00    -0.084 Cl
ENDBRANCH   9  12
BRANCH   1  20
ATOM     19  N   UNL     1      -0.009   0.968   0.093  0.00  0.00    -0.312 N 
ATOM     20  C   UNL     1       1.147   1.655   0.000  0.00  0.00    +0.220 C 
ATOM     21  O   UNL     1       1.128   2.866  -0.071  0.00  0.00    -0.275 OA
ATOM     22  H   UNL     1       0.006  -0.000   0.150  0.00  0.00    +0.149 HD
BRANCH  19  26
ATOM     23  C   UNL     1      -3.813   2.464  -1.550  0.00  0.00    -0.010 C 
ATOM     24  C   UNL     1      -3.741   1.467  -0.387  0.00  0.00    -0.072 C 
ATOM     25  C   UNL     1      -2.391   0.755  -0.408  0.00  0.00    +0.009 C 
ATOM     26  C   UNL     1      -1.290   1.685   0.103  0.00  0.00    +0.070 C 
ATOM     27  C   UNL     1      -1.627   2.093   1.537  0.00  0.00    +0.009 C 
ATOM     28  C   UNL     1      -2.968   2.823   1.580  0.00  0.00    -0.072 C 
ATOM     29  C   UNL     1      -2.794   4.246   1.035  0.00  0.00    -0.010 C 
ATOM     30  C   UNL     1      -3.381   2.950   3.063  0.00  0.00    -0.010 C 
ATOM     31  C   UNL     1      -4.832   0.401  -0.631  0.00  0.00    -0.010 C 
ATOM     32  N   UNL     1      -4.089   2.114   0.907  0.00  0.00    +0.386 N 
ATOM     33  H   UNL     1      -4.433   1.386   1.544  0.00  0.00    -0.084 HD
ATOM     34  H   UNL     1      -4.836   2.796   0.730  0.00  0.00    -0.084 HD
ENDBRANCH  19  26
ENDBRANCH   1  20
TORSDOF 3
