REMARK  Name = ZINC01472154
REMARK  12 active torsions:
REMARK  status: ('A' for Active; 'I' for Inactive)
REMARK    1  A    between atoms: C_1  and  C_2
REMARK    2  A    between atoms: C_2  and  O_3
REMARK    3  A    between atoms: O_3  and  C_4
REMARK    4  A    between atoms: C_8  and  C_13
REMARK    5  A    between atoms: C_9  and  O_10
REMARK    6  A    between atoms: O_10  and  C_11
REMARK    7  A    between atoms: C_11  and  C_12
REMARK    8  A    between atoms: C_18  and  C_29
REMARK    9  A    between atoms: N_19  and  C_22
REMARK   10  A    between atoms: C_22  and  C_23
REMARK   11  A    between atoms: C_31  and  N_35
REMARK   12  A    between atoms: C_32  and  C_33
REMARK                            x       y       z     vdW  Elec       q    Type
REMARK                         _______ _______ _______ _____ _____    ______ ____
ROOT
ATOM      1  C   UNL     1       1.254   2.064   2.489  0.00  0.00    +0.107 C 
ATOM      2  C   UNL     1       0.944   3.305   3.280  0.00  0.00    +0.072 A 
ATOM      3  C   UNL     1       1.815   3.761   4.246  0.00  0.00    +0.141 A 
ATOM      4  C   UNL     1       1.487   4.929   4.965  0.00  0.00    +0.068 A 
ATOM      5  C   UNL     1       0.334   5.578   4.699  0.00  0.00    +0.023 A 
ATOM      6  N   UNL     1      -0.520   5.122   3.746  0.00  0.00    -0.308 N 
ATOM      7  C   UNL     1      -0.242   4.011   3.039  0.00  0.00    +0.259 A 
ATOM      8  O   UNL     1      -1.023   3.618   2.187  0.00  0.00    -0.267 OA
ATOM      9  C   UNL     1      -0.012   6.825   5.472  0.00  0.00    +0.064 C 
ATOM     10  O   UNL     1       2.968   3.110   4.509  0.00  0.00    -0.441 OA
ATOM     11  C   UNL     1       3.119   1.831   4.124  0.00  0.00    +0.199 C 
ATOM     12  C   UNL     1       2.337   1.274   3.169  0.00  0.00    +0.098 C 
ENDROOT
BRANCH   1  17
ATOM     13  C   UNL     1       1.421   2.399  -1.278  0.00  0.00    +0.162 A 
ATOM     14  C   UNL     1       2.557   3.178  -1.430  0.00  0.00    +0.049 A 
ATOM     15  C   UNL     1       3.268   3.590  -0.318  0.00  0.00    +0.004 A 
ATOM     16  C   UNL     1       2.848   3.225   0.948  0.00  0.00    +0.008 A 
ATOM     17  C   UNL     1       1.712   2.453   1.107  0.00  0.00    +0.011 A 
ATOM     18  C   UNL     1       0.999   2.033  -0.003  0.00  0.00    +0.166 A 
BRANCH  13  19
ATOM     19  O   UNL     1       0.722   1.993  -2.371  0.00  0.00    -0.489 OA
BRANCH  19  21
ATOM     20  C   UNL     1       0.303   1.859  -4.747  0.00  0.00    +0.048 C 
ATOM     21  C   UNL     1       1.214   2.407  -3.647  0.00  0.00    +0.226 C 
ENDBRANCH  19  21
ENDBRANCH  13  19
BRANCH  18  22
ATOM     22  O   UNL     1      -0.115   1.268   0.151  0.00  0.00    -0.488 OA
BRANCH  22  23
ATOM     23  C   UNL     1       0.067  -0.149   0.159  0.00  0.00    +0.226 C 
ATOM     24  C   UNL     1      -1.288  -0.836   0.343  0.00  0.00    +0.048 C 
ENDBRANCH  22  23
ENDBRANCH  18  22
ENDBRANCH   1  17
BRANCH  11  25
ATOM     25  N   UNL     1       4.095   1.068   4.715  0.00  0.00    -0.328 N 
ATOM     26  H   UNL     1       4.216   0.144   4.448  0.00  0.00    +0.145 HD
ATOM     27  H   UNL     1       4.663   1.453   5.401  0.00  0.00    +0.145 HD
ENDBRANCH  11  25
BRANCH  12  28
ATOM     28  C   UNL     1       2.546  -0.094   2.801  0.00  0.00    +0.101 C 
ATOM     29  N   UNL     1       2.711  -1.180   2.509  0.00  0.00    -0.191 NA
ENDBRANCH  12  28
BRANCH   6  30
ATOM     30  C   UNL     1      -1.764   5.850   3.484  0.00  0.00    +0.160 C 
BRANCH  30  31
ATOM     31  C   UNL     1      -2.878   5.255   4.307  0.00  0.00    -0.028 A 
ATOM     32  C   UNL     1      -3.647   4.230   3.790  0.00  0.00    +0.005 A 
ATOM     33  C   UNL     1      -4.665   3.681   4.547  0.00  0.00    +0.000 A 
ATOM     34  C   UNL     1      -4.921   4.165   5.816  0.00  0.00    +0.000 A 
ATOM     35  C   UNL     1      -4.155   5.194   6.331  0.00  0.00    +0.000 A 
ATOM     36  C   UNL     1      -3.133   5.739   5.576  0.00  0.00    +0.005 A 
ENDBRANCH  30  31
ENDBRANCH   6  30
TORSDOF 9
