REMARK  Name = ZINC09345280
REMARK  9 active torsions:
REMARK  status: ('A' for Active; 'I' for Inactive)
REMARK    1  A    between atoms: C_1  and  C_2
REMARK    2  A    between atoms: C_5  and  C_8
REMARK    3  A    between atoms: C_19  and  C_21
REMARK    4  A    between atoms: C_23  and  O_29
REMARK    5  A    between atoms: C_26  and  O_27
REMARK    6  A    between atoms: O_27  and  C_28
REMARK    7  A    between atoms: O_29  and  C_30
REMARK    8  A    between atoms: C_35  and  S_37
REMARK    9  A    between atoms: S_37  and  C_38
REMARK                            x       y       z     vdW  Elec       q    Type
REMARK                         _______ _______ _______ _____ _____    ______ ____
ROOT
ATOM      1  C   UNL     1       0.066  -4.300  -0.067  0.00  0.00    +0.159 C 
ATOM      2  C   UNL     1       1.512  -4.739   0.002  0.00  0.00    +0.025 C 
ATOM      3  C   UNL     1       1.890  -5.521   1.034  0.00  0.00    +0.058 C 
ATOM      4  C   UNL     1       3.310  -5.952   1.082  0.00  0.00    +0.040 A 
ATOM      5  C   UNL     1       3.870  -6.475   2.239  0.00  0.00    +0.013 A 
ATOM      6  C   UNL     1       5.197  -6.862   2.240  0.00  0.00    +0.001 A 
ATOM      7  C   UNL     1       5.963  -6.728   1.095  0.00  0.00    +0.004 A 
ATOM      8  C   UNL     1       5.412  -6.209  -0.062  0.00  0.00    +0.046 A 
ATOM      9  C   UNL     1       4.084  -5.818  -0.078  0.00  0.00    +0.131 A 
ATOM     10  O   UNL     1       3.516  -5.311  -1.201  0.00  0.00    -0.479 OA
ATOM     11  C   UNL     1       2.506  -4.314  -1.040  0.00  0.00    +0.238 C 
ATOM     12  N   UNL     1       1.012  -5.903   1.993  0.00  0.00    -0.326 N 
ATOM     13  C   UNL     1      -0.260  -5.567   2.010  0.00  0.00    +0.216 C 
ATOM     14  N   UNL     1      -0.799  -4.773   1.022  0.00  0.00    -0.209 N 
ATOM     15  N   UNL     1      -2.151  -4.605   1.331  0.00  0.00    -0.239 N 
ATOM     16  C   UNL     1      -2.369  -5.299   2.492  0.00  0.00    +0.174 C 
ATOM     17  N   UNL     1      -1.250  -5.858   2.874  0.00  0.00    -0.192 NA
ATOM     18  H   UNL     1       1.343  -6.462   2.714  0.00  0.00    +0.169 HD
ATOM     19  H   UNL     1      -2.805  -4.099   0.824  0.00  0.00    +0.172 HD
ENDROOT
BRANCH   1  24
ATOM     20  C   UNL     1      -0.067   1.477  -0.093  0.00  0.00    +0.044 C 
ATOM     21  C   UNL     1      -0.033  -0.030  -0.086  0.00  0.00    -0.050 A 
ATOM     22  C   UNL     1      -0.132  -0.729  -1.274  0.00  0.00    +0.004 A 
ATOM     23  C   UNL     1      -0.100  -2.111  -1.268  0.00  0.00    +0.006 A 
ATOM     24  C   UNL     1       0.032  -2.794  -0.073  0.00  0.00    -0.021 A 
ATOM     25  C   UNL     1       0.133  -2.095   1.115  0.00  0.00    +0.006 A 
ATOM     26  C   UNL     1       0.105  -0.713   1.108  0.00  0.00    +0.004 A 
ENDBRANCH   1  24
BRANCH  11  27
ATOM     27  C   UNL     1       3.147  -3.018  -0.616  0.00  0.00    +0.042 A 
ATOM     28  C   UNL     1       3.319  -2.739   0.726  0.00  0.00    +0.056 A 
ATOM     29  C   UNL     1       3.910  -1.546   1.115  0.00  0.00    +0.121 A 
ATOM     30  C   UNL     1       4.329  -0.634   0.158  0.00  0.00    +0.049 A 
ATOM     31  C   UNL     1       4.157  -0.914  -1.184  0.00  0.00    +0.049 A 
ATOM     32  C   UNL     1       3.571  -2.109  -1.574  0.00  0.00    +0.127 A 
BRANCH  32  33
ATOM     33  O   UNL     1       3.407  -2.387  -2.895  0.00  0.00    -0.495 OA
ATOM     34  C   UNL     1       3.976  -1.466  -3.827  0.00  0.00    +0.277 C 
ENDBRANCH  32  33
BRANCH  29  35
ATOM     35  O   UNL     1       4.079  -1.270   2.436  0.00  0.00    -0.495 OA
ATOM     36  C   UNL     1       4.694  -0.024   2.766  0.00  0.00    +0.277 C 
ENDBRANCH  29  35
ENDBRANCH  11  27
BRANCH  16  37
ATOM     37  S   UNL     1      -3.912  -5.422   3.334  0.00  0.00    -0.092 S 
ATOM     38  C   UNL     1      -3.543  -6.459   4.777  0.00  0.00    +0.093 C 
ENDBRANCH  16  37
TORSDOF 5
