REMARK  Name = ZINC12536219
REMARK  10 active torsions:
REMARK  status: ('A' for Active; 'I' for Inactive)
REMARK    1  A    between atoms: C_1  and  C_2
REMARK    2  A    between atoms: C_2  and  O_3
REMARK    3  A    between atoms: O_3  and  C_4
REMARK    4  A    between atoms: C_7  and  S_10
REMARK    5  A    between atoms: S_10  and  N_13
REMARK    6  A    between atoms: N_13  and  C_14
REMARK    7  A    between atoms: C_17  and  C_20
REMARK    8  A    between atoms: N_22  and  C_23
REMARK    9  A    between atoms: C_23  and  C_24
REMARK   10  A    between atoms: C_24  and  N_30
REMARK                            x       y       z     vdW  Elec       q    Type
REMARK                         _______ _______ _______ _____ _____    ______ ____
ROOT
ATOM      1  C   UNL     1      -2.765  -6.094   3.006  0.00  0.00    +0.048 A 
ATOM      2  C   UNL     1      -3.363  -4.884   2.664  0.00  0.00    +0.025 A 
ATOM      3  C   UNL     1      -4.567  -4.527   3.226  0.00  0.00    +0.015 A 
ATOM      4  C   UNL     1      -5.190  -5.381   4.142  0.00  0.00    +0.037 A 
ATOM      5  C   UNL     1      -4.587  -6.595   4.483  0.00  0.00    +0.015 A 
ATOM      6  C   UNL     1      -3.385  -6.949   3.913  0.00  0.00    +0.025 A 
ENDROOT
BRANCH   4   7
ATOM      7  C   UNL     1      -6.481  -5.001   4.746  0.00  0.00    +0.244 C 
ATOM      8  O   UNL     1      -7.004  -3.945   4.449  0.00  0.00    -0.270 OA
ATOM      9  N   UNL     1      -7.080  -5.825   5.629  0.00  0.00    -0.313 N 
ATOM     10  H   UNL     1      -6.663  -6.668   5.866  0.00  0.00    +0.149 HD
BRANCH   9  11
ATOM     11  C   UNL     1      -8.362  -5.448   6.229  0.00  0.00    +0.092 C 
BRANCH  11  12
ATOM     12  C   UNL     1      -8.881  -6.602   7.090  0.00  0.00    -0.050 C 
ATOM     13  C   UNL     1     -10.240  -6.224   7.683  0.00  0.00    -0.010 C 
ATOM     14  C   UNL     1     -10.088  -4.971   8.548  0.00  0.00    -0.001 C 
ATOM     15  C   UNL     1      -9.097  -5.250   9.680  0.00  0.00    -0.000 C 
ATOM     16  C   UNL     1      -7.739  -5.627   9.086  0.00  0.00    -0.001 C 
ATOM     17  C   UNL     1      -7.890  -6.880   8.221  0.00  0.00    -0.010 C 
BRANCH  12  18
ATOM     18  N   UNL     1      -9.027  -7.805   6.259  0.00  0.00    +0.384 N 
ATOM     19  C   UNL     1      -9.890  -7.503   5.111  0.00  0.00    -0.078 C 
ATOM     20  C   UNL     1      -9.980  -8.729   4.200  0.00  0.00    -0.019 C 
ATOM     21  C   UNL     1     -10.568  -9.903   4.989  0.00  0.00    -0.004 C 
ATOM     22  C   UNL     1      -9.700 -10.161   6.224  0.00  0.00    -0.019 C 
ATOM     23  C   UNL     1      -9.621  -8.882   7.060  0.00  0.00    -0.078 C 
ATOM     24  H   UNL     1      -8.119  -8.095   5.928  0.00  0.00    -0.081 HD
ENDBRANCH  12  18
ENDBRANCH  11  12
ENDBRANCH   9  11
ENDBRANCH   4   7
BRANCH   1  25
ATOM     25  N   UNL     1      -1.548  -6.452   2.437  0.00  0.00    -0.216 N 
ATOM     26  H   UNL     1      -0.835  -6.798   2.995  0.00  0.00    +0.174 HD
BRANCH  25  27
ATOM     27  S   UNL     1      -1.317  -6.285   0.805  0.00  0.00    +0.072 S 
ATOM     28  O   UNL     1      -0.037  -6.833   0.519  0.00  0.00    -0.150 OA
ATOM     29  O   UNL     1      -1.662  -4.946   0.480  0.00  0.00    -0.150 OA
BRANCH  27  33
ATOM     30  C   UNL     1      -4.352  -8.941  -1.255  0.00  0.00    +0.121 A 
ATOM     31  C   UNL     1      -4.702  -7.655  -0.869  0.00  0.00    +0.047 A 
ATOM     32  C   UNL     1      -3.775  -6.847  -0.240  0.00  0.00    +0.032 A 
ATOM     33  C   UNL     1      -2.498  -7.319   0.004  0.00  0.00    +0.109 A 
ATOM     34  C   UNL     1      -2.146  -8.599  -0.381  0.00  0.00    +0.032 A 
ATOM     35  C   UNL     1      -3.072  -9.413  -1.004  0.00  0.00    +0.047 A 
BRANCH  30  36
ATOM     36  O   UNL     1      -5.263  -9.737  -1.873  0.00  0.00    -0.492 OA
BRANCH  36  38
ATOM     37  C   UNL     1      -7.442 -10.221  -2.800  0.00  0.00    +0.048 C 
ATOM     38  C   UNL     1      -6.561  -9.184  -2.099  0.00  0.00    +0.225 C 
ENDBRANCH  36  38
ENDBRANCH  30  36
ENDBRANCH  27  33
ENDBRANCH  25  27
ENDBRANCH   1  25
TORSDOF 9
