REMARK  Name = ZINC10136913
REMARK  9 active torsions:
REMARK  status: ('A' for Active; 'I' for Inactive)
REMARK    1  A    between atoms: C_1  and  C_2
REMARK    2  A    between atoms: C_2  and  C_3
REMARK    3  A    between atoms: C_2  and  C_4
REMARK    4  A    between atoms: C_4  and  C_6
REMARK    5  A    between atoms: C_4  and  N_44
REMARK    6  A    between atoms: C_13  and  C_14
REMARK    7  A    between atoms: C_13  and  N_44
REMARK    8  A    between atoms: N_16  and  C_17
REMARK    9  A    between atoms: C_20  and  N_24
REMARK                            x       y       z     vdW  Elec       q    Type
REMARK                         _______ _______ _______ _____ _____    ______ ____
ROOT
ATOM      1  C   UNL     1      -1.201   0.621   0.710  0.00  0.00    +0.016 C 
ENDROOT
BRANCH   1   2
ATOM      2  C   UNL     1      -1.895   1.118  -0.532  0.00  0.00    +0.200 C 
ATOM      3  O   UNL     1      -1.825   2.290  -0.837  0.00  0.00    -0.278 OA
ATOM      4  N   UNL     1      -2.591   0.261  -1.304  0.00  0.00    -0.286 N 
ATOM      5  H   UNL     1      -2.716  -0.657  -1.018  0.00  0.00    +0.155 HD
BRANCH   4   6
ATOM      6  C   UNL     1      -3.134   0.696  -2.519  0.00  0.00    +0.048 A 
ATOM      7  C   UNL     1      -2.467   1.648  -3.278  0.00  0.00    +0.026 A 
ATOM      8  C   UNL     1      -3.005   2.075  -4.476  0.00  0.00    +0.034 A 
ATOM      9  C   UNL     1      -4.208   1.557  -4.920  0.00  0.00    +0.127 A 
ATOM     10  C   UNL     1      -4.875   0.609  -4.167  0.00  0.00    +0.049 A 
ATOM     11  C   UNL     1      -4.340   0.173  -2.970  0.00  0.00    +0.041 A 
ATOM     12 BR   UNL     1      -5.250  -1.129  -1.944  0.00  0.00    -0.048 Br
BRANCH   9  13
ATOM     13  N   UNL     1      -4.781   2.017  -6.205  0.00  0.00    +0.056 N 
ATOM     14  O   UNL     1      -4.194   2.851  -6.870  0.00  0.00    -0.126 OA
ATOM     15  O   UNL     1      -5.840   1.561  -6.597  0.00  0.00    -0.126 OA
ENDBRANCH   9  13
ENDBRANCH   4   6
ENDBRANCH   1   2
BRANCH   1  16
ATOM     16  N   UNL     1      -0.516   1.750   1.367  0.00  0.00    +0.389 N 
ATOM     17  H   UNL     1       0.228   2.098   0.752  0.00  0.00    -0.084 HD
ATOM     18  H   UNL     1      -1.194   2.501   1.543  0.00  0.00    -0.084 HD
BRANCH  16  19
ATOM     19  C   UNL     1       0.073   1.316   2.648  0.00  0.00    -0.038 C 
BRANCH  19  20
ATOM     20  C   UNL     1      -0.934   1.500   3.753  0.00  0.00    -0.061 A 
ATOM     21  C   UNL     1      -1.741   2.623   3.772  0.00  0.00    +0.003 A 
ATOM     22  C   UNL     1      -2.670   2.789   4.783  0.00  0.00    +0.020 A 
ATOM     23  C   UNL     1      -2.784   1.838   5.781  0.00  0.00    +0.041 A 
ATOM     24  C   UNL     1      -1.972   0.717   5.764  0.00  0.00    +0.020 A 
ATOM     25  C   UNL     1      -1.048   0.549   4.750  0.00  0.00    +0.003 A 
ATOM     26 CL   UNL     1      -3.944   2.050   7.054  0.00  0.00    -0.084 Cl
ENDBRANCH  19  20
BRANCH  19  28
ATOM     27  C   UNL     1       1.997   1.643   4.208  0.00  0.00    +0.006 C 
ATOM     28  C   UNL     1       1.313   2.163   2.942  0.00  0.00    -0.027 C 
ATOM     29  C   UNL     1       2.285   2.071   1.764  0.00  0.00    +0.006 C 
ENDBRANCH  19  28
ENDBRANCH  16  19
ENDBRANCH   1  16
TORSDOF 7
