REMARK  Name = ZINC08901596
REMARK  10 active torsions:
REMARK  status: ('A' for Active; 'I' for Inactive)
REMARK    1  A    between atoms: C_1  and  C_2
REMARK    2  A    between atoms: C_2  and  C_3
REMARK    3  A    between atoms: C_3  and  C_4
REMARK    4  A    between atoms: N_6  and  C_7
REMARK    5  A    between atoms: C_10  and  S_13
REMARK    6  A    between atoms: S_13  and  N_16
REMARK    7  A    between atoms: N_16  and  C_17
REMARK    8  A    between atoms: C_17  and  C_18
REMARK    9  A    between atoms: C_18  and  C_20
REMARK   10  A    between atoms: C_18  and  N_61
REMARK                            x       y       z     vdW  Elec       q    Type
REMARK                         _______ _______ _______ _____ _____    ______ ____
ROOT
ATOM      1  N   UNL     1      -5.359   4.231   1.282  0.00  0.00    -0.191 NA
ATOM      2  H   UNL     1      -6.136   3.823   1.695  0.00  0.00    +0.148 HD
ENDROOT
BRANCH   1   3
ATOM      3  S   UNL     1      -5.075   4.026  -0.336  0.00  0.00    +0.058 S 
ATOM      4  O   UNL     1      -4.816   5.316  -0.870  0.00  0.00    -0.153 OA
ATOM      5  O   UNL     1      -6.116   3.192  -0.828  0.00  0.00    -0.153 OA
BRANCH   3   9
ATOM      6  C   UNL     1      -1.231   1.664  -0.732  0.00  0.00    +0.033 A 
ATOM      7  C   UNL     1      -1.194   3.052  -0.686  0.00  0.00    +0.025 A 
ATOM      8  C   UNL     1      -2.368   3.769  -0.571  0.00  0.00    +0.030 A 
ATOM      9  C   UNL     1      -3.579   3.107  -0.490  0.00  0.00    +0.105 A 
ATOM     10  C   UNL     1      -3.619   1.725  -0.530  0.00  0.00    +0.030 A 
ATOM     11  C   UNL     1      -2.449   1.002  -0.650  0.00  0.00    +0.025 A 
BRANCH   6  14
ATOM     12  C   UNL     1       1.027   1.486  -1.459  0.00  0.00    +0.217 C 
ATOM     13  O   UNL     1       0.935   2.579  -1.977  0.00  0.00    -0.275 OA
ATOM     14  N   UNL     1      -0.043   0.935  -0.854  0.00  0.00    -0.285 N 
ATOM     15  H   UNL     1       0.009   0.031  -0.506  0.00  0.00    +0.155 HD
BRANCH  12  16
ATOM     16  C   UNL     1       2.339   0.745  -1.493  0.00  0.00    +0.096 C 
BRANCH  16  18
ATOM     17  C   UNL     1       4.713   0.833  -2.268  0.00  0.00    +0.004 C 
ATOM     18  C   UNL     1       3.381   1.585  -2.234  0.00  0.00    +0.006 C 
ENDBRANCH  16  18
ENDBRANCH  12  16
ENDBRANCH   6  14
ENDBRANCH   3   9
ENDBRANCH   1   3
BRANCH   1  19
ATOM     19  C   UNL     1      -4.436   5.031   2.092  0.00  0.00    +0.095 C 
BRANCH  19  20
ATOM     20  C   UNL     1      -5.116   5.420   3.406  0.00  0.00    -0.021 C 
BRANCH  20  27
ATOM     21  C   UNL     1      -2.865   5.359   4.322  0.00  0.00    -0.078 C 
ATOM     22  C   UNL     1      -1.942   5.857   5.400  0.00  0.00    -0.019 C 
ATOM     23  C   UNL     1      -2.159   5.000   6.665  0.00  0.00    -0.002 C 
ATOM     24  C   UNL     1      -3.357   5.394   7.398  0.00  0.00    -0.002 C 
ATOM     25  C   UNL     1      -4.638   5.227   6.554  0.00  0.00    -0.019 C 
ATOM     26  C   UNL     1      -4.737   6.389   5.603  0.00  0.00    -0.078 C 
ATOM     27  N   UNL     1      -4.145   6.142   4.244  0.00  0.00    +0.385 N 
ATOM     28  H   UNL     1      -3.943   7.050   3.809  0.00  0.00    -0.081 HD
ENDBRANCH  20  27
BRANCH  20  29
ATOM     29  C   UNL     1      -6.269   6.346   3.120  0.00  0.00    -0.053 A 
ATOM     30  C   UNL     1      -7.564   5.864   3.087  0.00  0.00    +0.009 A 
ATOM     31  C   UNL     1      -8.580   6.726   2.832  0.00  0.00    +0.045 A 
ATOM     32  S   UNL     1      -7.709   8.269   2.616  0.00  0.00    -0.105 S 
ATOM     33  C   UNL     1      -6.052   7.664   2.887  0.00  0.00    +0.047 A 
ENDBRANCH  20  29
ENDBRANCH  19  20
ENDBRANCH   1  19
TORSDOF 9
