REMARK  Name = ZINC46865172
REMARK  5 active torsions:
REMARK  status: ('A' for Active; 'I' for Inactive)
REMARK    1  A    between atoms: C_4  and  C_7
REMARK    2  A    between atoms: N_16  and  C_17
REMARK    3  A    between atoms: C_17  and  C_18
REMARK    4  A    between atoms: N_20  and  C_21
REMARK    5  A    between atoms: C_22  and  C_30
REMARK                            x       y       z     vdW  Elec       q    Type
REMARK                         _______ _______ _______ _____ _____    ______ ____
ROOT
ATOM      1  C   UNL     1       3.270  -2.625  -3.210  0.00  0.00    +0.201 C 
ATOM      2  O   UNL     1       3.215  -3.738  -2.733  0.00  0.00    -0.278 OA
ATOM      3  N   UNL     1       3.132  -2.454  -4.540  0.00  0.00    -0.281 N 
ATOM      4  H   UNL     1       3.177  -1.563  -4.921  0.00  0.00    +0.155 HD
ENDROOT
BRANCH   3   5
ATOM      5  C   UNL     1       2.926  -3.551  -5.362  0.00  0.00    +0.084 A 
ATOM      6  C   UNL     1       2.769  -3.566  -6.739  0.00  0.00    +0.068 A 
ATOM      7  C   UNL     1       2.564  -4.858  -7.370  0.00  0.00    -0.023 A 
ATOM      8  C   UNL     1       2.553  -5.898  -6.508  0.00  0.00    -0.004 A 
ATOM      9  S   UNL     1       2.816  -5.167  -4.919  0.00  0.00    -0.077 S 
ATOM     10  C   UNL     1       2.363  -7.344  -6.846  0.00  0.00    +0.043 C 
ATOM     11  C   UNL     1       1.806  -7.437  -8.275  0.00  0.00    +0.005 C 
ATOM     12  C   UNL     1       2.642  -6.539  -9.191  0.00  0.00    +0.005 C 
ATOM     13  C   UNL     1       2.375  -5.068  -8.865  0.00  0.00    +0.037 C 
BRANCH   6  14
ATOM     14  C   UNL     1       2.808  -2.329  -7.526  0.00  0.00    +0.244 C 
ATOM     15  O   UNL     1       3.866  -1.924  -7.970  0.00  0.00    -0.270 OA
ATOM     16  N   UNL     1       1.672  -1.642  -7.757  0.00  0.00    -0.325 N 
ATOM     17  H   UNL     1       0.829  -1.965  -7.403  0.00  0.00    +0.145 HD
ATOM     18  H   UNL     1       1.698  -0.824  -8.277  0.00  0.00    +0.145 HD
ENDBRANCH   6  14
ENDBRANCH   3   5
BRANCH   1  19
ATOM     19  C   UNL     1       3.494  -1.432  -2.316  0.00  0.00    +0.020 C 
BRANCH  19  28
ATOM     20  C   UNL     1       3.711  -0.707  -0.038  0.00  0.00    +0.011 C 
ATOM     21  C   UNL     1       4.042  -1.191   1.353  0.00  0.00    +0.009 A 
ATOM     22  C   UNL     1       3.932  -0.527   2.513  0.00  0.00    +0.021 A 
ATOM     23  C   UNL     1       4.356  -1.399   3.538  0.00  0.00    +0.019 A 
ATOM     24  C   UNL     1       4.712  -2.566   2.958  0.00  0.00    +0.086 A 
ATOM     25  N   UNL     1       4.526  -2.446   1.619  0.00  0.00    -0.353 N 
ATOM     26  C   UNL     1       4.781  -3.444   0.573  0.00  0.00    +0.103 C 
ATOM     27  C   UNL     1       4.812  -2.718  -0.778  0.00  0.00    -0.055 C 
ATOM     28  N   UNL     1       3.613  -1.881  -0.922  0.00  0.00    +0.395 N 
ATOM     29  H   UNL     1       2.796  -2.419  -0.674  0.00  0.00    -0.080 HD
BRANCH  20  33
ATOM     30  C   UNL     1      -0.017   1.378   0.010  0.00  0.00    +0.000 A 
ATOM     31  C   UNL     1       1.171   2.086   0.002  0.00  0.00    +0.000 A 
ATOM     32  C   UNL     1       2.377   1.411  -0.013  0.00  0.00    +0.002 A 
ATOM     33  C   UNL     1       2.396   0.029  -0.020  0.00  0.00    -0.055 A 
ATOM     34  C   UNL     1       1.208  -0.679  -0.012  0.00  0.00    +0.002 A 
ATOM     35  C   UNL     1       0.002  -0.004   0.002  0.00  0.00    +0.000 A 
ENDBRANCH  20  33
ENDBRANCH  19  28
ENDBRANCH   1  19
TORSDOF 5
