REMARK  Name = ZINC13353423
REMARK  8 active torsions:
REMARK  status: ('A' for Active; 'I' for Inactive)
REMARK    1  A    between atoms: C_3  and  S_26
REMARK    2  A    between atoms: C_6  and  C_7
REMARK    3  A    between atoms: C_7  and  C_8
REMARK    4  A    between atoms: C_8  and  N_9
REMARK    5  A    between atoms: C_10  and  C_12
REMARK    6  A    between atoms: C_12  and  N_62
REMARK    7  A    between atoms: C_15  and  C_18
REMARK    8  A    between atoms: S_26  and  N_29
REMARK                            x       y       z     vdW  Elec       q    Type
REMARK                         _______ _______ _______ _____ _____    ______ ____
ROOT
ATOM      1  N   UNL     1      -7.349   2.684   2.237  0.00  0.00    -0.317 N 
ATOM      2  C   UNL     1      -6.097   2.290   1.929  0.00  0.00    +0.196 C 
ATOM      3  O   UNL     1      -5.810   1.112   1.951  0.00  0.00    -0.278 OA
ATOM      4  H   UNL     1      -7.578   3.627   2.218  0.00  0.00    +0.149 HD
ENDROOT
BRANCH   1   5
ATOM      5  C   UNL     1      -8.362   1.690   2.599  0.00  0.00    +0.109 C 
BRANCH   5   6
ATOM      6  C   UNL     1      -9.685   2.397   2.900  0.00  0.00    +0.054 C 
BRANCH   6  12
ATOM      7  C   UNL     1     -11.524   0.811   2.294  0.00  0.00    +0.005 A 
ATOM      8  C   UNL     1     -12.477  -0.131   2.636  0.00  0.00    +0.029 A 
ATOM      9  C   UNL     1     -12.639  -0.501   3.958  0.00  0.00    +0.105 A 
ATOM     10  C   UNL     1     -11.847   0.067   4.937  0.00  0.00    +0.029 A 
ATOM     11  C   UNL     1     -10.890   1.005   4.595  0.00  0.00    +0.005 A 
ATOM     12  C   UNL     1     -10.727   1.375   3.273  0.00  0.00    -0.046 A 
BRANCH   9  13
ATOM     13  S   UNL     1     -13.857  -1.698   4.394  0.00  0.00    +0.056 S 
ATOM     14  O   UNL     1     -14.095  -2.478   3.230  0.00  0.00    -0.153 OA
ATOM     15  O   UNL     1     -13.439  -2.273   5.624  0.00  0.00    -0.153 OA
BRANCH  13  16
ATOM     16  N   UNL     1     -15.260  -0.876   4.708  0.00  0.00    -0.204 NA
ATOM     17  H   UNL     1     -15.284   0.091   4.632  0.00  0.00    +0.144 HD
ATOM     18  H   UNL     1     -16.059  -1.361   4.968  0.00  0.00    +0.144 HD
ENDBRANCH  13  16
ENDBRANCH   9  13
ENDBRANCH   6  12
ENDBRANCH   5   6
ENDBRANCH   1   5
BRANCH   2  19
ATOM     19  C   UNL     1      -5.055   3.312   1.555  0.00  0.00    +0.019 C 
BRANCH  19  25
ATOM     20  C   UNL     1      -4.036   1.914  -0.138  0.00  0.00    -0.077 C 
ATOM     21  C   UNL     1      -2.787   1.097  -0.476  0.00  0.00    -0.006 C 
ATOM     22  C   UNL     1      -1.583   2.036  -0.590  0.00  0.00    +0.072 C 
ATOM     23  C   UNL     1      -1.418   2.802   0.726  0.00  0.00    -0.006 C 
ATOM     24  C   UNL     1      -2.706   3.570   1.029  0.00  0.00    -0.077 C 
ATOM     25  N   UNL     1      -3.821   2.607   1.150  0.00  0.00    +0.385 N 
ATOM     26  H   UNL     1      -3.584   1.911   1.867  0.00  0.00    -0.081 HD
BRANCH  22  27
ATOM     27  C   UNL     1      -0.340   1.230  -0.864  0.00  0.00    +0.219 C 
ATOM     28  O   UNL     1      -0.317   0.045  -0.608  0.00  0.00    -0.275 OA
ATOM     29  N   UNL     1       0.745   1.826  -1.398  0.00  0.00    -0.301 N 
ATOM     30  C   UNL     1       1.996   1.078  -1.579  0.00  0.00    +0.108 C 
ATOM     31  C   UNL     1       2.435   1.208  -3.046  0.00  0.00    +0.019 C 
ATOM     32  C   UNL     1       2.530   2.690  -3.414  0.00  0.00    +0.003 C 
ATOM     33  C   UNL     1       1.155   3.344  -3.264  0.00  0.00    +0.019 C 
ATOM     34  C   UNL     1       0.700   3.237  -1.805  0.00  0.00    +0.108 C 
ENDBRANCH  22  27
ENDBRANCH  19  25
ENDBRANCH   2  19
TORSDOF 8
