REMARK  Name = ZINC21741334
REMARK  11 active torsions:
REMARK  status: ('A' for Active; 'I' for Inactive)
REMARK    1  A    between atoms: C_1  and  C_2
REMARK    2  A    between atoms: C_5  and  N_9
REMARK    3  A    between atoms: C_7  and  C_8
REMARK    4  A    between atoms: C_13  and  C_15
REMARK    5  A    between atoms: C_15  and  O_16
REMARK    6  A    between atoms: O_16  and  C_17
REMARK    7  A    between atoms: C_17  and  C_19
REMARK    8  A    between atoms: C_19  and  N_20
REMARK    9  A    between atoms: C_25  and  C_32
REMARK   10  A    between atoms: C_28  and  C_30
REMARK   11  A    between atoms: C_28  and  C_31
REMARK                            x       y       z     vdW  Elec       q    Type
REMARK                         _______ _______ _______ _____ _____    ______ ____
ROOT
ATOM      1  C   UNL     1       4.771   1.081  -0.651  0.00  0.00    +0.326 C 
ATOM      2  O   UNL     1       4.959  -0.096  -0.455  0.00  0.00    -0.249 OA
ENDROOT
BRANCH   1   3
ATOM      3  O   UNL     1       3.525   1.579  -0.604  0.00  0.00    -0.454 OA
BRANCH   3   4
ATOM      4  C   UNL     1       2.453   0.645  -0.310  0.00  0.00    +0.328 C 
BRANCH   4   9
ATOM      5  N   UNL     1      -2.326   0.694   0.205  0.00  0.00    -0.269 N 
ATOM      6  C   UNL     1      -1.183   1.365  -0.041  0.00  0.00    +0.310 C 
ATOM      7  O   UNL     1      -1.215   2.560  -0.259  0.00  0.00    -0.252 OA
ATOM      8  N   UNL     1      -0.005   0.709  -0.046  0.00  0.00    -0.237 N 
ATOM      9  C   UNL     1       1.137   1.378  -0.299  0.00  0.00    +0.258 C 
ATOM     10  O   UNL     1       1.106   2.571  -0.516  0.00  0.00    -0.272 OA
ATOM     11  H   UNL     1      -2.292  -0.371   0.476  0.00  0.00    +0.156 HD
ATOM     12  H   UNL     1       0.023  -0.372   0.155  0.00  0.00    +0.159 HD
BRANCH   5  17
ATOM     13  C   UNL     1      -7.316   3.370  -0.151  0.00  0.00    +0.044 C 
ATOM     14  C   UNL     1      -5.991   2.659  -0.056  0.00  0.00    -0.047 A 
ATOM     15  C   UNL     1      -4.879   3.332   0.419  0.00  0.00    +0.005 A 
ATOM     16  C   UNL     1      -3.665   2.682   0.512  0.00  0.00    +0.023 A 
ATOM     17  C   UNL     1      -3.557   1.354   0.118  0.00  0.00    +0.035 A 
ATOM     18  C   UNL     1      -4.675   0.682  -0.358  0.00  0.00    +0.027 A 
ATOM     19  C   UNL     1      -5.888   1.336  -0.443  0.00  0.00    -0.046 A 
ATOM     20  C   UNL     1      -7.102   0.607  -0.960  0.00  0.00    +0.044 C 
ENDBRANCH   5  17
ENDBRANCH   4   9
ENDBRANCH   3   4
ENDBRANCH   1   3
BRANCH   1  21
ATOM     21  C   UNL     1       5.935   1.990  -0.951  0.00  0.00    +0.238 C 
BRANCH  21  22
ATOM     22  N   UNL     1       7.176   1.212  -0.946  0.00  0.00    -0.213 N 
ATOM     23  C   UNL     1       7.944   1.016   0.146  0.00  0.00    +0.247 C 
ATOM     24  O   UNL     1       7.747   1.434   1.267  0.00  0.00    -0.273 OA
ATOM     25  C   UNL     1       9.101   0.164  -0.322  0.00  0.00    +0.113 C 
ATOM     26  C   UNL     1      10.418   0.904  -0.118  0.00  0.00    +0.038 C 
ATOM     27  C   UNL     1      11.574   0.042  -0.632  0.00  0.00    -0.011 C 
ATOM     28  C   UNL     1      11.594  -1.287   0.126  0.00  0.00    +0.009 C 
ATOM     29  C   UNL     1      10.275  -2.028  -0.104  0.00  0.00    -0.032 C 
ATOM     30  C   UNL     1       9.114  -1.173   0.411  0.00  0.00    +0.041 C 
ATOM     31  C   UNL     1      10.300  -3.360   0.647  0.00  0.00    +0.011 C 
ATOM     32  C   UNL     1      10.091  -2.289  -1.601  0.00  0.00    +0.011 C 
ATOM     33  C   UNL     1      12.898   0.776  -0.409  0.00  0.00    +0.007 C 
ATOM     34  N   UNL     1       8.840  -0.038  -1.753  0.00  0.00    -0.285 N 
ATOM     35  C   UNL     1       7.693   0.613  -2.026  0.00  0.00    +0.310 C 
ATOM     36  O   UNL     1       7.183   0.651  -3.128  0.00  0.00    -0.252 OA
ATOM     37  H   UNL     1       9.538  -0.631  -2.361  0.00  0.00    +0.151 HD
ENDBRANCH  21  22
ENDBRANCH   1  21
TORSDOF 6
