REMARK  Name = ZINC08797777
REMARK  15 active torsions:
REMARK  status: ('A' for Active; 'I' for Inactive)
REMARK    1  A    between atoms: C_1  and  C_2
REMARK    2  A    between atoms: C_2  and  N_3
REMARK    3  A    between atoms: C_5  and  C_34
REMARK    4  A    between atoms: N_12  and  C_13
REMARK    5  A    between atoms: C_13  and  C_15
REMARK    6  A    between atoms: C_18  and  S_21
REMARK    7  A    between atoms: S_21  and  N_24
REMARK    8  A    between atoms: N_24  and  C_25
REMARK    9  A    between atoms: N_24  and  C_29
REMARK   10  A    between atoms: C_25  and  C_26
REMARK   11  A    between atoms: C_26  and  O_27
REMARK   12  A    between atoms: O_27  and  C_28
REMARK   13  A    between atoms: C_29  and  C_30
REMARK   14  A    between atoms: C_30  and  O_31
REMARK   15  A    between atoms: O_31  and  C_32
REMARK                            x       y       z     vdW  Elec       q    Type
REMARK                         _______ _______ _______ _____ _____    ______ ____
ROOT
ATOM      1  C   UNL     1      -0.034  -0.436   4.830  0.00  0.00    +0.039 A 
ATOM      2  C   UNL     1       0.073   0.940   5.033  0.00  0.00    +0.015 A 
ATOM      3  C   UNL     1       0.153   1.441   6.316  0.00  0.00    +0.029 A 
ATOM      4  C   UNL     1       0.139   0.581   7.400  0.00  0.00    +0.106 A 
ATOM      5  C   UNL     1       0.039  -0.785   7.205  0.00  0.00    +0.029 A 
ATOM      6  C   UNL     1      -0.048  -1.298   5.927  0.00  0.00    +0.015 A 
ENDROOT
BRANCH   4   7
ATOM      7  S   UNL     1       0.251   1.228   9.035  0.00  0.00    +0.061 S 
ATOM      8  O   UNL     1      -0.213   2.569   8.974  0.00  0.00    -0.153 OA
ATOM      9  O   UNL     1      -0.332   0.259   9.896  0.00  0.00    -0.153 OA
BRANCH   7  10
ATOM     10  N   UNL     1       1.859   1.301   9.424  0.00  0.00    -0.172 NA
BRANCH  10  11
ATOM     11  C   UNL     1       2.630   2.510   9.127  0.00  0.00    +0.137 C 
BRANCH  11  12
ATOM     12  C   UNL     1       2.665   3.410  10.364  0.00  0.00    +0.176 C 
BRANCH  12  13
ATOM     13  O   UNL     1       3.381   2.753  11.411  0.00  0.00    -0.382 OA
ATOM     14  C   UNL     1       3.472   3.513  12.618  0.00  0.00    +0.194 C 
ENDBRANCH  12  13
ENDBRANCH  11  12
ENDBRANCH  10  11
BRANCH  10  15
ATOM     15  C   UNL     1       2.510   0.156  10.066  0.00  0.00    +0.137 C 
BRANCH  15  16
ATOM     16  C   UNL     1       3.182  -0.712   9.001  0.00  0.00    +0.176 C 
BRANCH  16  17
ATOM     17  O   UNL     1       4.238   0.025   8.382  0.00  0.00    -0.382 OA
ATOM     18  C   UNL     1       4.935  -0.699   7.366  0.00  0.00    +0.194 C 
ENDBRANCH  16  17
ENDBRANCH  15  16
ENDBRANCH  10  15
ENDBRANCH   7  10
ENDBRANCH   4   7
BRANCH   1  19
ATOM     19  C   UNL     1      -0.127  -0.980   3.456  0.00  0.00    +0.269 C 
ATOM     20  O   UNL     1      -0.215  -2.183   3.281  0.00  0.00    -0.268 OA
BRANCH  19  30
ATOM     21  N   UNL     1      -0.199   0.041  -0.004  0.00  0.00    -0.321 N 
ATOM     22  C   UNL     1      -0.300  -0.645  -1.201  0.00  0.00    +0.061 A 
ATOM     23  C   UNL     1      -0.314  -0.125  -2.504  0.00  0.00    -0.024 A 
ATOM     24  C   UNL     1      -0.415  -0.958  -3.593  0.00  0.00    +0.025 A 
ATOM     25  C   UNL     1      -0.502  -2.333  -3.440  0.00  0.00    +0.042 A 
ATOM     26  C   UNL     1      -0.486  -2.873  -2.165  0.00  0.00    +0.037 A 
ATOM     27  C   UNL     1      -0.384  -2.040  -1.076  0.00  0.00    +0.041 A 
ATOM     28  S   UNL     1      -0.330  -2.296   0.679  0.00  0.00    -0.052 S 
ATOM     29  C   UNL     1      -0.197  -0.639   1.174  0.00  0.00    +0.167 A 
ATOM     30  N   UNL     1      -0.114  -0.151   2.407  0.00  0.00    -0.152 NA
ATOM     31 CL   UNL     1      -0.628  -3.365  -4.830  0.00  0.00    -0.083 Cl
ATOM     32  C   UNL     1      -0.222   1.365  -2.712  0.00  0.00    +0.046 C 
BRANCH  21  34
ATOM     33  C   UNL     1      -0.593   2.048   1.337  0.00  0.00    +0.027 C 
ATOM     34  C   UNL     1      -0.101   1.503  -0.005  0.00  0.00    +0.121 C 
ENDBRANCH  21  34
ENDBRANCH  19  30
ENDBRANCH   1  19
TORSDOF 11
