REMARK  Name = ZINC13489280
REMARK  11 active torsions:
REMARK  status: ('A' for Active; 'I' for Inactive)
REMARK    1  A    between atoms: C_1  and  C_2
REMARK    2  A    between atoms: C_5  and  S_9
REMARK    3  A    between atoms: C_6  and  C_8
REMARK    4  A    between atoms: S_9  and  C_10
REMARK    5  A    between atoms: C_10  and  C_11
REMARK    6  A    between atoms: C_11  and  C_13
REMARK    7  A    between atoms: C_11  and  N_16
REMARK    8  A    between atoms: C_23  and  C_28
REMARK    9  A    between atoms: N_30  and  C_31
REMARK   10  A    between atoms: C_31  and  C_32
REMARK   11  A    between atoms: C_37  and  C_38
REMARK                            x       y       z     vdW  Elec       q    Type
REMARK                         _______ _______ _______ _____ _____    ______ ____
ROOT
ATOM      1  N   UNL     1      -1.163  -7.045  -1.402  0.00  0.00    -0.229 N 
ATOM      2  C   UNL     1      -2.406  -6.761  -1.847  0.00  0.00    +0.349 A 
ATOM      3  O   UNL     1      -2.682  -6.001  -2.755  0.00  0.00    -0.245 OA
ATOM      4  N   UNL     1      -3.277  -7.457  -1.119  0.00  0.00    -0.226 N 
ATOM      5  N   UNL     1      -2.530  -8.209  -0.179  0.00  0.00    -0.215 N 
ATOM      6  C   UNL     1      -1.244  -7.934  -0.387  0.00  0.00    +0.350 A 
ATOM      7  O   UNL     1      -0.306  -8.399   0.231  0.00  0.00    -0.245 OA
ATOM      8  C   UNL     1      -3.199  -9.090   0.783  0.00  0.00    +0.219 C 
ATOM      9  C   UNL     1      -4.532  -8.463   1.125  0.00  0.00    +0.006 C 
ATOM     10  C   UNL     1      -5.220  -7.770   0.258  0.00  0.00    -0.005 C 
ATOM     11  C   UNL     1      -4.740  -7.540  -1.158  0.00  0.00    +0.174 C 
ENDROOT
BRANCH   8  12
ATOM     12  C   UNL     1      -3.414 -10.449   0.167  0.00  0.00    +0.242 C 
ATOM     13  O   UNL     1      -3.046 -10.666  -0.968  0.00  0.00    -0.273 OA
ATOM     14  N   UNL     1      -4.017 -11.423   0.878  0.00  0.00    -0.309 N 
ATOM     15  H   UNL     1      -4.311 -11.249   1.786  0.00  0.00    +0.149 HD
BRANCH  14  16
ATOM     16  C   UNL     1      -4.226 -12.743   0.280  0.00  0.00    +0.141 C 
BRANCH  16  17
ATOM     17  C   UNL     1      -4.914 -13.642   1.275  0.00  0.00    -0.011 A 
ATOM     18  C   UNL     1      -4.181 -14.563   2.012  0.00  0.00    +0.010 A 
ATOM     19  C   UNL     1      -4.850 -15.370   2.914  0.00  0.00    +0.041 A 
ATOM     20  C   UNL     1      -6.228 -15.231   3.053  0.00  0.00    +0.094 A 
ATOM     21  N   UNL     1      -6.891 -14.341   2.332  0.00  0.00    -0.347 N 
ATOM     22  C   UNL     1      -6.278 -13.555   1.467  0.00  0.00    +0.019 A 
ATOM     23  C   UNL     1      -7.077 -12.553   0.676  0.00  0.00    +0.063 C 
ATOM     24  N   UNL     1      -6.913 -16.035   3.956  0.00  0.00    -0.345 N 
ATOM     25  H   UNL     1      -6.431 -16.689   4.486  0.00  0.00    +0.144 HD
ATOM     26  H   UNL     1      -7.873 -15.942   4.056  0.00  0.00    +0.144 HD
ATOM     27  H   UNL     1      -7.851 -14.262   2.445  0.00  0.00    +0.167 HD
ENDBRANCH  16  17
ENDBRANCH  14  16
ENDBRANCH   8  12
BRANCH   1  28
ATOM     28  C   UNL     1       0.079  -6.484  -1.940  0.00  0.00    +0.219 C 
BRANCH  28  29
ATOM     29  C   UNL     1       0.201  -6.840  -3.399  0.00  0.00    +0.379 C 
ATOM     30  O   UNL     1       1.302  -6.979  -3.903  0.00  0.00    -0.244 OA
ATOM     31  O   UNL     1      -0.802  -6.988  -4.076  0.00  0.00    -0.244 OA
ENDBRANCH  28  29
BRANCH  28  32
ATOM     32  C   UNL     1       0.060  -4.962  -1.785  0.00  0.00    +0.111 C 
BRANCH  32  33
ATOM     33  S   UNL     1       0.063  -4.533  -0.023  0.00  0.00    -0.122 S 
BRANCH  33  38
ATOM     34  C   UNL     1      -0.018   1.503   0.010  0.00  0.00    +0.044 C 
ATOM     35  C   UNL     1       0.002  -0.004   0.002  0.00  0.00    -0.050 A 
ATOM     36  C   UNL     1       0.006  -0.687  -1.201  0.00  0.00    +0.004 A 
ATOM     37  C   UNL     1       0.024  -2.068  -1.212  0.00  0.00    +0.015 A 
ATOM     38  C   UNL     1       0.040  -2.771  -0.013  0.00  0.00    +0.011 A 
ATOM     39  C   UNL     1       0.036  -2.081   1.193  0.00  0.00    -0.037 A 
ATOM     40  C   UNL     1       0.023  -0.700   1.197  0.00  0.00    +0.007 A 
ATOM     41  C   UNL     1       0.052  -2.839   2.495  0.00  0.00    +0.045 C 
ENDBRANCH  33  38
ENDBRANCH  32  33
ENDBRANCH  28  32
ENDBRANCH   1  28
TORSDOF 8
