REMARK  Name = ZINC39945773
REMARK  11 active torsions:
REMARK  status: ('A' for Active; 'I' for Inactive)
REMARK    1  A    between atoms: C_1  and  C_2
REMARK    2  A    between atoms: C_2  and  C_3
REMARK    3  A    between atoms: C_3  and  C_4
REMARK    4  A    between atoms: C_4  and  N_5
REMARK    5  A    between atoms: C_9  and  S_34
REMARK    6  A    between atoms: C_13  and  S_14
REMARK    7  A    between atoms: S_14  and  C_15
REMARK    8  A    between atoms: C_15  and  C_17
REMARK    9  A    between atoms: C_15  and  C_23
REMARK   10  A    between atoms: C_23  and  C_25
REMARK   11  A    between atoms: S_34  and  N_37
REMARK                            x       y       z     vdW  Elec       q    Type
REMARK                         _______ _______ _______ _____ _____    ______ ____
ROOT
ATOM      1  S   UNL     1       3.954  -2.554  -1.314  0.00  0.00    -0.072 S 
ENDROOT
BRANCH   1  10
ATOM      2  N   UNL     1       1.425  -2.500  -2.470  0.00  0.00    -0.319 N 
ATOM      3  C   UNL     1       0.839  -2.770  -3.697  0.00  0.00    +0.070 A 
ATOM      4  C   UNL     1      -0.459  -2.700  -4.178  0.00  0.00    +0.030 A 
ATOM      5  C   UNL     1      -0.727  -3.047  -5.486  0.00  0.00    +0.030 A 
ATOM      6  C   UNL     1       0.296  -3.466  -6.325  0.00  0.00    +0.107 A 
ATOM      7  C   UNL     1       1.591  -3.541  -5.864  0.00  0.00    +0.058 A 
ATOM      8  C   UNL     1       1.878  -3.193  -4.542  0.00  0.00    +0.092 A 
ATOM      9  N   UNL     1       3.024  -3.163  -3.812  0.00  0.00    -0.222 NA
ATOM     10  C   UNL     1       2.762  -2.751  -2.596  0.00  0.00    +0.171 A 
BRANCH   6  11
ATOM     11  S   UNL     1      -0.066  -3.905  -7.992  0.00  0.00    +0.056 S 
ATOM     12  O   UNL     1       0.969  -4.783  -8.415  0.00  0.00    -0.153 OA
ATOM     13  O   UNL     1      -1.438  -4.272  -8.027  0.00  0.00    -0.153 OA
BRANCH  11  14
ATOM     14  N   UNL     1       0.080  -2.530  -8.904  0.00  0.00    -0.204 NA
ATOM     15  H   UNL     1       0.352  -2.590  -9.833  0.00  0.00    +0.144 HD
ATOM     16  H   UNL     1      -0.107  -1.664  -8.508  0.00  0.00    +0.144 HD
ENDBRANCH  11  14
ENDBRANCH   6  11
BRANCH   2  17
ATOM     17  C   UNL     1       0.739  -2.027  -1.265  0.00  0.00    +0.124 C 
BRANCH  17  18
ATOM     18  C   UNL     1       0.718  -0.497  -1.257  0.00  0.00    +0.021 C 
BRANCH  18  20
ATOM     19  C   UNL     1      -0.019   1.526   0.010  0.00  0.00    +0.004 C 
ATOM     20  C   UNL     1       0.002  -0.004   0.002  0.00  0.00    -0.002 C 
ENDBRANCH  18  20
ENDBRANCH  17  18
ENDBRANCH   2  17
ENDBRANCH   1  10
BRANCH   1  21
ATOM     21  C   UNL     1       5.520  -3.038  -2.093  0.00  0.00    +0.155 C 
BRANCH  21  22
ATOM     22  C   UNL     1       5.469  -4.500  -2.456  0.00  0.00    -0.027 A 
ATOM     23  C   UNL     1       5.273  -5.450  -1.471  0.00  0.00    +0.005 A 
ATOM     24  C   UNL     1       5.227  -6.791  -1.804  0.00  0.00    +0.000 A 
ATOM     25  C   UNL     1       5.377  -7.182  -3.121  0.00  0.00    +0.000 A 
ATOM     26  C   UNL     1       5.572  -6.231  -4.106  0.00  0.00    +0.000 A 
ATOM     27  C   UNL     1       5.614  -4.890  -3.774  0.00  0.00    +0.005 A 
ENDBRANCH  21  22
BRANCH  21  28
ATOM     28  C   UNL     1       6.654  -2.798  -1.131  0.00  0.00    +0.179 C 
ATOM     29  O   UNL     1       6.445  -2.790   0.065  0.00  0.00    -0.291 OA
BRANCH  28  30
ATOM     30  C   UNL     1       7.960  -2.583  -1.620  0.00  0.00    +0.025 C 
ATOM     31  C   UNL     1       9.105  -2.355  -0.877  0.00  0.00    +0.006 A 
ATOM     32  C   UNL     1       9.347  -2.265   0.514  0.00  0.00    +0.010 A 
ATOM     33  C   UNL     1      10.596  -2.028   0.974  0.00  0.00    +0.001 A 
ATOM     34  C   UNL     1      11.696  -1.861   0.117  0.00  0.00    +0.002 A 
ATOM     35  C   UNL     1      11.572  -1.928  -1.226  0.00  0.00    +0.026 A 
ATOM     36  C   UNL     1      10.245  -2.184  -1.810  0.00  0.00    +0.043 A 
ATOM     37  N   UNL     1       9.846  -2.296  -3.045  0.00  0.00    -0.380 N 
ATOM     38  C   UNL     1       8.403  -2.559  -3.066  0.00  0.00    +0.152 C 
ATOM     39  H   UNL     1      10.414  -2.222  -3.827  0.00  0.00    +0.160 HD
ENDBRANCH  28  30
ENDBRANCH  21  28
ENDBRANCH   1  21
TORSDOF 10
