REMARK  Name = ZINC03032771
REMARK  10 active torsions:
REMARK  status: ('A' for Active; 'I' for Inactive)
REMARK    1  A    between atoms: C_1  and  O_2
REMARK    2  A    between atoms: O_2  and  C_3
REMARK    3  A    between atoms: C_6  and  C_9
REMARK    4  A    between atoms: C_9  and  N_10
REMARK    5  A    between atoms: C_11  and  C_13
REMARK    6  A    between atoms: C_13  and  C_14
REMARK    7  A    between atoms: C_14  and  C_16
REMARK    8  A    between atoms: C_14  and  N_21
REMARK    9  A    between atoms: N_21  and  S_22
REMARK   10  A    between atoms: S_22  and  C_25
REMARK                            x       y       z     vdW  Elec       q    Type
REMARK                         _______ _______ _______ _____ _____    ______ ____
ROOT
ATOM      1  C   UNL     1       1.241  -6.017  -3.089  0.00  0.00    +0.122 C 
ENDROOT
BRANCH   1   2
ATOM      2  C   UNL     1       1.356  -6.511  -4.508  0.00  0.00    +0.009 A 
ATOM      3  C   UNL     1       2.453  -6.952  -5.171  0.00  0.00    +0.013 A 
ATOM      4  C   UNL     1       2.322  -7.362  -6.485  0.00  0.00    +0.008 A 
ATOM      5  C   UNL     1       1.101  -7.311  -7.071  0.00  0.00    +0.045 A 
ATOM      6  S   UNL     1       0.083  -6.674  -5.749  0.00  0.00    -0.100 S 
ENDBRANCH   1   2
BRANCH   1   7
ATOM      7  N   UNL     1       0.000  -6.523  -2.495  0.00  0.00    -0.182 NA
ATOM      8  H   UNL     1      -0.833  -6.045  -2.631  0.00  0.00    +0.149 HD
BRANCH   7   9
ATOM      9  S   UNL     1       0.020  -7.911  -1.593  0.00  0.00    +0.059 S 
ATOM     10  O   UNL     1      -1.311  -8.121  -1.141  0.00  0.00    -0.153 OA
ATOM     11  O   UNL     1       0.728  -8.880  -2.354  0.00  0.00    -0.153 OA
BRANCH   9  12
ATOM     12  C   UNL     1       0.993  -7.587  -0.160  0.00  0.00    +0.105 A 
ATOM     13  C   UNL     1       2.354  -7.830  -0.179  0.00  0.00    +0.029 A 
ATOM     14  C   UNL     1       3.118  -7.571   0.943  0.00  0.00    +0.017 A 
ATOM     15  C   UNL     1       2.520  -7.079   2.089  0.00  0.00    +0.018 A 
ATOM     16  C   UNL     1       1.158  -6.840   2.109  0.00  0.00    +0.017 A 
ATOM     17  C   UNL     1       0.395  -7.095   0.985  0.00  0.00    +0.029 A 
ATOM     18 BR   UNL     1       3.564  -6.731   3.626  0.00  0.00    -0.050 Br
ENDBRANCH   9  12
ENDBRANCH   7   9
ENDBRANCH   1   7
BRANCH   1  19
ATOM     19  C   UNL     1       1.223  -4.487  -3.081  0.00  0.00    +0.121 C 
BRANCH  19  21
ATOM     20  N   UNL     1       1.218  -2.668  -1.405  0.00  0.00    -0.311 N 
ATOM     21  C   UNL     1       1.231  -3.992  -1.658  0.00  0.00    +0.215 C 
ATOM     22  O   UNL     1       1.249  -4.785  -0.740  0.00  0.00    -0.276 OA
ATOM     23  H   UNL     1       1.203  -2.034  -2.139  0.00  0.00    +0.149 HD
BRANCH  20  24
ATOM     24  C   UNL     1       1.226  -2.187  -0.021  0.00  0.00    +0.139 C 
BRANCH  24  28
ATOM     25  C   UNL     1       1.176   2.086   0.002  0.00  0.00    +0.120 A 
ATOM     26  C   UNL     1      -0.017   1.377   0.010  0.00  0.00    +0.046 A 
ATOM     27  C   UNL     1       0.002  -0.004   0.002  0.00  0.00    +0.009 A 
ATOM     28  C   UNL     1       1.208  -0.680  -0.013  0.00  0.00    -0.030 A 
ATOM     29  C   UNL     1       2.398   0.024  -0.021  0.00  0.00    +0.009 A 
ATOM     30  C   UNL     1       2.385   1.405  -0.013  0.00  0.00    +0.046 A 
BRANCH  25  32
ATOM     31  C   UNL     1       2.426   4.108   0.001  0.00  0.00    +0.277 C 
ATOM     32  O   UNL     1       1.160   3.445   0.009  0.00  0.00    -0.495 OA
ENDBRANCH  25  32
ENDBRANCH  24  28
ENDBRANCH  20  24
ENDBRANCH  19  21
ENDBRANCH   1  19
TORSDOF 9
