REMARK  Name = ZINC59274543
REMARK  13 active torsions:
REMARK  status: ('A' for Active; 'I' for Inactive)
REMARK    1  A    between atoms: C_1  and  C_2
REMARK    2  A    between atoms: C_2  and  C_3
REMARK    3  A    between atoms: C_2  and  C_4
REMARK    4  A    between atoms: C_7  and  N_10
REMARK    5  A    between atoms: N_13  and  C_14
REMARK    6  A    between atoms: N_13  and  C_23
REMARK    7  A    between atoms: C_14  and  C_15
REMARK    8  A    between atoms: C_18  and  O_21
REMARK    9  A    between atoms: O_21  and  C_22
REMARK   10  A    between atoms: C_25  and  C_31
REMARK   11  A    between atoms: C_25  and  C_32
REMARK   12  A    between atoms: C_27  and  C_29
REMARK   13  A    between atoms: C_27  and  C_30
REMARK                            x       y       z     vdW  Elec       q    Type
REMARK                         _______ _______ _______ _____ _____    ______ ____
ROOT
ATOM      1  N   UNL     1       1.014  -3.018   5.403  0.00  0.00    -0.269 N 
ATOM      2  C   UNL     1       2.337  -2.787   5.507  0.00  0.00    +0.307 C 
ATOM      3  O   UNL     1       2.939  -2.274   4.584  0.00  0.00    -0.252 OA
ATOM      4  N   UNL     1       2.994  -3.126   6.634  0.00  0.00    -0.278 N 
ATOM      5  H   UNL     1       0.511  -3.315   6.178  0.00  0.00    +0.156 HD
ENDROOT
BRANCH   4   6
ATOM      6  C   UNL     1       4.389  -2.709   6.824  0.00  0.00    +0.075 C 
ATOM      7  C   UNL     1       4.463  -1.181   6.816  0.00  0.00    +0.009 C 
ATOM      8  C   UNL     1       5.912  -0.731   7.001  0.00  0.00    -0.072 C 
ATOM      9  N   UNL     1       6.803  -1.339   6.024  0.00  0.00    +0.386 N 
ATOM     10  C   UNL     1       6.681  -2.769   5.795  0.00  0.00    -0.072 C 
ATOM     11  C   UNL     1       5.235  -3.237   5.666  0.00  0.00    +0.009 C 
ATOM     12  C   UNL     1       7.397  -3.579   6.880  0.00  0.00    -0.010 C 
ATOM     13  C   UNL     1       7.387  -3.088   4.456  0.00  0.00    -0.010 C 
ATOM     14  C   UNL     1       6.367  -0.992   8.436  0.00  0.00    -0.010 C 
ATOM     15  C   UNL     1       5.948   0.798   6.779  0.00  0.00    -0.010 C 
ATOM     16  H   UNL     1       6.674  -0.858   5.130  0.00  0.00    -0.084 HD
ATOM     17  H   UNL     1       7.767  -1.137   6.300  0.00  0.00    -0.084 HD
ENDBRANCH   4   6
BRANCH   1  21
ATOM     18  C   UNL     1      -0.921  -2.450   1.757  0.00  0.00    -0.045 A 
ATOM     19  C   UNL     1      -1.441  -3.334   2.684  0.00  0.00    +0.006 A 
ATOM     20  C   UNL     1      -0.802  -3.525   3.894  0.00  0.00    +0.023 A 
ATOM     21  C   UNL     1       0.364  -2.827   4.178  0.00  0.00    +0.035 A 
ATOM     22  C   UNL     1       0.884  -1.940   3.246  0.00  0.00    +0.023 A 
ATOM     23  C   UNL     1       0.244  -1.758   2.036  0.00  0.00    +0.006 A 
BRANCH  18  25
ATOM     24  C   UNL     1      -1.695  -3.575  -0.312  0.00  0.00    +0.012 C 
ATOM     25  C   UNL     1      -1.621  -2.244   0.439  0.00  0.00    +0.013 C 
ATOM     26  C   UNL     1      -3.036  -1.720   0.689  0.00  0.00    +0.012 C 
ENDBRANCH  18  25
ENDBRANCH   1  21
BRANCH   4  27
ATOM     27  C   UNL     1       2.316  -3.910   7.669  0.00  0.00    +0.144 C 
BRANCH  27  28
ATOM     28  C   UNL     1       2.527  -5.379   7.406  0.00  0.00    -0.030 A 
ATOM     29  C   UNL     1       1.632  -6.073   6.612  0.00  0.00    +0.009 A 
ATOM     30  C   UNL     1       1.822  -7.419   6.369  0.00  0.00    +0.046 A 
ATOM     31  C   UNL     1       2.913  -8.075   6.922  0.00  0.00    +0.120 A 
ATOM     32  C   UNL     1       3.809  -7.377   7.717  0.00  0.00    +0.046 A 
ATOM     33  C   UNL     1       3.617  -6.029   7.953  0.00  0.00    +0.009 A 
BRANCH  31  34
ATOM     34  O   UNL     1       3.102  -9.400   6.685  0.00  0.00    -0.495 OA
ATOM     35  C   UNL     1       4.246 -10.010   7.286  0.00  0.00    +0.277 C 
ENDBRANCH  31  34
ENDBRANCH  27  28
ENDBRANCH   4  27
TORSDOF 6
