REMARK  Name = ZINC63151348
REMARK  6 active torsions:
REMARK  status: ('A' for Active; 'I' for Inactive)
REMARK    1  A    between atoms: C_1  and  C_2
REMARK    2  A    between atoms: C_5  and  C_8
REMARK    3  A    between atoms: C_8  and  N_9
REMARK    4  A    between atoms: C_10  and  C_12
REMARK    5  A    between atoms: C_12  and  C_17
REMARK    6  A    between atoms: N_18  and  O_19
REMARK                            x       y       z     vdW  Elec       q    Type
REMARK                         _______ _______ _______ _____ _____    ______ ____
ROOT
ATOM      1  N   UNL     1      -0.065  -4.532   2.555  0.00  0.00    -0.314 N 
ATOM      2  C   UNL     1       0.057  -5.864   2.722  0.00  0.00    +0.226 C 
ATOM      3  O   UNL     1      -0.425  -6.623   1.909  0.00  0.00    -0.275 OA
ATOM      4  H   UNL     1       0.254  -3.926   3.242  0.00  0.00    +0.149 HD
ENDROOT
BRANCH   2   5
ATOM      5  C   UNL     1       0.793  -6.409   3.918  0.00  0.00    +0.105 C 
ATOM      6  C   UNL     1       0.845  -7.945   3.850  0.00  0.00    +0.024 C 
ATOM      7  C   UNL     1       0.117  -8.467   5.106  0.00  0.00    +0.001 C 
ATOM      8  C   UNL     1      -0.824  -7.305   5.510  0.00  0.00    +0.001 C 
ATOM      9  C   UNL     1       0.035  -6.051   5.213  0.00  0.00    +0.024 C 
BRANCH   5  10
ATOM     10  C   UNL     1       2.190  -5.846   3.965  0.00  0.00    +0.147 C 
ATOM     11  N   UNL     1       2.596  -5.211   5.015  0.00  0.00    -0.076 NA
ATOM     12  N   UNL     1       3.034  -6.008   2.889  0.00  0.00    -0.343 N 
ATOM     13  H   UNL     1       2.757  -6.547   2.132  0.00  0.00    +0.144 HD
ATOM     14  H   UNL     1       3.906  -5.582   2.888  0.00  0.00    +0.144 HD
BRANCH  11  15
ATOM     15  O   UNL     1       3.909  -4.682   5.059  0.00  0.00    -0.408 OA
ATOM     16  H   UNL     1       4.121  -4.225   5.884  0.00  0.00    +0.328 HD
ENDBRANCH  11  15
ENDBRANCH   5  10
ENDBRANCH   2   5
BRANCH   1  17
ATOM     17  C   UNL     1      -0.679  -3.999   1.336  0.00  0.00    +0.107 C 
BRANCH  17  22
ATOM     18  C   UNL     1      -0.041   1.665   0.304  0.00  0.00    +0.007 C 
ATOM     19  C   UNL     1      -0.025   0.136   0.241  0.00  0.00    -0.014 C 
ATOM     20  C   UNL     1      -1.462  -0.389   0.249  0.00  0.00    +0.003 C 
ATOM     21  C   UNL     1      -1.446  -1.918   0.186  0.00  0.00    +0.005 C 
ATOM     22  C   UNL     1      -0.695  -2.470   1.399  0.00  0.00    +0.006 C 
ATOM     23  C   UNL     1       0.742  -1.945   1.391  0.00  0.00    +0.005 C 
ATOM     24  C   UNL     1       0.727  -0.416   1.454  0.00  0.00    +0.003 C 
ENDBRANCH  17  22
ENDBRANCH   1  17
TORSDOF 5
