REMARK  Name = ZINC17397315
REMARK  8 active torsions:
REMARK  status: ('A' for Active; 'I' for Inactive)
REMARK    1  A    between atoms: C_5  and  N_7
REMARK    2  A    between atoms: N_7  and  S_8
REMARK    3  A    between atoms: S_8  and  C_11
REMARK    4  A    between atoms: C_15  and  C_17
REMARK    5  A    between atoms: N_19  and  N_20
REMARK    6  A    between atoms: C_21  and  C_23
REMARK    7  A    between atoms: C_23  and  N_24
REMARK    8  A    between atoms: C_25  and  C_27
REMARK                            x       y       z     vdW  Elec       q    Type
REMARK                         _______ _______ _______ _____ _____    ______ ____
ROOT
ATOM      1  C   UNL     1       6.227   7.558  -0.143  0.00  0.00    +0.109 A 
ATOM      2  C   UNL     1       7.322   6.713  -0.169  0.00  0.00    +0.029 A 
ATOM      3  C   UNL     1       7.145   5.343  -0.255  0.00  0.00    +0.003 A 
ATOM      4  C   UNL     1       5.873   4.812  -0.310  0.00  0.00    +0.013 A 
ATOM      5  C   UNL     1       4.764   5.659  -0.290  0.00  0.00    +0.040 A 
ATOM      6  C   UNL     1       4.950   7.040  -0.203  0.00  0.00    +0.042 A 
ENDROOT
BRANCH   5   7
ATOM      7  C   UNL     1       3.398   5.097  -0.353  0.00  0.00    +0.260 C 
ATOM      8  O   UNL     1       2.434   5.837  -0.331  0.00  0.00    -0.269 OA
ATOM      9  N   UNL     1       3.222   3.763  -0.437  0.00  0.00    -0.230 N 
ATOM     10  H   UNL     1       3.991   3.172  -0.455  0.00  0.00    +0.173 HD
BRANCH   9  11
ATOM     11  N   UNL     1       1.928   3.230  -0.497  0.00  0.00    -0.233 N 
ATOM     12  C   UNL     1       1.751   1.897  -0.581  0.00  0.00    +0.246 C 
ATOM     13  O   UNL     1       2.713   1.158  -0.603  0.00  0.00    -0.273 OA
ATOM     14  H   UNL     1       1.158   3.821  -0.479  0.00  0.00    +0.173 HD
BRANCH  12  15
ATOM     15  C   UNL     1       0.359   1.323  -0.646  0.00  0.00    +0.202 C 
BRANCH  15  16
ATOM     16  N   UNL     1       0.436  -0.137  -0.731  0.00  0.00    -0.302 N 
ATOM     17  C   UNL     1      -0.694  -0.869  -0.800  0.00  0.00    +0.251 C 
ATOM     18  O   UNL     1      -1.778  -0.316  -0.791  0.00  0.00    -0.270 OA
ATOM     19  H   UNL     1       1.300  -0.578  -0.738  0.00  0.00    +0.150 HD
BRANCH  17  20
ATOM     20  C   UNL     1      -0.617  -2.330  -0.885  0.00  0.00    +0.074 A 
ATOM     21  C   UNL     1      -1.646  -3.256  -0.958  0.00  0.00    +0.021 A 
ATOM     22  C   UNL     1      -1.291  -4.580  -1.033  0.00  0.00    +0.008 A 
ATOM     23  C   UNL     1       0.026  -4.915  -1.024  0.00  0.00    +0.046 A 
ATOM     24  S   UNL     1       0.824  -3.380  -0.915  0.00  0.00    -0.092 S 
ENDBRANCH  17  20
ENDBRANCH  15  16
ENDBRANCH  12  15
ENDBRANCH   9  11
ENDBRANCH   5   7
BRANCH   1  25
ATOM     25  S   UNL     1       6.464   9.301  -0.034  0.00  0.00    +0.072 S 
ATOM     26  O   UNL     1       7.765   9.566  -0.541  0.00  0.00    -0.150 OA
ATOM     27  O   UNL     1       5.298   9.904  -0.576  0.00  0.00    -0.150 OA
BRANCH  25  28
ATOM     28  N   UNL     1       6.495   9.690   1.575  0.00  0.00    -0.215 N 
ATOM     29  H   UNL     1       5.835  10.302   1.939  0.00  0.00    +0.174 HD
BRANCH  28  34
ATOM     30  C   UNL     1       9.717   8.372   2.755  0.00  0.00    +0.002 A 
ATOM     31  C   UNL     1       9.403   8.044   4.062  0.00  0.00    +0.002 A 
ATOM     32  C   UNL     1       8.126   8.262   4.545  0.00  0.00    +0.022 A 
ATOM     33  C   UNL     1       7.158   8.808   3.723  0.00  0.00    +0.063 A 
ATOM     34  C   UNL     1       7.471   9.138   2.410  0.00  0.00    +0.066 A 
ATOM     35  C   UNL     1       8.753   8.913   1.927  0.00  0.00    +0.026 A 
ATOM     36 CL   UNL     1       5.555   9.080   4.330  0.00  0.00    -0.082 Cl
ENDBRANCH  28  34
ENDBRANCH  25  28
ENDBRANCH   1  25
TORSDOF 8
