REMARK  Name = ZINC64962260
REMARK  5 active torsions:
REMARK  status: ('A' for Active; 'I' for Inactive)
REMARK    1  A    between atoms: C_1  and  C_2
REMARK    2  A    between atoms: N_7  and  S_8
REMARK    3  A    between atoms: S_8  and  C_11
REMARK    4  A    between atoms: C_14  and  S_17
REMARK    5  A    between atoms: S_17  and  C_18
REMARK                            x       y       z     vdW  Elec       q    Type
REMARK                         _______ _______ _______ _____ _____    ______ ____
ROOT
ATOM      1  S   UNL     1      -0.096  -5.153  -0.024  0.00  0.00    +0.101 S 
ATOM      2  O   UNL     1      -0.774  -5.121   1.224  0.00  0.00    -0.146 OA
ATOM      3  O   UNL     1      -0.785  -5.108  -1.266  0.00  0.00    -0.146 OA
ENDROOT
BRANCH   1  10
ATOM      4  C   UNL     1      -0.018   1.503   0.010  0.00  0.00    +0.053 C 
ATOM      5  C   UNL     1       0.002  -0.004   0.002  0.00  0.00    +0.006 A 
ATOM      6  C   UNL     1      -1.023  -0.856   0.002  0.00  0.00    +0.095 A 
ATOM      7  N   UNL     1      -0.798  -2.201  -0.006  0.00  0.00    -0.339 N 
ATOM      8  C   UNL     1       0.505  -2.649  -0.014  0.00  0.00    +0.192 A 
ATOM      9  S   UNL     1       1.406  -1.107  -0.018  0.00  0.00    -0.054 S 
ATOM     10  N   UNL     1       0.961  -3.878  -0.022  0.00  0.00    -0.103 NA
ATOM     11  H   UNL     1      -1.538  -2.828  -0.006  0.00  0.00    +0.167 HD
ENDBRANCH   1  10
BRANCH   1  12
ATOM     12  C   UNL     1       0.868  -6.628  -0.036  0.00  0.00    +0.113 A 
ATOM     13  C   UNL     1       1.245  -7.196  -1.239  0.00  0.00    +0.030 A 
ATOM     14  C   UNL     1       1.999  -8.352  -1.252  0.00  0.00    +0.017 A 
ATOM     15  C   UNL     1       2.381  -8.945  -0.054  0.00  0.00    +0.016 A 
ATOM     16  C   UNL     1       2.001  -8.371   1.153  0.00  0.00    +0.017 A 
ATOM     17  C   UNL     1       1.250  -7.212   1.158  0.00  0.00    +0.030 A 
BRANCH  15  18
ATOM     18  S   UNL     1       3.344 -10.421  -0.066  0.00  0.00    -0.016 S 
BRANCH  18  19
ATOM     19  C   UNL     1       3.585 -10.801   1.691  0.00  0.00    +0.448 C 
ATOM     20  F   UNL     1       2.341 -10.989   2.303  0.00  0.00    -0.160 F 
ATOM     21  F   UNL     1       4.346 -11.969   1.815  0.00  0.00    -0.160 F 
ATOM     22  F   UNL     1       4.254  -9.740   2.311  0.00  0.00    -0.160 F 
ENDBRANCH  18  19
ENDBRANCH  15  18
ENDBRANCH   1  12
TORSDOF 4
