REMARK  Name = ZINC20617570
REMARK  8 active torsions:
REMARK  status: ('A' for Active; 'I' for Inactive)
REMARK    1  A    between atoms: C_1  and  C_2
REMARK    2  A    between atoms: C_6  and  C_18
REMARK    3  A    between atoms: N_8  and  C_9
REMARK    4  A    between atoms: C_12  and  O_15
REMARK    5  A    between atoms: O_15  and  C_16
REMARK    6  A    between atoms: N_20  and  C_21
REMARK    7  A    between atoms: C_28  and  C_31
REMARK    8  A    between atoms: C_31  and  O_32
REMARK                            x       y       z     vdW  Elec       q    Type
REMARK                         _______ _______ _______ _____ _____    ______ ____
ROOT
ATOM      1  C   UNL     1       1.723   0.907   0.313  0.00  0.00    +0.069 C 
ATOM      2  C   UNL     1       0.793  -0.270   0.161  0.00  0.00    +0.081 A 
ATOM      3  C   UNL     1       0.358  -0.647  -1.102  0.00  0.00    +0.159 A 
ATOM      4  C   UNL     1      -0.508  -1.750  -1.219  0.00  0.00    +0.027 A 
ATOM      5  C   UNL     1      -0.974  -2.168  -2.543  0.00  0.00    +0.030 A 
ATOM      6  C   UNL     1      -0.334  -1.629  -3.637  0.00  0.00    +0.098 A 
ATOM      7  C   UNL     1       0.767  -0.679  -3.376  0.00  0.00    +0.212 A 
ATOM      8  N   UNL     1       1.738  -0.517  -4.247  0.00  0.00    -0.325 N 
ATOM      9  O   UNL     1       0.748   0.022  -2.213  0.00  0.00    -0.437 OA
ATOM     10  C   UNL     1      -0.900  -2.421  -0.054  0.00  0.00    +0.007 A 
ATOM     11  C   UNL     1      -0.416  -1.972   1.158  0.00  0.00    +0.117 A 
ATOM     12  N   UNL     1       0.402  -0.938   1.227  0.00  0.00    -0.256 NA
ATOM     13  H   UNL     1       1.841  -1.142  -4.981  0.00  0.00    +0.169 HD
ENDROOT
BRANCH   8  14
ATOM     14  C   UNL     1       2.605   0.534  -4.116  0.00  0.00    +0.042 A 
ATOM     15  C   UNL     1       2.119   1.811  -3.827  0.00  0.00    +0.029 A 
ATOM     16  C   UNL     1       2.996   2.867  -3.697  0.00  0.00    +0.047 A 
ATOM     17  C   UNL     1       4.360   2.663  -3.853  0.00  0.00    +0.120 A 
ATOM     18  C   UNL     1       4.848   1.396  -4.141  0.00  0.00    +0.047 A 
ATOM     19  C   UNL     1       3.979   0.332  -4.267  0.00  0.00    +0.029 A 
BRANCH  17  20
ATOM     20  O   UNL     1       5.221   3.708  -3.725  0.00  0.00    -0.495 OA
ATOM     21  C   UNL     1       6.611   3.427  -3.898  0.00  0.00    +0.277 C 
ENDBRANCH  17  20
ENDBRANCH   8  14
BRANCH   6  22
ATOM     22  C   UNL     1      -0.731  -1.986  -5.011  0.00  0.00    +0.253 C 
ATOM     23  O   UNL     1      -1.562  -2.854  -5.198  0.00  0.00    -0.270 OA
ATOM     24  N   UNL     1      -0.172  -1.351  -6.060  0.00  0.00    -0.281 N 
ATOM     25  H   UNL     1       0.512  -0.679  -5.912  0.00  0.00    +0.155 HD
BRANCH  24  26
ATOM     26  C   UNL     1      -0.579  -1.660  -7.362  0.00  0.00    +0.034 A 
ATOM     27  C   UNL     1      -1.023  -2.940  -7.667  0.00  0.00    +0.024 A 
ATOM     28  C   UNL     1      -1.424  -3.243  -8.953  0.00  0.00    +0.017 A 
ATOM     29  C   UNL     1      -1.384  -2.272  -9.938  0.00  0.00    +0.018 A 
ATOM     30  C   UNL     1      -0.942  -0.996  -9.637  0.00  0.00    +0.017 A 
ATOM     31  C   UNL     1      -0.545  -0.686  -8.351  0.00  0.00    +0.024 A 
ATOM     32 BR   UNL     1      -1.935  -2.690 -11.698  0.00  0.00    -0.050 Br
ENDBRANCH  24  26
ENDBRANCH   6  22
BRANCH  10  33
ATOM     33  C   UNL     1      -1.828  -3.606  -0.122  0.00  0.00    +0.193 C 
BRANCH  33  34
ATOM     34  O   UNL     1      -2.066  -4.101   1.197  0.00  0.00    -0.390 OA
ATOM     35  H   UNL     1      -2.657  -4.866   1.230  0.00  0.00    +0.210 HD
ENDBRANCH  33  34
ENDBRANCH  10  33
TORSDOF 6
