REMARK  Name = ZINC08770190
REMARK  10 active torsions:
REMARK  status: ('A' for Active; 'I' for Inactive)
REMARK    1  A    between atoms: C_1  and  C_2
REMARK    2  A    between atoms: C_3  and  C_12
REMARK    3  A    between atoms: C_14  and  C_19
REMARK    4  A    between atoms: C_16  and  C_17
REMARK    5  A    between atoms: C_16  and  C_18
REMARK    6  A    between atoms: C_19  and  C_20
REMARK    7  A    between atoms: C_20  and  N_21
REMARK    8  A    between atoms: C_22  and  C_24
REMARK    9  A    between atoms: C_25  and  C_36
REMARK   10  A    between atoms: N_26  and  C_29
REMARK                            x       y       z     vdW  Elec       q    Type
REMARK                         _______ _______ _______ _____ _____    ______ ____
ROOT
ATOM      1  N   UNL     1      -1.460  10.010   2.376  0.00  0.00    -0.310 N 
ATOM      2  C   UNL     1      -1.484  10.792   3.473  0.00  0.00    +0.266 C 
ATOM      3  O   UNL     1      -0.498  10.878   4.181  0.00  0.00    -0.268 OA
ATOM      4  H   UNL     1      -2.246   9.942   1.812  0.00  0.00    +0.149 HD
ENDROOT
BRANCH   2   5
ATOM      5  C   UNL     1      -2.703  11.543   3.816  0.00  0.00    +0.175 A 
ATOM      6  C   UNL     1      -2.864  12.381   4.913  0.00  0.00    +0.107 A 
ATOM      7  N   UNL     1      -4.139  12.864   4.840  0.00  0.00    -0.212 N 
ATOM      8  N   UNL     1      -4.716  12.300   3.695  0.00  0.00    -0.059 NA
ATOM      9  N   UNL     1      -3.851  11.540   3.120  0.00  0.00    -0.124 NA
BRANCH   7  10
ATOM     10  C   UNL     1      -4.751  13.750   5.737  0.00  0.00    +0.068 A 
ATOM     11  C   UNL     1      -4.457  13.682   7.092  0.00  0.00    +0.029 A 
ATOM     12  C   UNL     1      -5.056  14.561   7.972  0.00  0.00    +0.022 A 
ATOM     13  C   UNL     1      -5.960  15.500   7.507  0.00  0.00    +0.041 A 
ATOM     14  C   UNL     1      -6.260  15.565   6.157  0.00  0.00    +0.022 A 
ATOM     15  C   UNL     1      -5.658  14.693   5.272  0.00  0.00    +0.029 A 
ATOM     16 CL   UNL     1      -6.718  16.598   8.617  0.00  0.00    -0.084 Cl
ENDBRANCH   7  10
BRANCH   6  17
ATOM     17  C   UNL     1      -1.857  12.689   5.950  0.00  0.00    +0.003 A 
ATOM     18  C   UNL     1      -1.659  14.007   6.367  0.00  0.00    +0.010 A 
ATOM     19  C   UNL     1      -0.721  14.286   7.339  0.00  0.00    +0.001 A 
ATOM     20  C   UNL     1       0.030  13.265   7.894  0.00  0.00    +0.000 A 
ATOM     21  C   UNL     1      -0.157  11.957   7.481  0.00  0.00    +0.001 A 
ATOM     22  C   UNL     1      -1.095  11.663   6.514  0.00  0.00    +0.010 A 
ENDBRANCH   6  17
ENDBRANCH   2   5
BRANCH   1  23
ATOM     23  C   UNL     1      -0.246   9.263   2.035  0.00  0.00    +0.105 C 
BRANCH  23  24
ATOM     24  C   UNL     1      -0.484   8.462   0.753  0.00  0.00    +0.023 C 
BRANCH  24  26
ATOM     25  C   UNL     1       0.705   6.288  -0.085  0.00  0.00    +0.031 C 
ATOM     26  C   UNL     1       0.809   7.751   0.349  0.00  0.00    +0.005 C 
ATOM     27  C   UNL     1       0.979   7.376  -1.125  0.00  0.00    -0.024 C 
ATOM     28  C   UNL     1       2.388   7.451  -1.716  0.00  0.00    +0.012 C 
ATOM     29  C   UNL     1      -0.158   7.740  -2.082  0.00  0.00    +0.012 C 
BRANCH  25  32
ATOM     30  C   UNL     1      -1.208   6.083   2.350  0.00  0.00    +0.063 C 
ATOM     31  C   UNL     1      -1.497   5.564   0.966  0.00  0.00    +0.017 A 
ATOM     32  C   UNL     1      -0.663   5.657  -0.082  0.00  0.00    -0.016 A 
ATOM     33  C   UNL     1      -1.336   5.028  -1.222  0.00  0.00    +0.003 A 
ATOM     34  C   UNL     1      -0.988   4.816  -2.557  0.00  0.00    +0.010 A 
ATOM     35  C   UNL     1      -1.862   4.180  -3.393  0.00  0.00    +0.001 A 
ATOM     36  C   UNL     1      -3.094   3.742  -2.924  0.00  0.00    +0.002 A 
ATOM     37  C   UNL     1      -3.459   3.945  -1.612  0.00  0.00    +0.026 A 
ATOM     38  C   UNL     1      -2.582   4.586  -0.742  0.00  0.00    +0.047 A 
ATOM     39  N   UNL     1      -2.649   4.927   0.590  0.00  0.00    -0.358 N 
ATOM     40  H   UNL     1      -3.400   4.743   1.176  0.00  0.00    +0.166 HD
ENDBRANCH  25  32
ENDBRANCH  24  26
ENDBRANCH  23  24
ENDBRANCH   1  23
TORSDOF 7
