REMARK  Name = ZINC08442320
REMARK  8 active torsions:
REMARK  status: ('A' for Active; 'I' for Inactive)
REMARK    1  A    between atoms: C_1  and  C_2
REMARK    2  A    between atoms: C_2  and  O_3
REMARK    3  A    between atoms: O_3  and  C_4
REMARK    4  A    between atoms: C_4  and  C_6
REMARK    5  A    between atoms: C_6  and  C_31
REMARK    6  A    between atoms: C_11  and  C_28
REMARK    7  A    between atoms: C_14  and  C_25
REMARK    8  A    between atoms: C_16  and  C_18
REMARK                            x       y       z     vdW  Elec       q    Type
REMARK                         _______ _______ _______ _____ _____    ______ ____
ROOT
ATOM      1  C   UNL     1       1.959   1.912   0.271  0.00  0.00    +0.184 C 
ATOM      2  C   UNL     1       0.843   2.962   0.145  0.00  0.00    +0.128 C 
ATOM      3  C   UNL     1      -0.505   2.302  -0.007  0.00  0.00    -0.002 C 
ATOM      4  C   UNL     1      -1.573   2.886   0.530  0.00  0.00    +0.012 C 
ATOM      5  C   UNL     1      -1.461   4.158   1.273  0.00  0.00    +0.050 C 
ATOM      6  C   UNL     1      -0.226   4.562   1.727  0.00  0.00    +0.084 C 
ATOM      7  N   UNL     1       0.811   3.734   1.403  0.00  0.00    -0.314 N 
ATOM      8  C   UNL     1       2.007   3.369   2.190  0.00  0.00    +0.169 C 
ATOM      9  C   UNL     1       2.282   1.893   1.788  0.00  0.00    +0.081 C 
ENDROOT
BRANCH   9  10
ATOM     10  C   UNL     1       3.725   1.530   2.028  0.00  0.00    -0.039 A 
ATOM     11  C   UNL     1       4.406   2.075   3.102  0.00  0.00    +0.004 A 
ATOM     12  C   UNL     1       5.729   1.742   3.322  0.00  0.00    +0.001 A 
ATOM     13  C   UNL     1       6.372   0.864   2.469  0.00  0.00    +0.014 A 
ATOM     14  C   UNL     1       5.692   0.319   1.396  0.00  0.00    +0.014 A 
ATOM     15  C   UNL     1       4.366   0.648   1.179  0.00  0.00    +0.018 A 
ATOM     16  I   UNL     1       6.666  -1.011   0.103  0.00  0.00    -0.044 I 
ENDBRANCH   9  10
BRANCH   8  17
ATOM     17  C   UNL     1       3.171   4.247   1.811  0.00  0.00    +0.232 C 
ATOM     18  O   UNL     1       3.283   4.648   0.672  0.00  0.00    -0.274 OA
ATOM     19  N   UNL     1       4.088   4.588   2.738  0.00  0.00    -0.328 N 
ATOM     20  H   UNL     1       3.955   4.338   3.666  0.00  0.00    +0.145 HD
ATOM     21  H   UNL     1       4.880   5.083   2.478  0.00  0.00    +0.145 HD
ENDBRANCH   8  17
BRANCH   5  22
ATOM     22  C   UNL     1      -2.650   4.982   1.518  0.00  0.00    +0.243 C 
ATOM     23  O   UNL     1      -2.548   6.031   2.127  0.00  0.00    -0.270 OA
ATOM     24  N   UNL     1      -3.854   4.577   1.068  0.00  0.00    -0.325 N 
ATOM     25  H   UNL     1      -3.935   3.741   0.583  0.00  0.00    +0.145 HD
ATOM     26  H   UNL     1      -4.640   5.122   1.230  0.00  0.00    +0.145 HD
ENDBRANCH   5  22
BRANCH   1  27
ATOM     27  C   UNL     1       3.170   2.329  -0.523  0.00  0.00    +0.330 C 
ATOM     28  O   UNL     1       4.183   2.659   0.048  0.00  0.00    -0.249 OA
BRANCH  27  29
ATOM     29  O   UNL     1       3.124   2.336  -1.864  0.00  0.00    -0.464 OA
BRANCH  29  31
ATOM     30  C   UNL     1       4.086   2.692  -4.073  0.00  0.00    +0.048 C 
ATOM     31  C   UNL     1       4.328   2.749  -2.563  0.00  0.00    +0.229 C 
ENDBRANCH  29  31
ENDBRANCH  27  29
ENDBRANCH   1  27
BRANCH   1  32
ATOM     32  C   UNL     1       1.481   0.593  -0.175  0.00  0.00    +0.084 C 
ATOM     33  N   UNL     1       1.112  -0.425  -0.518  0.00  0.00    -0.195 NA
ENDBRANCH   1  32
TORSDOF 7
