REMARK  Name = ZINC39661279
REMARK  6 active torsions:
REMARK  status: ('A' for Active; 'I' for Inactive)
REMARK    1  A    between atoms: C_1  and  O_2
REMARK    2  A    between atoms: O_2  and  C_3
REMARK    3  A    between atoms: C_6  and  C_13
REMARK    4  A    between atoms: C_8  and  C_9
REMARK    5  A    between atoms: C_17  and  C_26
REMARK    6  A    between atoms: N_28  and  C_29
REMARK                            x       y       z     vdW  Elec       q    Type
REMARK                         _______ _______ _______ _____ _____    ______ ____
ROOT
ATOM      1  C   UNL     1      -4.960  -2.621   0.032  0.00  0.00    +0.247 C 
ATOM      2  O   UNL     1      -5.013  -3.831  -0.079  0.00  0.00    -0.270 OA
ATOM      3  N   UNL     1      -6.096  -1.905   0.144  0.00  0.00    -0.296 N 
ATOM      4  C   UNL     1      -6.242  -0.430   0.160  0.00  0.00    +0.121 C 
ATOM      5  C   UNL     1      -7.519  -0.155  -0.666  0.00  0.00    +0.100 C 
ATOM      6  C   UNL     1      -8.329  -1.460  -0.582  0.00  0.00    -0.004 C 
ATOM      7  C   UNL     1      -7.483  -2.413   0.274  0.00  0.00    +0.115 C 
ATOM      8  C   UNL     1      -8.530  -2.048  -1.975  0.00  0.00    -0.010 C 
ATOM      9  C   UNL     1      -9.386  -3.313  -1.871  0.00  0.00    -0.082 C 
ATOM     10  N   UNL     1     -10.682  -2.981  -1.267  0.00  0.00    +0.379 N 
ATOM     11  C   UNL     1     -10.486  -2.502   0.107  0.00  0.00    -0.082 C 
ATOM     12  C   UNL     1      -9.676  -1.203   0.086  0.00  0.00    -0.010 C 
ATOM     13  H   UNL     1     -11.130  -2.260  -1.812  0.00  0.00    -0.086 HD
ATOM     14  H   UNL     1     -11.267  -3.803  -1.255  0.00  0.00    -0.086 HD
ENDROOT
BRANCH   1  18
ATOM     15  C   UNL     1      -1.196  -0.655   0.067  0.00  0.00    +0.132 A 
ATOM     16  C   UNL     1      -2.297  -0.057   0.671  0.00  0.00    +0.047 A 
ATOM     17  C   UNL     1      -3.519  -0.691   0.661  0.00  0.00    +0.016 A 
ATOM     18  C   UNL     1      -3.652  -1.938   0.044  0.00  0.00    +0.038 A 
ATOM     19  C   UNL     1      -2.544  -2.536  -0.561  0.00  0.00    +0.029 A 
ATOM     20  C   UNL     1      -1.326  -1.892  -0.552  0.00  0.00    +0.097 A 
BRANCH  20  21
ATOM     21  C   UNL     1      -0.132  -2.534  -1.210  0.00  0.00    +0.421 C 
ATOM     22  F   UNL     1      -0.507  -3.764  -1.760  0.00  0.00    -0.166 F 
ATOM     23  F   UNL     1       0.348  -1.697  -2.223  0.00  0.00    -0.166 F 
ATOM     24  F   UNL     1       0.873  -2.736  -0.257  0.00  0.00    -0.166 F 
ENDBRANCH  20  21
BRANCH  15  26
ATOM     25  C   UNL     1       0.069   1.242   0.732  0.00  0.00    +0.277 C 
ATOM     26  O   UNL     1       0.006  -0.027   0.078  0.00  0.00    -0.495 OA
ENDBRANCH  15  26
ENDBRANCH   1  18
BRANCH   5  27
ATOM     27  C   UNL     1      -7.161   0.152  -2.098  0.00  0.00    +0.219 C 
ATOM     28  O   UNL     1      -6.221  -0.407  -2.622  0.00  0.00    -0.275 OA
ATOM     29  N   UNL     1      -7.887   1.047  -2.797  0.00  0.00    -0.304 N 
ATOM     30  H   UNL     1      -8.639   1.494  -2.378  0.00  0.00    +0.149 HD
BRANCH  29  31
ATOM     31  C   UNL     1      -7.540   1.345  -4.188  0.00  0.00    +0.151 C 
ATOM     32  C   UNL     1      -8.798   1.805  -4.928  0.00  0.00    +0.042 C 
ATOM     33  C   UNL     1      -8.348   2.641  -6.149  0.00  0.00    +0.079 C 
ATOM     34  S   UNL     1      -6.770   3.358  -5.547  0.00  0.00    -0.086 S 
ATOM     35  C   UNL     1      -6.457   2.398  -4.210  0.00  0.00    +0.209 C 
ATOM     36  O   UNL     1      -5.544   2.522  -3.420  0.00  0.00    -0.283 OA
ENDBRANCH  29  31
ENDBRANCH   5  27
TORSDOF 5
