REMARK  Name = ZINC20906137
REMARK  13 active torsions:
REMARK  status: ('A' for Active; 'I' for Inactive)
REMARK    1  A    between atoms: C_1  and  C_2
REMARK    2  A    between atoms: C_2  and  C_33
REMARK    3  A    between atoms: C_4  and  N_10
REMARK    4  A    between atoms: C_6  and  C_8
REMARK    5  A    between atoms: C_6  and  C_9
REMARK    6  A    between atoms: C_11  and  C_13
REMARK    7  A    between atoms: C_13  and  S_14
REMARK    8  A    between atoms: S_14  and  C_15
REMARK    9  A    between atoms: N_20  and  N_21
REMARK   10  A    between atoms: C_22  and  C_23
REMARK   11  A    between atoms: C_26  and  C_29
REMARK   12  A    between atoms: C_29  and  O_31
REMARK   13  A    between atoms: O_31  and  C_32
REMARK                            x       y       z     vdW  Elec       q    Type
REMARK                         _______ _______ _______ _____ _____    ______ ____
ROOT
ATOM      1  C   UNL     1      -6.902   9.456   0.088  0.00  0.00    +0.211 A 
ATOM      2  N   UNL     1      -7.371   8.169   0.082  0.00  0.00    -0.186 NA
ATOM      3  C   UNL     1      -6.257   7.370   0.072  0.00  0.00    +0.232 A 
ATOM      4  N   UNL     1      -5.214   8.162   0.078  0.00  0.00    -0.245 N 
ATOM      5  N   UNL     1      -5.593   9.390   0.082  0.00  0.00    -0.144 NA
ATOM      6  N   UNL     1      -6.238   5.982   0.064  0.00  0.00    -0.205 N 
ATOM      7  H   UNL     1      -7.183   5.420   0.065  0.00  0.00    +0.177 HD
ATOM      8  H   UNL     1      -4.200   7.736   0.079  0.00  0.00    +0.192 HD
ENDROOT
BRANCH   6   9
ATOM      9  N   UNL     1      -5.016   5.299   0.055  0.00  0.00    -0.188 NA
ATOM     10  C   UNL     1      -4.998   3.999   0.048  0.00  0.00    +0.138 C 
BRANCH  10  11
ATOM     11  C   UNL     1      -3.714   3.280   0.038  0.00  0.00    -0.005 A 
ATOM     12  C   UNL     1      -3.695   1.881   0.030  0.00  0.00    +0.010 A 
ATOM     13  C   UNL     1      -2.503   1.215   0.021  0.00  0.00    +0.015 A 
ATOM     14  C   UNL     1      -1.301   1.931   0.019  0.00  0.00    +0.059 A 
ATOM     15  C   UNL     1      -1.320   3.329   0.032  0.00  0.00    +0.015 A 
ATOM     16  C   UNL     1      -2.511   3.996   0.037  0.00  0.00    +0.010 A 
BRANCH  14  17
ATOM     17  C   UNL     1      -0.014   1.211   0.009  0.00  0.00    +0.339 C 
ATOM     18  O   UNL     1       0.002  -0.004   0.002  0.00  0.00    -0.245 OA
BRANCH  17  19
ATOM     19  O   UNL     1       1.143   1.901   0.001  0.00  0.00    -0.464 OA
ATOM     20  C   UNL     1       2.372   1.127  -0.015  0.00  0.00    +0.280 C 
ENDBRANCH  17  19
ENDBRANCH  14  17
ENDBRANCH  10  11
ENDBRANCH   6   9
BRANCH   1  21
ATOM     21  S   UNL     1      -7.875  10.925   0.101  0.00  0.00    -0.075 S 
BRANCH  21  22
ATOM     22  C   UNL     1      -6.563  12.171   0.104  0.00  0.00    +0.173 C 
BRANCH  22  24
ATOM     23  N   UNL     1      -6.387  14.639   0.118  0.00  0.00    -0.312 N 
ATOM     24  C   UNL     1      -7.178  13.547   0.115  0.00  0.00    +0.224 C 
ATOM     25  O   UNL     1      -8.384  13.673   0.120  0.00  0.00    -0.275 OA
ATOM     26  H   UNL     1      -5.293  14.525   0.114  0.00  0.00    +0.149 HD
BRANCH  23  30
ATOM     27  C   UNL     1      -7.639  18.487   1.853  0.00  0.00    -0.010 C 
ATOM     28  C   UNL     1      -6.583  18.377   0.746  0.00  0.00    -0.072 C 
ATOM     29  C   UNL     1      -5.994  16.968   0.742  0.00  0.00    +0.009 C 
ATOM     30  C   UNL     1      -6.986  15.979   0.129  0.00  0.00    +0.070 C 
ATOM     31  C   UNL     1      -7.278  16.411  -1.307  0.00  0.00    +0.009 C 
ATOM     32  C   UNL     1      -7.881  17.814  -1.329  0.00  0.00    -0.072 C 
ATOM     33  N   UNL     1      -7.129  18.765  -0.538  0.00  0.00    +0.386 N 
ATOM     34  C   UNL     1      -9.344  17.749  -0.874  0.00  0.00    -0.010 C 
ATOM     35  C   UNL     1      -7.879  18.298  -2.796  0.00  0.00    -0.010 C 
ATOM     36  C   UNL     1      -5.443  19.357   1.102  0.00  0.00    -0.010 C 
ATOM     37  H   UNL     1      -7.827  19.604  -0.401  0.00  0.00    -0.084 HD
ATOM     38  H   UNL     1      -6.311  19.074  -1.205  0.00  0.00    -0.084 HD
ENDBRANCH  23  30
ENDBRANCH  22  24
ENDBRANCH  21  22
ENDBRANCH   1  21
TORSDOF 8
