REMARK  Name = ZINC06155205
REMARK  9 active torsions:
REMARK  status: ('A' for Active; 'I' for Inactive)
REMARK    1  A    between atoms: C_4  and  C_7
REMARK    2  A    between atoms: N_8  and  C_9
REMARK    3  A    between atoms: C_9  and  S_10
REMARK    4  A    between atoms: S_10  and  C_13
REMARK    5  A    between atoms: N_19  and  C_20
REMARK    6  A    between atoms: C_20  and  N_22
REMARK    7  A    between atoms: N_22  and  N_23
REMARK    8  A    between atoms: N_23  and  C_24
REMARK    9  A    between atoms: N_23  and  C_30
REMARK                            x       y       z     vdW  Elec       q    Type
REMARK                         _______ _______ _______ _____ _____    ______ ____
ROOT
ATOM      1  C   UNL     1       3.494  -1.229   0.488  0.00  0.00    +0.106 C 
ATOM      2  N   UNL     1       3.533  -2.514   0.286  0.00  0.00    -0.354 N 
ATOM      3  N   UNL     1       4.670  -0.508   0.586  0.00  0.00    -0.282 N 
ATOM      4  H   UNL     1       4.651   0.412   0.889  0.00  0.00    +0.155 HD
ATOM      5  H   UNL     1       4.372  -2.994   0.373  0.00  0.00    +0.162 HD
ENDROOT
BRANCH   1   9
ATOM      6  C   UNL     1      -0.247   0.753   0.850  0.00  0.00    +0.000 A 
ATOM      7  C   UNL     1      -0.064  -0.485   1.438  0.00  0.00    +0.001 A 
ATOM      8  C   UNL     1       1.148  -1.134   1.324  0.00  0.00    +0.011 A 
ATOM      9  C   UNL     1       2.191  -0.538   0.614  0.00  0.00    +0.013 A 
ATOM     10  C   UNL     1       2.000   0.711   0.023  0.00  0.00    +0.011 A 
ATOM     11  C   UNL     1       0.783   1.349   0.144  0.00  0.00    +0.001 A 
ENDBRANCH   1   9
BRANCH   3  12
ATOM     12  C   UNL     1       5.844  -1.086   0.259  0.00  0.00    +0.152 C 
ATOM     13  S   UNL     1       5.862  -2.643  -0.452  0.00  0.00    -0.017 S 
BRANCH  12  14
ATOM     14  N   UNL     1       7.002  -0.437   0.491  0.00  0.00    -0.241 N 
ATOM     15  H   UNL     1       7.846  -0.853   0.256  0.00  0.00    +0.172 HD
BRANCH  14  16
ATOM     16  N   UNL     1       6.987   0.837   1.073  0.00  0.00    -0.221 N 
BRANCH  16  17
ATOM     17  C   UNL     1       7.350   0.998   2.412  0.00  0.00    +0.053 A 
ATOM     18  C   UNL     1       7.168  -0.044   3.313  0.00  0.00    +0.025 A 
ATOM     19  C   UNL     1       7.529   0.119   4.636  0.00  0.00    +0.002 A 
ATOM     20  C   UNL     1       8.069   1.317   5.065  0.00  0.00    +0.000 A 
ATOM     21  C   UNL     1       8.250   2.357   4.171  0.00  0.00    +0.002 A 
ATOM     22  C   UNL     1       7.898   2.199   2.845  0.00  0.00    +0.025 A 
ENDBRANCH  16  17
BRANCH  16  23
ATOM     23  C   UNL     1       6.608   1.947   0.313  0.00  0.00    +0.053 A 
ATOM     24  C   UNL     1       6.804   1.949  -1.062  0.00  0.00    +0.025 A 
ATOM     25  C   UNL     1       6.429   3.048  -1.810  0.00  0.00    +0.002 A 
ATOM     26  C   UNL     1       5.859   4.145  -1.191  0.00  0.00    +0.000 A 
ATOM     27  C   UNL     1       5.663   4.147   0.178  0.00  0.00    +0.002 A 
ATOM     28  C   UNL     1       6.030   3.049   0.931  0.00  0.00    +0.025 A 
ENDBRANCH  16  23
ENDBRANCH  14  16
ENDBRANCH  12  14
ENDBRANCH   3  12
BRANCH   2  29
ATOM     29  C   UNL     1       2.310  -3.236  -0.074  0.00  0.00    +0.288 C 
BRANCH  29  30
ATOM     30  S   UNL     1       2.552  -4.082  -1.660  0.00  0.00    +0.015 S 
ATOM     31  O   UNL     1       1.396  -4.839  -1.992  0.00  0.00    -0.168 OA
ATOM     32  O   UNL     1       3.133  -3.194  -2.605  0.00  0.00    -0.168 OA
BRANCH  30  33
ATOM     33  C   UNL     1       3.802  -5.284  -1.346  0.00  0.00    +0.090 A 
ATOM     34  C   UNL     1       5.134  -4.957  -1.515  0.00  0.00    +0.027 A 
ATOM     35  C   UNL     1       6.114  -5.899  -1.268  0.00  0.00    +0.002 A 
ATOM     36  C   UNL     1       5.763  -7.170  -0.853  0.00  0.00    +0.000 A 
ATOM     37  C   UNL     1       4.430  -7.498  -0.684  0.00  0.00    +0.002 A 
ATOM     38  C   UNL     1       3.450  -6.553  -0.926  0.00  0.00    +0.027 A 
ENDBRANCH  30  33
ENDBRANCH  29  30
ENDBRANCH   2  29
TORSDOF 9
