REMARK  Name = ZINC09350520
REMARK  18 active torsions:
REMARK  status: ('A' for Active; 'I' for Inactive)
REMARK    1  A    between atoms: C_1  and  C_2
REMARK    2  A    between atoms: C_2  and  N_72
REMARK    3  A    between atoms: C_3  and  C_4
REMARK    4  A    between atoms: C_3  and  N_72
REMARK    5  A    between atoms: C_5  and  C_6
REMARK    6  A    between atoms: C_5  and  N_72
REMARK    7  A    between atoms: C_6  and  N_7
REMARK    8  A    between atoms: C_8  and  C_27
REMARK    9  A    between atoms: C_11  and  C_12
REMARK   10  A    between atoms: C_11  and  O_22
REMARK   11  A    between atoms: C_15  and  O_18
REMARK   12  A    between atoms: O_18  and  C_19
REMARK   13  A    between atoms: C_19  and  C_20
REMARK   14  A    between atoms: C_19  and  C_21
REMARK   15  A    between atoms: C_30  and  O_36
REMARK   16  A    between atoms: C_31  and  O_33
REMARK   17  A    between atoms: O_33  and  C_34
REMARK   18  A    between atoms: C_34  and  C_35
REMARK                            x       y       z     vdW  Elec       q    Type
REMARK                         _______ _______ _______ _____ _____    ______ ____
ROOT
ATOM      1  N   UNL     1      -0.482  -3.093  -0.494  0.00  0.00    -0.285 N 
ATOM      2  C   UNL     1      -0.924  -3.378   0.874  0.00  0.00    +0.144 C 
ATOM      3  C   UNL     1      -1.183  -4.865   0.944  0.00  0.00    +0.071 C 
ATOM      4  C   UNL     1      -1.617  -5.581   2.043  0.00  0.00    +0.133 C 
ATOM      5  C   UNL     1      -0.895  -5.372  -0.332  0.00  0.00    +0.249 C 
ATOM      6  O   UNL     1      -0.983  -6.537  -0.674  0.00  0.00    -0.282 OA
ATOM      7  C   UNL     1      -0.469  -4.238  -1.196  0.00  0.00    +0.288 C 
ATOM      8  O   UNL     1      -0.153  -4.335  -2.364  0.00  0.00    -0.266 OA
ENDROOT
BRANCH   4   9
ATOM      9  C   UNL     1      -1.958  -7.005   1.905  0.00  0.00    +0.017 A 
ATOM     10  C   UNL     1      -2.926  -7.409   0.979  0.00  0.00    +0.015 A 
ATOM     11  C   UNL     1      -3.238  -8.743   0.850  0.00  0.00    +0.046 A 
ATOM     12  C   UNL     1      -2.600  -9.689   1.646  0.00  0.00    +0.121 A 
ATOM     13  C   UNL     1      -1.640  -9.292   2.572  0.00  0.00    +0.046 A 
ATOM     14  C   UNL     1      -1.318  -7.961   2.704  0.00  0.00    +0.015 A 
BRANCH  12  15
ATOM     15  O   UNL     1      -2.914 -11.003   1.519  0.00  0.00    -0.489 OA
BRANCH  15  16
ATOM     16  C   UNL     1      -3.989 -11.330   0.637  0.00  0.00    +0.167 C 
ATOM     17  C   UNL     1      -3.460 -11.438  -0.794  0.00  0.00    +0.051 C 
ATOM     18  C   UNL     1      -4.603 -12.668   1.055  0.00  0.00    +0.051 C 
ENDBRANCH  15  16
ENDBRANCH  12  15
ENDBRANCH   4   9
BRANCH   2  19
ATOM     19  C   UNL     1      -2.190  -2.618   1.176  0.00  0.00    -0.019 A 
ATOM     20  C   UNL     1      -3.174  -2.504   0.211  0.00  0.00    +0.009 A 
ATOM     21  C   UNL     1      -4.337  -1.808   0.484  0.00  0.00    +0.049 A 
ATOM     22  C   UNL     1      -4.519  -1.223   1.726  0.00  0.00    +0.158 A 
ATOM     23  C   UNL     1      -3.529  -1.337   2.698  0.00  0.00    +0.162 A 
ATOM     24  C   UNL     1      -2.368  -2.040   2.420  0.00  0.00    +0.055 A 
BRANCH  22  25
ATOM     25  O   UNL     1      -5.662  -0.538   1.996  0.00  0.00    -0.503 OA
ATOM     26  H   UNL     1      -6.368  -1.083   2.370  0.00  0.00    +0.292 HD
ENDBRANCH  22  25
BRANCH  23  27
ATOM     27  O   UNL     1      -3.703  -0.764   3.919  0.00  0.00    -0.489 OA
BRANCH  27  28
ATOM     28  C   UNL     1      -2.645  -0.922   4.866  0.00  0.00    +0.226 C 
ATOM     29  C   UNL     1      -3.018  -0.215   6.171  0.00  0.00    +0.048 C 
ENDBRANCH  27  28
ENDBRANCH  23  27
ENDBRANCH   2  19
BRANCH   4  30
ATOM     30  O   UNL     1      -1.728  -4.973   3.244  0.00  0.00    -0.506 OA
ATOM     31  H   UNL     1      -2.052  -5.632   3.922  0.00  0.00    +0.292 HD
ENDBRANCH   4  30
BRANCH   1  32
ATOM     32  C   UNL     1      -0.120  -1.772  -1.014  0.00  0.00    +0.090 C 
BRANCH  32  33
ATOM     33  C   UNL     1       1.375  -1.532  -0.798  0.00  0.00    -0.060 C 
BRANCH  33  34
ATOM     34  N   UNL     1       1.721  -0.188  -1.308  0.00  0.00    +0.380 N 
ATOM     35  H   UNL     1       1.079   0.500  -0.897  0.00  0.00    -0.082 HD
BRANCH  34  37
ATOM     36  C   UNL     1       3.115   0.568   0.552  0.00  0.00    -0.017 C 
ATOM     37  C   UNL     1       3.105   0.158  -0.922  0.00  0.00    -0.082 C 
ENDBRANCH  34  37
BRANCH  34  38
ATOM     38  C   UNL     1       1.583  -0.155  -2.779  0.00  0.00    -0.082 C 
ATOM     39  C   UNL     1       1.581   1.304  -3.240  0.00  0.00    -0.017 C 
ENDBRANCH  34  38
ENDBRANCH  33  34
ENDBRANCH  32  33
ENDBRANCH   1  32
TORSDOF 13
