REMARK  Name = ZINC02973465
REMARK  10 active torsions:
REMARK  status: ('A' for Active; 'I' for Inactive)
REMARK    1  A    between atoms: C_4  and  C_7
REMARK    2  A    between atoms: C_7  and  C_8
REMARK    3  A    between atoms: C_8  and  N_9
REMARK    4  A    between atoms: C_10  and  C_12
REMARK    5  A    between atoms: C_12  and  C_13
REMARK    6  A    between atoms: C_13  and  C_14
REMARK    7  A    between atoms: C_14  and  N_15
REMARK    8  A    between atoms: C_25  and  S_26
REMARK    9  A    between atoms: S_26  and  C_27
REMARK   10  A    between atoms: C_27  and  C_28
REMARK                            x       y       z     vdW  Elec       q    Type
REMARK                         _______ _______ _______ _____ _____    ______ ____
ROOT
ATOM      1  N   UNL     1       6.822   2.999   2.359  0.00  0.00    -0.287 N 
ATOM      2  C   UNL     1       7.979   3.679   2.180  0.00  0.00    +0.262 A 
ATOM      3  O   UNL     1       8.774   3.824   3.090  0.00  0.00    -0.267 OA
ATOM      4  C   UNL     1       8.235   4.241   0.847  0.00  0.00    +0.065 A 
ATOM      5  C   UNL     1       9.393   4.962   0.561  0.00  0.00    +0.015 A 
ATOM      6  C   UNL     1       9.582   5.463  -0.697  0.00  0.00    +0.001 A 
ATOM      7  C   UNL     1       8.633   5.261  -1.691  0.00  0.00    +0.002 A 
ATOM      8  C   UNL     1       7.489   4.558  -1.439  0.00  0.00    +0.028 A 
ATOM      9  C   UNL     1       7.267   4.033  -0.163  0.00  0.00    +0.079 A 
ATOM     10  N   UNL     1       6.152   3.333   0.129  0.00  0.00    -0.223 NA
ATOM     11  C   UNL     1       5.944   2.841   1.325  0.00  0.00    +0.172 A 
ENDROOT
BRANCH   1  12
ATOM     12  C   UNL     1       6.514   2.422   3.670  0.00  0.00    +0.128 C 
BRANCH  12  13
ATOM     13  C   UNL     1       7.074   1.000   3.747  0.00  0.00    +0.031 C 
BRANCH  13  14
ATOM     14  C   UNL     1       6.752   0.398   5.115  0.00  0.00    +0.097 C 
BRANCH  14  16
ATOM     15  N   UNL     1       7.138  -1.733   6.311  0.00  0.00    -0.315 N 
ATOM     16  C   UNL     1       7.303  -1.003   5.191  0.00  0.00    +0.213 C 
ATOM     17  O   UNL     1       7.895  -1.473   4.242  0.00  0.00    -0.276 OA
ATOM     18  H   UNL     1       6.664  -1.357   7.070  0.00  0.00    +0.149 HD
BRANCH  15  19
ATOM     19  C   UNL     1       7.673  -3.094   6.384  0.00  0.00    +0.109 C 
BRANCH  19  20
ATOM     20  C   UNL     1       7.351  -3.697   7.753  0.00  0.00    +0.054 C 
BRANCH  20  24
ATOM     21  C   UNL     1       8.914  -7.667   7.966  0.00  0.00    +0.000 A 
ATOM     22  C   UNL     1       9.692  -6.596   8.363  0.00  0.00    +0.000 A 
ATOM     23  C   UNL     1       9.186  -5.311   8.294  0.00  0.00    +0.004 A 
ATOM     24  C   UNL     1       7.902  -5.097   7.828  0.00  0.00    -0.046 A 
ATOM     25  C   UNL     1       7.122  -6.169   7.437  0.00  0.00    +0.004 A 
ATOM     26  C   UNL     1       7.629  -7.453   7.501  0.00  0.00    +0.000 A 
ENDBRANCH  20  24
ENDBRANCH  19  20
ENDBRANCH  15  19
ENDBRANCH  14  16
ENDBRANCH  13  14
ENDBRANCH  12  13
ENDBRANCH   1  12
BRANCH  11  27
ATOM     27  S   UNL     1       4.458   1.939   1.616  0.00  0.00    -0.081 S 
BRANCH  27  28
ATOM     28  C   UNL     1       3.701   2.046  -0.025  0.00  0.00    +0.133 C 
BRANCH  28  29
ATOM     29  C   UNL     1       2.379   1.322  -0.015  0.00  0.00    +0.059 A 
ATOM     30  C   UNL     1       1.199   2.040   0.002  0.00  0.00    +0.094 A 
ATOM     31  C   UNL     1      -0.016   1.346   0.009  0.00  0.00    +0.259 A 
ATOM     32  O   UNL     1      -1.076   1.952   0.018  0.00  0.00    -0.267 OA
ATOM     33  N   UNL     1       0.002  -0.004   0.002  0.00  0.00    -0.268 N 
ATOM     34  C   UNL     1      -1.172  -0.694   0.009  0.00  0.00    +0.096 A 
ATOM     35  C   UNL     1      -1.179  -2.046   0.002  0.00  0.00    +0.018 A 
ATOM     36  C   UNL     1       0.030  -2.757  -0.013  0.00  0.00    +0.005 A 
ATOM     37  C   UNL     1       1.210  -2.075  -0.021  0.00  0.00    +0.047 A 
ATOM     38  C   UNL     1       1.197  -0.669  -0.014  0.00  0.00    +0.140 A 
ATOM     39  N   UNL     1       2.349  -0.001  -0.022  0.00  0.00    -0.233 NA
ENDBRANCH  28  29
ENDBRANCH  27  28
ENDBRANCH  11  27
TORSDOF 10
