REMARK  Name = ZINC12872639
REMARK  11 active torsions:
REMARK  status: ('A' for Active; 'I' for Inactive)
REMARK    1  A    between atoms: C_1  and  S_2
REMARK    2  A    between atoms: S_2  and  C_3
REMARK    3  A    between atoms: C_3  and  C_4
REMARK    4  A    between atoms: C_4  and  C_5
REMARK    5  A    between atoms: C_5  and  C_7
REMARK    6  A    between atoms: C_5  and  N_24
REMARK    7  A    between atoms: N_9  and  C_10
REMARK    8  A    between atoms: C_10  and  C_11
REMARK    9  A    between atoms: C_11  and  C_13
REMARK   10  A    between atoms: C_11  and  N_18
REMARK   11  A    between atoms: C_25  and  C_27
REMARK                            x       y       z     vdW  Elec       q    Type
REMARK                         _______ _______ _______ _____ _____    ______ ____
ROOT
ATOM      1  C   UNL     1      -3.044  -3.735  -0.139  0.00  0.00    +0.233 C 
ATOM      2  O   UNL     1      -3.647  -4.278   0.762  0.00  0.00    -0.274 OA
ATOM      3  N   UNL     1      -2.674  -4.441  -1.225  0.00  0.00    -0.315 N 
ATOM      4  H   UNL     1      -2.191  -4.007  -1.946  0.00  0.00    +0.149 HD
ENDROOT
BRANCH   1   5
ATOM      5  C   UNL     1      -2.708  -2.268  -0.044  0.00  0.00    +0.160 C 
BRANCH   5   6
ATOM      6  N   UNL     1      -3.215  -1.733   1.222  0.00  0.00    -0.300 N 
ATOM      7  C   UNL     1      -3.496  -0.419   1.333  0.00  0.00    +0.246 C 
ATOM      8  O   UNL     1      -3.329   0.321   0.383  0.00  0.00    -0.270 OA
ATOM      9  H   UNL     1      -3.348  -2.323   1.980  0.00  0.00    +0.150 HD
BRANCH   7  10
ATOM     10  C   UNL     1      -4.007   0.121   2.610  0.00  0.00    +0.051 A 
ATOM     11  C   UNL     1      -4.194  -0.725   3.705  0.00  0.00    +0.014 A 
ATOM     12  C   UNL     1      -4.671  -0.214   4.894  0.00  0.00    +0.001 A 
ATOM     13  C   UNL     1      -4.965   1.134   5.004  0.00  0.00    +0.001 A 
ATOM     14  C   UNL     1      -4.782   1.979   3.924  0.00  0.00    +0.016 A 
ATOM     15  C   UNL     1      -4.300   1.482   2.729  0.00  0.00    +0.030 A 
ATOM     16 BR   UNL     1      -4.043   2.639   1.256  0.00  0.00    -0.050 Br
ENDBRANCH   7  10
ENDBRANCH   5   6
BRANCH   5  17
ATOM     17  C   UNL     1      -1.190  -2.088  -0.103  0.00  0.00    +0.042 C 
BRANCH  17  18
ATOM     18  C   UNL     1      -0.854  -0.596  -0.132  0.00  0.00    +0.071 C 
BRANCH  18  20
ATOM     19  C   UNL     1       1.173   1.417  -0.230  0.00  0.00    +0.084 C 
ATOM     20  S   UNL     1       0.946  -0.382  -0.202  0.00  0.00    -0.164 S 
ENDBRANCH  18  20
ENDBRANCH  17  18
ENDBRANCH   5  17
ENDBRANCH   1   5
BRANCH   3  21
ATOM     21  C   UNL     1      -3.000  -5.867  -1.318  0.00  0.00    +0.096 C 
BRANCH  21  22
ATOM     22  C   UNL     1      -2.589  -6.396  -2.693  0.00  0.00    +0.016 C 
BRANCH  22  23
ATOM     23  N   UNL     1      -3.207  -5.571  -3.740  0.00  0.00    +0.387 N 
ATOM     24  C   UNL     1      -4.668  -5.638  -3.615  0.00  0.00    -0.078 C 
ATOM     25  C   UNL     1      -5.315  -4.717  -4.651  0.00  0.00    -0.019 C 
ATOM     26  C   UNL     1      -4.901  -5.167  -6.055  0.00  0.00    -0.004 C 
ATOM     27  C   UNL     1      -3.372  -5.165  -6.151  0.00  0.00    -0.019 C 
ATOM     28  C   UNL     1      -2.797  -6.069  -5.059  0.00  0.00    -0.078 C 
ATOM     29  H   UNL     1      -2.905  -4.614  -3.635  0.00  0.00    -0.081 HD
ENDBRANCH  22  23
BRANCH  22  30
ATOM     30  C   UNL     1      -1.089  -6.336  -2.826  0.00  0.00    +0.093 A 
ATOM     31  C   UNL     1      -0.243  -7.370  -2.671  0.00  0.00    +0.043 A 
ATOM     32  C   UNL     1       1.061  -6.868  -2.884  0.00  0.00    +0.041 A 
ATOM     33  C   UNL     1       0.935  -5.557  -3.156  0.00  0.00    +0.195 A 
ATOM     34  O   UNL     1      -0.370  -5.241  -3.126  0.00  0.00    -0.469 OA
ENDBRANCH  22  30
ENDBRANCH  21  22
ENDBRANCH   3  21
TORSDOF 10
