REMARK  Name = ZINC09100851
REMARK  12 active torsions:
REMARK  status: ('A' for Active; 'I' for Inactive)
REMARK    1  A    between atoms: C_1  and  C_2
REMARK    2  A    between atoms: C_2  and  C_4
REMARK    3  A    between atoms: C_2  and  N_14
REMARK    4  A    between atoms: C_15  and  C_17
REMARK    5  A    between atoms: C_17  and  S_18
REMARK    6  A    between atoms: S_18  and  C_19
REMARK    7  A    between atoms: C_22  and  C_31
REMARK    8  A    between atoms: N_23  and  C_24
REMARK    9  A    between atoms: C_31  and  C_33
REMARK   10  A    between atoms: C_31  and  N_62
REMARK   11  A    between atoms: C_34  and  N_62
REMARK   12  A    between atoms: C_35  and  N_62
REMARK                            x       y       z     vdW  Elec       q    Type
REMARK                         _______ _______ _______ _____ _____    ______ ____
ROOT
ATOM      1  S   UNL     1       8.959   4.674  -3.008  0.00  0.00    -0.076 S 
ENDROOT
BRANCH   1   2
ATOM      2  C   UNL     1       9.957   3.651  -4.039  0.00  0.00    +0.197 A 
ATOM      3  N   UNL     1       9.796   2.366  -4.254  0.00  0.00    -0.122 NA
ATOM      4  N   UNL     1      10.703   1.940  -5.059  0.00  0.00    -0.135 NA
ATOM      5  C   UNL     1      11.492   2.918  -5.404  0.00  0.00    +0.125 A 
ATOM      6  N   UNL     1      11.043   4.046  -4.771  0.00  0.00    -0.275 N 
BRANCH   6   7
ATOM      7  C   UNL     1      11.585   5.338  -4.853  0.00  0.00    +0.050 A 
ATOM      8  C   UNL     1      11.566   6.024  -6.059  0.00  0.00    +0.028 A 
ATOM      9  C   UNL     1      12.097   7.297  -6.137  0.00  0.00    +0.022 A 
ATOM     10  C   UNL     1      12.656   7.884  -5.016  0.00  0.00    +0.041 A 
ATOM     11  C   UNL     1      12.682   7.199  -3.813  0.00  0.00    +0.022 A 
ATOM     12  C   UNL     1      12.148   5.928  -3.730  0.00  0.00    +0.028 A 
ATOM     13 CL   UNL     1      13.328   9.482  -5.118  0.00  0.00    -0.084 Cl
ENDBRANCH   6   7
BRANCH   5  14
ATOM     14  C   UNL     1      12.675   2.826  -6.332  0.00  0.00    -0.003 C 
ATOM     15  C   UNL     1      12.184   2.716  -7.777  0.00  0.00    -0.005 C 
BRANCH  14  18
ATOM     16  C   UNL     1      14.636   1.515  -6.880  0.00  0.00    -0.096 C 
ATOM     17  C   UNL     1      13.883   1.664  -4.584  0.00  0.00    -0.096 C 
ATOM     18  N   UNL     1      13.455   1.615  -5.998  0.00  0.00    +0.382 N 
ATOM     19  H   UNL     1      12.863   0.788  -6.139  0.00  0.00    -0.082 HD
ENDBRANCH  14  18
ENDBRANCH   5  14
ENDBRANCH   1   2
BRANCH   1  20
ATOM     20  C   UNL     1       7.763   3.452  -2.416  0.00  0.00    +0.173 C 
BRANCH  20  22
ATOM     21  N   UNL     1       5.790   3.400  -0.924  0.00  0.00    -0.308 N 
ATOM     22  C   UNL     1       6.779   4.120  -1.490  0.00  0.00    +0.224 C 
ATOM     23  O   UNL     1       6.878   5.305  -1.253  0.00  0.00    -0.275 OA
ATOM     24  H   UNL     1       5.712   2.452  -1.113  0.00  0.00    +0.149 HD
BRANCH  21  26
ATOM     25  C   UNL     1       5.414   4.091   1.392  0.00  0.00    +0.033 C 
ATOM     26  C   UNL     1       4.834   4.049  -0.024  0.00  0.00    +0.100 C 
BRANCH  26  27
ATOM     27  C   UNL     1       3.544   3.270  -0.015  0.00  0.00    -0.027 A 
ATOM     28  C   UNL     1       3.583   1.877  -0.022  0.00  0.00    +0.006 A 
ATOM     29  C   UNL     1       2.436   1.144  -0.015  0.00  0.00    +0.009 A 
ATOM     30  C   UNL     1       1.193   1.799   0.000  0.00  0.00    -0.018 A 
ATOM     31  C   UNL     1      -0.013   1.076   0.008  0.00  0.00    +0.008 A 
ATOM     32  C   UNL     1      -1.198   1.744   0.017  0.00  0.00    +0.001 A 
ATOM     33  C   UNL     1      -1.237   3.137   0.031  0.00  0.00    +0.001 A 
ATOM     34  C   UNL     1      -0.090   3.870   0.023  0.00  0.00    +0.008 A 
ATOM     35  C   UNL     1       1.153   3.215   0.008  0.00  0.00    -0.018 A 
ATOM     36  C   UNL     1       2.358   3.938  -0.001  0.00  0.00    +0.014 A 
ENDBRANCH  26  27
ENDBRANCH  21  26
ENDBRANCH  20  22
ENDBRANCH   1  20
TORSDOF 8
