REMARK  Name = ZINC16561841
REMARK  16 active torsions:
REMARK  status: ('A' for Active; 'I' for Inactive)
REMARK    1  A    between atoms: C_1  and  C_2
REMARK    2  A    between atoms: C_2  and  C_3
REMARK    3  A    between atoms: C_3  and  N_4
REMARK    4  A    between atoms: C_5  and  N_30
REMARK    5  A    between atoms: C_6  and  C_13
REMARK    6  A    between atoms: C_13  and  C_15
REMARK    7  A    between atoms: C_15  and  N_58
REMARK    8  A    between atoms: C_16  and  N_58
REMARK    9  A    between atoms: C_17  and  C_18
REMARK   10  A    between atoms: C_17  and  N_58
REMARK   11  A    between atoms: C_21  and  O_28
REMARK   12  A    between atoms: C_22  and  O_26
REMARK   13  A    between atoms: C_23  and  O_24
REMARK   14  A    between atoms: O_24  and  C_25
REMARK   15  A    between atoms: O_26  and  C_27
REMARK   16  A    between atoms: O_28  and  C_29
REMARK                            x       y       z     vdW  Elec       q    Type
REMARK                         _______ _______ _______ _____ _____    ______ ____
ROOT
ATOM      1  C   UNL     1       1.085  -1.994  -0.877  0.00  0.00    +0.155 C 
ATOM      2  O   UNL     1       0.528  -2.574   0.034  0.00  0.00    -0.294 OA
ENDROOT
BRANCH   1   5
ATOM      3  N   UNL     1       2.939  -4.734  -2.501  0.00  0.00    -0.281 N 
ATOM      4  C   UNL     1       2.158  -4.080  -1.592  0.00  0.00    +0.116 A 
ATOM      5  C   UNL     1       1.887  -2.714  -1.787  0.00  0.00    +0.118 A 
ATOM      6  C   UNL     1       2.462  -2.063  -2.971  0.00  0.00    +0.266 A 
ATOM      7  O   UNL     1       2.257  -0.883  -3.192  0.00  0.00    -0.267 OA
ATOM      8  N   UNL     1       3.225  -2.797  -3.806  0.00  0.00    -0.274 N 
ATOM      9  H   UNL     1       3.630  -2.366  -4.613  0.00  0.00    +0.173 HD
ATOM     10  C   UNL     1       3.449  -4.100  -3.568  0.00  0.00    +0.331 A 
ATOM     11  O   UNL     1       4.139  -4.727  -4.347  0.00  0.00    -0.246 OA
BRANCH   4  12
ATOM     12  N   UNL     1       1.649  -4.739  -0.516  0.00  0.00    -0.344 N 
ATOM     13  H   UNL     1       1.032  -4.288   0.082  0.00  0.00    +0.144 HD
ATOM     14  H   UNL     1       1.903  -5.659  -0.346  0.00  0.00    +0.144 HD
ENDBRANCH   4  12
BRANCH   3  15
ATOM     15  C   UNL     1       3.227  -6.158  -2.307  0.00  0.00    +0.128 C 
BRANCH  15  17
ATOM     16  C   UNL     1       2.453  -8.481  -2.801  0.00  0.00    +0.005 C 
ATOM     17  C   UNL     1       2.152  -6.995  -3.004  0.00  0.00    +0.018 C 
ENDBRANCH  15  17
ENDBRANCH   3  15
ENDBRANCH   1   5
BRANCH   1  18
ATOM     18  C   UNL     1       0.918  -0.504  -1.035  0.00  0.00    +0.003 C 
BRANCH  18  20
ATOM     19  C   UNL     1      -1.323  -0.516  -0.117  0.00  0.00    -0.095 C 
ATOM     20  N   UNL     1       0.053  -0.003   0.054  0.00  0.00    +0.385 N 
ATOM     21  H   UNL     1       0.423  -0.334   0.953  0.00  0.00    -0.081 HD
BRANCH  20  22
ATOM     22  C   UNL     1       0.045   1.475   0.053  0.00  0.00    -0.039 C 
BRANCH  22  23
ATOM     23  C   UNL     1      -0.658   1.958   1.296  0.00  0.00    -0.018 A 
ATOM     24  C   UNL     1      -1.971   2.387   1.223  0.00  0.00    +0.009 A 
ATOM     25  C   UNL     1      -2.620   2.830   2.360  0.00  0.00    +0.050 A 
ATOM     26  C   UNL     1      -1.957   2.846   3.578  0.00  0.00    +0.165 A 
ATOM     27  C   UNL     1      -0.638   2.416   3.655  0.00  0.00    +0.204 A 
ATOM     28  C   UNL     1       0.010   1.966   2.510  0.00  0.00    +0.167 A 
BRANCH  28  29
ATOM     29  O   UNL     1       1.299   1.538   2.581  0.00  0.00    -0.491 OA
ATOM     30  C   UNL     1       2.319   2.519   2.385  0.00  0.00    +0.277 C 
ENDBRANCH  28  29
BRANCH  27  31
ATOM     31  O   UNL     1       0.016   2.430   4.848  0.00  0.00    -0.488 OA
ATOM     32  C   UNL     1      -0.073   1.250   5.651  0.00  0.00    +0.277 C 
ENDBRANCH  27  31
BRANCH  26  33
ATOM     33  O   UNL     1      -2.597   3.282   4.696  0.00  0.00    -0.491 OA
ATOM     34  C   UNL     1      -3.952   3.710   4.543  0.00  0.00    +0.277 C 
ENDBRANCH  26  33
ENDBRANCH  22  23
ENDBRANCH  20  22
ENDBRANCH  18  20
ENDBRANCH   1  18
TORSDOF 11
