REMARK  Name = ZINC39195720
REMARK  14 active torsions:
REMARK  status: ('A' for Active; 'I' for Inactive)
REMARK    1  A    between atoms: C_1  and  C_2
REMARK    2  A    between atoms: C_2  and  C_3
REMARK    3  A    between atoms: C_3  and  C_4
REMARK    4  A    between atoms: C_16  and  C_18
REMARK    5  A    between atoms: C_18  and  C_20
REMARK    6  A    between atoms: C_18  and  N_24
REMARK    7  A    between atoms: C_20  and  C_21
REMARK    8  A    between atoms: C_21  and  C_22
REMARK    9  A    between atoms: C_21  and  C_23
REMARK   10  A    between atoms: C_25  and  C_27
REMARK   11  A    between atoms: C_27  and  N_28
REMARK   12  A    between atoms: C_29  and  O_31
REMARK   13  A    between atoms: O_31  and  C_32
REMARK   14  A    between atoms: C_32  and  C_33
REMARK                            x       y       z     vdW  Elec       q    Type
REMARK                         _______ _______ _______ _____ _____    ______ ____
ROOT
ATOM      1  C   UNL     1      -0.969  -1.913  -5.326  0.00  0.00    +0.159 C 
ENDROOT
BRANCH   1  13
ATOM      2  C   UNL     1       2.497  -1.560  -2.068  0.00  0.00    +0.064 C 
ATOM      3  C   UNL     1       1.165  -2.301  -2.095  0.00  0.00    +0.134 C 
ATOM      4  N   UNL     1       0.668  -2.054  -3.478  0.00  0.00    -0.297 N 
ATOM      5  C   UNL     1       1.836  -1.767  -4.349  0.00  0.00    +0.122 C 
ATOM      6  C   UNL     1       3.058  -1.952  -3.468  0.00  0.00    +0.117 C 
ATOM      7  C   UNL     1       4.260  -1.098  -3.683  0.00  0.00    +0.227 C 
ATOM      8  O   UNL     1       4.484  -0.540  -4.736  0.00  0.00    -0.275 OA
ATOM      9  N   UNL     1       5.089  -0.991  -2.604  0.00  0.00    -0.240 N 
ATOM     10  C   UNL     1       4.786  -1.577  -1.429  0.00  0.00    +0.306 C 
ATOM     11  O   UNL     1       5.678  -1.794  -0.632  0.00  0.00    -0.252 OA
ATOM     12  N   UNL     1       3.513  -1.927  -1.108  0.00  0.00    -0.291 N 
ATOM     13  C   UNL     1      -0.620  -2.087  -3.870  0.00  0.00    +0.236 C 
ATOM     14  O   UNL     1      -1.500  -2.256  -3.052  0.00  0.00    -0.274 OA
ATOM     15  H   UNL     1       5.911  -0.483  -2.684  0.00  0.00    +0.159 HD
ATOM     16  H   UNL     1       3.303  -2.400  -0.288  0.00  0.00    +0.151 HD
BRANCH   2  17
ATOM     17  C   UNL     1       2.249  -0.051  -2.010  0.00  0.00    +0.028 C 
BRANCH  17  19
ATOM     18  C   UNL     1       1.545   1.847  -0.546  0.00  0.00    +0.004 C 
ATOM     19  C   UNL     1       1.792   0.338  -0.603  0.00  0.00    -0.001 C 
ENDBRANCH  17  19
ENDBRANCH   2  17
ENDBRANCH   1  13
BRANCH   1  20
ATOM     20  N   UNL     1      -2.388  -2.217  -5.528  0.00  0.00    -0.303 N 
ATOM     21  C   UNL     1      -2.824  -2.630  -6.735  0.00  0.00    +0.231 C 
ATOM     22  O   UNL     1      -2.029  -2.839  -7.627  0.00  0.00    -0.274 OA
ATOM     23  H   UNL     1      -3.014  -2.121  -4.793  0.00  0.00    +0.149 HD
BRANCH  21  24
ATOM     24  C   UNL     1      -4.298  -2.832  -6.975  0.00  0.00    +0.203 C 
BRANCH  24  25
ATOM     25  N   UNL     1      -4.511  -3.279  -8.354  0.00  0.00    -0.273 N 
ATOM     26  C   UNL     1      -5.759  -3.524  -8.797  0.00  0.00    +0.401 C 
ATOM     27  O   UNL     1      -6.708  -3.375  -8.054  0.00  0.00    -0.226 OA
ATOM     28  H   UNL     1      -3.753  -3.398  -8.948  0.00  0.00    +0.153 HD
BRANCH  26  29
ATOM     29  O   UNL     1      -5.955  -3.935 -10.065  0.00  0.00    -0.446 OA
BRANCH  29  30
ATOM     30  C   UNL     1      -7.305  -4.177 -10.467  0.00  0.00    +0.269 C 
BRANCH  30  31
ATOM     31  C   UNL     1      -7.327  -4.626 -11.905  0.00  0.00    -0.010 A 
ATOM     32  C   UNL     1      -7.430  -3.692 -12.919  0.00  0.00    +0.007 A 
ATOM     33  C   UNL     1      -7.451  -4.104 -14.239  0.00  0.00    +0.000 A 
ATOM     34  C   UNL     1      -7.368  -5.450 -14.544  0.00  0.00    +0.000 A 
ATOM     35  C   UNL     1      -7.264  -6.384 -13.530  0.00  0.00    +0.000 A 
ATOM     36  C   UNL     1      -7.239  -5.971 -12.211  0.00  0.00    +0.007 A 
ENDBRANCH  30  31
ENDBRANCH  29  30
ENDBRANCH  26  29
ENDBRANCH  24  25
ENDBRANCH  21  24
ENDBRANCH   1  20
BRANCH   1  37
ATOM     37  C   UNL     1      -0.693  -0.468  -5.747  0.00  0.00    +0.034 C 
BRANCH  37  38
ATOM     38  C   UNL     1      -1.654   0.470  -5.015  0.00  0.00    -0.015 C 
ATOM     39  C   UNL     1      -1.294   0.510  -3.528  0.00  0.00    +0.007 C 
ATOM     40  C   UNL     1      -1.541   1.877  -5.604  0.00  0.00    +0.007 C 
ENDBRANCH  37  38
ENDBRANCH   1  37
TORSDOF 11
