REMARK  Name = ZINC14697669
REMARK  8 active torsions:
REMARK  status: ('A' for Active; 'I' for Inactive)
REMARK    1  A    between atoms: C_4  and  C_7
REMARK    2  A    between atoms: C_7  and  N_8
REMARK    3  A    between atoms: C_9  and  N_36
REMARK    4  A    between atoms: C_10  and  N_17
REMARK    5  A    between atoms: N_17  and  C_18
REMARK    6  A    between atoms: C_18  and  C_19
REMARK    7  A    between atoms: C_19  and  C_20
REMARK    8  A    between atoms: C_26  and  C_28
REMARK                            x       y       z     vdW  Elec       q    Type
REMARK                         _______ _______ _______ _____ _____    ______ ____
ROOT
ATOM      1  N   UNL     1      -3.984  -5.315  -2.894  0.00  0.00    -0.276 N 
ATOM      2  C   UNL     1      -3.958  -3.942  -2.824  0.00  0.00    +0.128 A 
ATOM      3  C   UNL     1      -3.140  -3.329  -1.897  0.00  0.00    +0.140 A 
ATOM      4  C   UNL     1      -2.364  -4.133  -1.041  0.00  0.00    +0.277 A 
ATOM      5  O   UNL     1      -1.635  -3.618  -0.209  0.00  0.00    -0.266 OA
ATOM      6  N   UNL     1      -2.430  -5.474  -1.147  0.00  0.00    -0.273 N 
ATOM      7  H   UNL     1      -1.878  -6.046  -0.539  0.00  0.00    +0.173 HD
ATOM      8  C   UNL     1      -3.229  -6.053  -2.061  0.00  0.00    +0.331 A 
ATOM      9  O   UNL     1      -3.269  -7.266  -2.135  0.00  0.00    -0.246 OA
ENDROOT
BRANCH   3  10
ATOM     10  N   UNL     1      -3.088  -1.923  -1.805  0.00  0.00    -0.260 N 
ATOM     11  C   UNL     1      -4.189  -1.229  -1.455  0.00  0.00    +0.252 C 
ATOM     12  O   UNL     1      -4.151  -0.014  -1.402  0.00  0.00    -0.270 OA
BRANCH  11  13
ATOM     13  C   UNL     1      -5.441  -1.943  -1.136  0.00  0.00    +0.056 A 
ATOM     14  C   UNL     1      -5.400  -3.264  -0.683  0.00  0.00    +0.017 A 
ATOM     15  C   UNL     1      -6.571  -3.925  -0.387  0.00  0.00    +0.039 A 
ATOM     16  C   UNL     1      -7.792  -3.283  -0.538  0.00  0.00    +0.125 A 
ATOM     17  C   UNL     1      -7.840  -1.973  -0.987  0.00  0.00    +0.059 A 
ATOM     18  C   UNL     1      -6.673  -1.298  -1.282  0.00  0.00    +0.056 A 
ATOM     19 CL   UNL     1      -6.734   0.345  -1.837  0.00  0.00    -0.083 Cl
ATOM     20  F   UNL     1      -8.937  -3.938  -0.247  0.00  0.00    -0.205 F 
ENDBRANCH  11  13
BRANCH  10  21
ATOM     21  C   UNL     1      -1.836  -1.216  -2.088  0.00  0.00    +0.118 C 
BRANCH  21  22
ATOM     22  C   UNL     1      -1.100  -0.935  -0.777  0.00  0.00    +0.050 C 
BRANCH  22  23
ATOM     23  C   UNL     1       0.195  -0.222  -1.070  0.00  0.00    -0.072 C 
ATOM     24  C   UNL     1       0.203   1.071  -1.007  0.00  0.00    -0.028 C 
ATOM     25  C   UNL     1       1.411   1.917  -1.282  0.00  0.00    +0.027 C 
ATOM     26  C   UNL     1       2.679   1.063  -1.221  0.00  0.00    +0.004 C 
ATOM     27  C   UNL     1       2.463  -0.187  -2.083  0.00  0.00    +0.005 C 
ATOM     28  C   UNL     1       1.393  -1.055  -1.418  0.00  0.00    +0.030 C 
ENDBRANCH  22  23
ENDBRANCH  21  22
ENDBRANCH  10  21
ENDBRANCH   3  10
BRANCH   2  29
ATOM     29  N   UNL     1      -4.735  -3.188  -3.672  0.00  0.00    -0.343 N 
ATOM     30  H   UNL     1      -4.657  -2.221  -3.670  0.00  0.00    +0.144 HD
ATOM     31  H   UNL     1      -5.361  -3.623  -4.272  0.00  0.00    +0.144 HD
ENDBRANCH   2  29
BRANCH   1  32
ATOM     32  C   UNL     1      -4.844  -5.979  -3.877  0.00  0.00    +0.163 C 
BRANCH  32  36
ATOM     33  C   UNL     1      -8.691  -6.686  -2.158  0.00  0.00    +0.000 A 
ATOM     34  C   UNL     1      -8.441  -5.504  -2.830  0.00  0.00    +0.000 A 
ATOM     35  C   UNL     1      -7.196  -5.275  -3.386  0.00  0.00    +0.005 A 
ATOM     36  C   UNL     1      -6.201  -6.228  -3.270  0.00  0.00    -0.028 A 
ATOM     37  C   UNL     1      -6.453  -7.412  -2.603  0.00  0.00    +0.005 A 
ATOM     38  C   UNL     1      -7.696  -7.638  -2.042  0.00  0.00    +0.000 A 
ENDBRANCH  32  36
ENDBRANCH   1  32
TORSDOF 8
