REMARK  Name = ZINC65000424
REMARK  5 active torsions:
REMARK  status: ('A' for Active; 'I' for Inactive)
REMARK    1  A    between atoms: C_1  and  C_2
REMARK    2  A    between atoms: C_2  and  C_3
REMARK    3  A    between atoms: C_6  and  N_10
REMARK    4  A    between atoms: C_11  and  C_13
REMARK    5  A    between atoms: C_14  and  C_15
REMARK                            x       y       z     vdW  Elec       q    Type
REMARK                         _______ _______ _______ _____ _____    ______ ____
ROOT
ATOM      1  N   UNL     1       2.656  -1.834  -4.666  0.00  0.00    -0.281 N 
ATOM      2  C   UNL     1       1.943  -2.153  -5.765  0.00  0.00    +0.241 C 
ATOM      3  O   UNL     1       0.741  -1.963  -5.787  0.00  0.00    -0.270 OA
ATOM      4  H   UNL     1       3.623  -1.909  -4.676  0.00  0.00    +0.155 HD
ENDROOT
BRANCH   1   8
ATOM      5  C   UNL     1       0.706  -0.521  -1.227  0.00  0.00    -0.046 A 
ATOM      6  C   UNL     1       0.035  -1.313  -2.141  0.00  0.00    +0.005 A 
ATOM      7  C   UNL     1       0.679  -1.750  -3.282  0.00  0.00    +0.025 A 
ATOM      8  C   UNL     1       2.001  -1.393  -3.512  0.00  0.00    +0.048 A 
ATOM      9  C   UNL     1       2.672  -0.596  -2.592  0.00  0.00    +0.039 A 
ATOM     10  C   UNL     1       2.020  -0.159  -1.455  0.00  0.00    +0.020 A 
ATOM     11 BR   UNL     1       4.473  -0.106  -2.899  0.00  0.00    -0.048 Br
BRANCH   5  13
ATOM     12  C   UNL     1      -0.686   1.292  -0.265  0.00  0.00    +0.009 C 
ATOM     13  C   UNL     1      -0.000  -0.046   0.017  0.00  0.00    +0.032 C 
ENDBRANCH   5  13
ENDBRANCH   1   8
BRANCH   2  14
ATOM     14  C   UNL     1       2.615  -2.729  -6.931  0.00  0.00    +0.068 C 
ATOM     15  C   UNL     1       1.902  -3.048  -8.030  0.00  0.00    +0.013 C 
BRANCH  15  16
ATOM     16  C   UNL     1       2.577  -3.627  -9.203  0.00  0.00    -0.023 A 
ATOM     17  C   UNL     1       3.958  -3.852  -9.178  0.00  0.00    +0.009 A 
ATOM     18  C   UNL     1       4.584  -4.394 -10.280  0.00  0.00    +0.022 A 
ATOM     19  C   UNL     1       3.850  -4.716 -11.410  0.00  0.00    +0.059 A 
ATOM     20  C   UNL     1       2.482  -4.496 -11.442  0.00  0.00    +0.060 A 
ATOM     21  C   UNL     1       1.841  -3.960 -10.344  0.00  0.00    +0.029 A 
ATOM     22 CL   UNL     1       1.572  -4.902 -12.863  0.00  0.00    -0.082 Cl
ATOM     23 CL   UNL     1       4.648  -5.399 -12.793  0.00  0.00    -0.082 Cl
ENDBRANCH  15  16
ENDBRANCH   2  14
TORSDOF 4
