REMARK  Name = ZINC17102358
REMARK  6 active torsions:
REMARK  status: ('A' for Active; 'I' for Inactive)
REMARK    1  A    between atoms: C_1  and  C_2
REMARK    2  A    between atoms: C_7  and  N_8
REMARK    3  A    between atoms: C_9  and  C_11
REMARK    4  A    between atoms: C_15  and  N_16
REMARK    5  A    between atoms: C_17  and  C_19
REMARK    6  A    between atoms: C_25  and  C_27
REMARK                            x       y       z     vdW  Elec       q    Type
REMARK                         _______ _______ _______ _____ _____    ______ ____
ROOT
ATOM      1  C   UNL     1      -1.602   6.047   3.426  0.00  0.00    +0.069 A 
ATOM      2  C   UNL     1      -1.352   7.468   3.255  0.00  0.00    -0.023 A 
ATOM      3  C   UNL     1      -0.545   7.788   2.220  0.00  0.00    -0.004 A 
ATOM      4  S   UNL     1      -0.113   6.237   1.485  0.00  0.00    -0.077 S 
ATOM      5  C   UNL     1      -0.992   5.176   2.535  0.00  0.00    +0.084 A 
ATOM      6  C   UNL     1      -0.119   9.161   1.798  0.00  0.00    +0.043 C 
ATOM      7  C   UNL     1      -1.034  10.184   2.487  0.00  0.00    +0.005 C 
ATOM      8  C   UNL     1      -1.135   9.834   3.974  0.00  0.00    +0.005 C 
ATOM      9  C   UNL     1      -1.943   8.547   4.152  0.00  0.00    +0.037 C 
ENDROOT
BRANCH   1  11
ATOM     10  N   UNL     1      -3.787   5.398   4.291  0.00  0.00    -0.281 N 
ATOM     11  C   UNL     1      -2.465   5.552   4.503  0.00  0.00    +0.251 C 
ATOM     12  O   UNL     1      -1.988   5.279   5.589  0.00  0.00    -0.270 OA
ATOM     13  H   UNL     1      -4.157   5.551   3.407  0.00  0.00    +0.155 HD
BRANCH  10  20
ATOM     14  C   UNL     1      -6.502   6.248   4.220  0.00  0.00    +0.045 C 
ATOM     15  C   UNL     1      -5.957   5.413   5.350  0.00  0.00    -0.029 A 
ATOM     16  C   UNL     1      -6.784   5.032   6.389  0.00  0.00    +0.005 A 
ATOM     17  C   UNL     1      -6.284   4.270   7.429  0.00  0.00    +0.000 A 
ATOM     18  C   UNL     1      -4.957   3.882   7.429  0.00  0.00    +0.002 A 
ATOM     19  C   UNL     1      -4.126   4.254   6.391  0.00  0.00    +0.023 A 
ATOM     20  C   UNL     1      -4.625   5.019   5.344  0.00  0.00    +0.037 A 
ENDBRANCH  10  20
ENDBRANCH   1  11
BRANCH   5  21
ATOM     21  N   UNL     1      -1.070   3.792   2.493  0.00  0.00    -0.279 N 
ATOM     22  C   UNL     1      -0.405   3.108   1.541  0.00  0.00    +0.222 C 
ATOM     23  O   UNL     1       0.262   3.703   0.721  0.00  0.00    -0.275 OA
ATOM     24  H   UNL     1      -1.603   3.316   3.148  0.00  0.00    +0.155 HD
BRANCH  22  25
ATOM     25  C   UNL     1      -0.490   1.604   1.494  0.00  0.00    +0.093 C 
ATOM     26  C   UNL     1       0.856   1.026   1.053  0.00  0.00    +0.040 C 
ATOM     27  C   UNL     1       1.101   1.332  -0.395  0.00  0.00    -0.030 C 
ATOM     28  C   UNL     1       0.177   1.699  -1.225  0.00  0.00    -0.030 C 
ATOM     29  C   UNL     1      -1.265   1.879  -0.851  0.00  0.00    +0.042 C 
ATOM     30  C   UNL     1      -1.557   1.179   0.478  0.00  0.00    +0.118 C 
BRANCH  30  31
ATOM     31  C   UNL     1      -2.923   1.581   0.972  0.00  0.00    +0.360 C 
ATOM     32  O   UNL     1      -3.039   2.141   2.036  0.00  0.00    -0.246 OA
ATOM     33  O   UNL     1      -4.010   1.315   0.231  0.00  0.00    -0.246 OA
ENDBRANCH  30  31
ENDBRANCH  22  25
ENDBRANCH   5  21
TORSDOF 5
