REMARK  Name = ZINC59170533
REMARK  6 active torsions:
REMARK  status: ('A' for Active; 'I' for Inactive)
REMARK    1  A    between atoms: C_6  and  N_7
REMARK    2  A    between atoms: C_8  and  C_10
REMARK    3  A    between atoms: C_15  and  O_31
REMARK    4  A    between atoms: N_20  and  C_21
REMARK    5  A    between atoms: C_24  and  S_27
REMARK    6  A    between atoms: S_27  and  N_30
REMARK                            x       y       z     vdW  Elec       q    Type
REMARK                         _______ _______ _______ _____ _____    ______ ____
ROOT
ATOM      1  C   UNL     1      -2.431  -2.785  -0.259  0.00  0.00    +0.098 A 
ATOM      2  C   UNL     1      -2.426  -4.173  -0.255  0.00  0.00    +0.030 A 
ATOM      3  C   UNL     1      -3.671  -4.847  -0.325  0.00  0.00    +0.018 A 
ATOM      4  C   UNL     1      -3.740  -6.234  -0.122  0.00  0.00    +0.015 A 
ATOM      5  C   UNL     1      -4.948  -6.866  -0.150  0.00  0.00    +0.046 A 
ATOM      6  C   UNL     1      -6.117  -6.146  -0.387  0.00  0.00    +0.120 A 
ATOM      7  C   UNL     1      -6.068  -4.778  -0.609  0.00  0.00    +0.092 A 
ATOM      8  C   UNL     1      -4.849  -4.121  -0.591  0.00  0.00    +0.141 A 
ATOM      9  O   UNL     1      -4.784  -2.792  -0.849  0.00  0.00    -0.438 OA
ATOM     10  C   UNL     1      -3.744  -2.111  -0.297  0.00  0.00    +0.212 A 
ATOM     11  N   UNL     1      -3.899  -0.896   0.182  0.00  0.00    -0.325 N 
ATOM     12  H   UNL     1      -3.177  -0.471   0.671  0.00  0.00    +0.169 HD
ENDROOT
BRANCH  11  13
ATOM     13  C   UNL     1      -5.079  -0.231  -0.009  0.00  0.00    +0.042 A 
ATOM     14  C   UNL     1      -5.694  -0.240  -1.264  0.00  0.00    +0.027 A 
ATOM     15  C   UNL     1      -6.883   0.433  -1.450  0.00  0.00    +0.030 A 
ATOM     16  C   UNL     1      -7.468   1.116  -0.397  0.00  0.00    +0.105 A 
ATOM     17  C   UNL     1      -6.864   1.129   0.848  0.00  0.00    +0.030 A 
ATOM     18  C   UNL     1      -5.678   0.456   1.050  0.00  0.00    +0.027 A 
BRANCH  16  19
ATOM     19  S   UNL     1      -8.987   1.974  -0.644  0.00  0.00    +0.056 S 
ATOM     20  O   UNL     1      -9.048   2.986   0.351  0.00  0.00    -0.153 OA
ATOM     21  O   UNL     1      -9.068   2.264  -2.033  0.00  0.00    -0.153 OA
BRANCH  19  22
ATOM     22  N   UNL     1     -10.210   0.908  -0.311  0.00  0.00    -0.204 NA
ATOM     23  H   UNL     1     -10.002   0.001  -0.038  0.00  0.00    +0.144 HD
ATOM     24  H   UNL     1     -11.135   1.192  -0.389  0.00  0.00    +0.144 HD
ENDBRANCH  19  22
ENDBRANCH  16  19
ENDBRANCH  11  13
BRANCH   1  26
ATOM     25  N   UNL     1      -1.204  -0.676  -0.371  0.00  0.00    -0.281 N 
ATOM     26  C   UNL     1      -1.177  -2.015  -0.222  0.00  0.00    +0.253 C 
ATOM     27  O   UNL     1      -0.117  -2.588  -0.056  0.00  0.00    -0.270 OA
ATOM     28  H   UNL     1      -2.053  -0.213  -0.448  0.00  0.00    +0.155 HD
BRANCH  25  34
ATOM     29  C   UNL     1       0.097   1.171  -1.224  0.00  0.00    +0.025 A 
ATOM     30  C   UNL     1       1.280   1.883  -1.265  0.00  0.00    +0.022 A 
ATOM     31  C   UNL     1       2.361   1.477  -0.502  0.00  0.00    +0.041 A 
ATOM     32  C   UNL     1       2.259   0.357   0.304  0.00  0.00    +0.022 A 
ATOM     33  C   UNL     1       1.079  -0.359   0.349  0.00  0.00    +0.025 A 
ATOM     34  C   UNL     1      -0.007   0.047  -0.415  0.00  0.00    +0.034 A 
ATOM     35 CL   UNL     1       3.846   2.374  -0.556  0.00  0.00    -0.084 Cl
ENDBRANCH  25  34
ENDBRANCH   1  26
BRANCH   6  36
ATOM     36  O   UNL     1      -7.313  -6.788  -0.400  0.00  0.00    -0.507 OA
ATOM     37  H   UNL     1      -7.746  -6.830   0.463  0.00  0.00    +0.292 HD
ENDBRANCH   6  36
TORSDOF 6
