REMARK  Name = ZINC13306869
REMARK  8 active torsions:
REMARK  status: ('A' for Active; 'I' for Inactive)
REMARK    1  A    between atoms: C_3  and  C_6
REMARK    2  A    between atoms: C_6  and  C_8
REMARK    3  A    between atoms: C_10  and  C_22
REMARK    4  A    between atoms: C_16  and  C_17
REMARK    5  A    between atoms: C_16  and  O_21
REMARK    6  A    between atoms: C_24  and  N_32
REMARK    7  A    between atoms: C_27  and  O_28
REMARK    8  A    between atoms: O_28  and  C_29
REMARK                            x       y       z     vdW  Elec       q    Type
REMARK                         _______ _______ _______ _____ _____    ______ ____
ROOT
ATOM      1  C   UNL     1      -2.542   5.215   0.051  0.00  0.00    +0.145 C 
ATOM      2  C   UNL     1      -2.862   6.590   0.648  0.00  0.00    +0.124 C 
ATOM      3  N   UNL     1      -2.313   7.631  -0.222  0.00  0.00    -0.292 N 
ATOM      4  C   UNL     1      -2.180   7.437  -1.543  0.00  0.00    +0.302 C 
ATOM      5  O   UNL     1      -1.729   8.338  -2.223  0.00  0.00    -0.253 OA
ATOM      6  N   UNL     1      -2.523   6.287  -2.143  0.00  0.00    -0.264 N 
ATOM      7  C   UNL     1      -3.083   5.169  -1.382  0.00  0.00    +0.243 C 
ATOM      8  H   UNL     1      -2.042   8.479   0.163  0.00  0.00    +0.151 HD
ATOM      9  H   UNL     1      -2.398   6.196  -3.101  0.00  0.00    +0.153 HD
ENDROOT
BRANCH   2  10
ATOM     10  C   UNL     1      -4.356   6.757   0.756  0.00  0.00    +0.018 A 
ATOM     11  C   UNL     1      -5.053   7.404  -0.246  0.00  0.00    +0.041 A 
ATOM     12  C   UNL     1      -6.424   7.553  -0.150  0.00  0.00    +0.127 A 
ATOM     13  C   UNL     1      -7.099   7.065   0.954  0.00  0.00    +0.036 A 
ATOM     14  C   UNL     1      -6.406   6.423   1.961  0.00  0.00    +0.048 A 
ATOM     15  C   UNL     1      -5.031   6.267   1.864  0.00  0.00    +0.132 A 
BRANCH  12  16
ATOM     16  N   UNL     1      -7.170   8.240  -1.228  0.00  0.00    +0.056 N 
ATOM     17  O   UNL     1      -8.377   8.376  -1.143  0.00  0.00    -0.126 OA
ATOM     18  O   UNL     1      -6.576   8.670  -2.201  0.00  0.00    -0.126 OA
ENDBRANCH  12  16
BRANCH  15  19
ATOM     19  O   UNL     1      -4.346   5.635   2.854  0.00  0.00    -0.434 OA
BRANCH  19  20
ATOM     20  C   UNL     1      -5.107   5.156   3.965  0.00  0.00    +0.541 C 
ATOM     21  F   UNL     1      -5.755   6.230   4.583  0.00  0.00    -0.166 F 
ATOM     22  F   UNL     1      -6.057   4.233   3.516  0.00  0.00    -0.166 F 
ENDBRANCH  19  20
ENDBRANCH  15  19
ENDBRANCH   2  10
BRANCH   7  23
ATOM     23  C   UNL     1      -2.677   3.848  -2.039  0.00  0.00    +0.436 C 
ATOM     24  F   UNL     1      -3.207   2.781  -1.307  0.00  0.00    -0.166 F 
ATOM     25  F   UNL     1      -3.171   3.807  -3.348  0.00  0.00    -0.166 F 
ATOM     26  F   UNL     1      -1.282   3.749  -2.065  0.00  0.00    -0.166 F 
ENDBRANCH   7  23
BRANCH   1  27
ATOM     27  C   UNL     1      -1.050   5.004   0.036  0.00  0.00    +0.179 C 
ATOM     28  O   UNL     1      -0.302   5.961   0.033  0.00  0.00    -0.291 OA
BRANCH  27  31
ATOM     29  C   UNL     1       1.043   1.935   0.003  0.00  0.00    +0.008 A 
ATOM     30  C   UNL     1       0.807   3.285   0.011  0.00  0.00    +0.019 A 
ATOM     31  C   UNL     1      -0.522   3.695   0.025  0.00  0.00    +0.055 A 
ATOM     32  S   UNL     1      -1.386   2.134   0.019  0.00  0.00    -0.094 S 
ATOM     33  C   UNL     1      -0.013   1.076   0.008  0.00  0.00    +0.046 A 
ENDBRANCH  27  31
ENDBRANCH   1  27
BRANCH   7  34
ATOM     34  O   UNL     1      -4.508   5.272  -1.359  0.00  0.00    -0.364 OA
ATOM     35  H   UNL     1      -4.918   5.250  -2.234  0.00  0.00    +0.212 HD
ENDBRANCH   7  34
TORSDOF 8
