REMARK  Name = ZINC21325901
REMARK  13 active torsions:
REMARK  status: ('A' for Active; 'I' for Inactive)
REMARK    1  A    between atoms: C_1  and  C_2
REMARK    2  A    between atoms: C_2  and  N_3
REMARK    3  A    between atoms: N_3  and  C_4
REMARK    4  A    between atoms: N_3  and  C_6
REMARK    5  A    between atoms: C_4  and  C_5
REMARK    6  A    between atoms: C_9  and  C_13
REMARK    7  A    between atoms: C_10  and  O_12
REMARK    8  A    between atoms: N_14  and  N_15
REMARK    9  A    between atoms: C_19  and  S_22
REMARK   10  A    between atoms: N_20  and  N_21
REMARK   11  A    between atoms: S_22  and  C_23
REMARK   12  A    between atoms: C_23  and  C_24
REMARK   13  A    between atoms: N_26  and  C_27
REMARK                            x       y       z     vdW  Elec       q    Type
REMARK                         _______ _______ _______ _____ _____    ______ ____
ROOT
ATOM      1  N   UNL     1      -4.034  13.071  -0.658  0.00  0.00    -0.204 N 
ATOM      2  C   UNL     1      -3.318  11.887  -0.550  0.00  0.00    +0.254 A 
ATOM      3  N   UNL     1      -2.013  11.778  -0.497  0.00  0.00    -0.109 NA
ATOM      4  N   UNL     1      -1.697  10.418  -0.386  0.00  0.00    -0.119 NA
ATOM      5  C   UNL     1      -2.819   9.739  -0.382  0.00  0.00    +0.210 A 
ATOM      6  N   UNL     1      -3.851  10.630  -0.481  0.00  0.00    -0.211 N 
ATOM      7  H   UNL     1      -5.133  13.047  -0.695  0.00  0.00    +0.177 HD
ENDROOT
BRANCH   6   8
ATOM      8  N   UNL     1      -5.181  10.318  -0.506  0.00  0.00    -0.294 N 
ATOM      9  H   UNL     1      -5.501   9.268  -0.443  0.00  0.00    +0.163 HD
ATOM     10  H   UNL     1      -5.931  11.118  -0.589  0.00  0.00    +0.163 HD
ENDBRANCH   6   8
BRANCH   1  12
ATOM     11  C   UNL     1      -4.026  15.404  -0.822  0.00  0.00    +0.142 C 
ATOM     12  N   UNL     1      -3.356  14.295  -0.721  0.00  0.00    -0.187 NA
BRANCH  11  16
ATOM     13  C   UNL     1      -1.973  19.118  -1.009  0.00  0.00    +0.033 A 
ATOM     14  C   UNL     1      -3.363  19.088  -1.056  0.00  0.00    +0.024 A 
ATOM     15  C   UNL     1      -4.032  17.885  -0.996  0.00  0.00    +0.015 A 
ATOM     16  C   UNL     1      -3.314  16.692  -0.887  0.00  0.00    +0.036 A 
ATOM     17  C   UNL     1      -1.913  16.724  -0.835  0.00  0.00    +0.127 A 
ATOM     18  C   UNL     1      -1.250  17.937  -0.900  0.00  0.00    +0.069 A 
BRANCH  17  19
ATOM     19  O   UNL     1      -1.208  15.568  -0.724  0.00  0.00    -0.506 OA
ATOM     20  H   UNL     1      -0.109  15.596  -0.683  0.00  0.00    +0.292 HD
ENDBRANCH  17  19
BRANCH  13  21
ATOM     21  N   UNL     1      -1.302  20.340  -1.070  0.00  0.00    -0.330 N 
BRANCH  21  23
ATOM     22  C   UNL     1      -2.376  22.123   0.214  0.00  0.00    +0.024 C 
ATOM     23  C   UNL     1      -2.061  21.588  -1.184  0.00  0.00    +0.102 C 
ENDBRANCH  21  23
BRANCH  21  24
ATOM     24  C   UNL     1       0.162  20.375  -1.021  0.00  0.00    +0.102 C 
ATOM     25  C   UNL     1       0.723  20.287  -2.442  0.00  0.00    +0.024 C 
ENDBRANCH  21  24
ENDBRANCH  13  21
ENDBRANCH  11  16
ENDBRANCH   1  12
BRANCH   5  26
ATOM     26  S   UNL     1      -2.971   7.988  -0.264  0.00  0.00    -0.075 S 
BRANCH  26  27
ATOM     27  C   UNL     1      -1.256   7.405  -0.164  0.00  0.00    +0.173 C 
BRANCH  27  28
ATOM     28  C   UNL     1      -1.242   5.902  -0.058  0.00  0.00    +0.227 C 
ATOM     29  O   UNL     1      -2.286   5.284  -0.050  0.00  0.00    -0.275 OA
ATOM     30  N   UNL     1      -0.069   5.243   0.029  0.00  0.00    -0.285 N 
ATOM     31  H   UNL     1       0.873   5.806   0.110  0.00  0.00    +0.155 HD
BRANCH  30  32
ATOM     32  C   UNL     1      -0.050   3.844   0.017  0.00  0.00    +0.036 A 
ATOM     33  C   UNL     1      -0.989   3.142  -0.727  0.00  0.00    +0.043 A 
ATOM     34  C   UNL     1      -0.968   1.760  -0.738  0.00  0.00    +0.044 A 
ATOM     35  C   UNL     1      -0.012   1.076  -0.007  0.00  0.00    +0.040 A 
ATOM     36  C   UNL     1       0.921   1.773   0.740  0.00  0.00    +0.044 A 
ATOM     37  C   UNL     1       0.908   3.155   0.749  0.00  0.00    +0.043 A 
ATOM     38 CL   UNL     1       2.114   0.911   1.661  0.00  0.00    -0.083 Cl
ATOM     39 CL   UNL     1      -2.141   0.882  -1.668  0.00  0.00    -0.083 Cl
ENDBRANCH  30  32
ENDBRANCH  27  28
ENDBRANCH  26  27
ENDBRANCH   5  26
TORSDOF 11
