REMARK  Name = ZINC14015546
REMARK  5 active torsions:
REMARK  status: ('A' for Active; 'I' for Inactive)
REMARK    1  A    between atoms: C_1  and  C_2
REMARK    2  A    between atoms: C_5  and  N_8
REMARK    3  A    between atoms: C_20  and  C_22
REMARK    4  A    between atoms: C_22  and  C_23
REMARK    5  A    between atoms: C_28  and  C_31
REMARK                            x       y       z     vdW  Elec       q    Type
REMARK                         _______ _______ _______ _____ _____    ______ ____
ROOT
ATOM      1  N   UNL     1       1.669   3.116   0.055  0.00  0.00    -0.214 N 
ATOM      2  C   UNL     1       2.526   3.991   0.650  0.00  0.00    +0.171 A 
ATOM      3  C   UNL     1       1.950   5.267   0.531  0.00  0.00    +0.103 A 
ATOM      4  C   UNL     1       0.722   5.103  -0.147  0.00  0.00    +0.150 A 
ATOM      5  N   UNL     1       0.568   3.838  -0.422  0.00  0.00    -0.172 NA
ATOM      6  C   UNL     1       2.637   6.378   1.065  0.00  0.00    +0.266 A 
ATOM      7  O   UNL     1       2.156   7.494   0.979  0.00  0.00    -0.267 OA
ATOM      8  N   UNL     1       3.843   6.196   1.696  0.00  0.00    -0.283 N 
ATOM      9  C   UNL     1       4.329   4.921   1.763  0.00  0.00    +0.174 A 
ATOM     10  N   UNL     1       3.705   3.877   1.267  0.00  0.00    -0.203 NA
ATOM     11  S   UNL     1       5.890   5.012   2.616  0.00  0.00    -0.085 S 
ATOM     12  C   UNL     1       5.955   6.815   2.926  0.00  0.00    +0.103 C 
ATOM     13  C   UNL     1       4.636   7.273   2.287  0.00  0.00    +0.112 C 
ENDROOT
BRANCH   1  18
ATOM     14  C   UNL     1       2.419  -2.490  -0.397  0.00  0.00    +0.044 C 
ATOM     15  C   UNL     1       2.220  -1.001  -0.277  0.00  0.00    -0.050 A 
ATOM     16  C   UNL     1       0.950  -0.488  -0.089  0.00  0.00    +0.005 A 
ATOM     17  C   UNL     1       0.764   0.876   0.021  0.00  0.00    +0.028 A 
ATOM     18  C   UNL     1       1.854   1.733  -0.056  0.00  0.00    +0.068 A 
ATOM     19  C   UNL     1       3.129   1.214  -0.243  0.00  0.00    +0.028 A 
ATOM     20  C   UNL     1       3.308  -0.151  -0.354  0.00  0.00    +0.005 A 
ENDBRANCH   1  18
BRANCH  13  21
ATOM     21  C   UNL     1       4.956   8.295   1.195  0.00  0.00    +0.122 C 
BRANCH  21  22
ATOM     22  C   UNL     1       5.643   9.488   1.809  0.00  0.00    +0.218 C 
ATOM     23  O   UNL     1       5.762   9.565   3.014  0.00  0.00    -0.276 OA
ATOM     24  N   UNL     1       6.126  10.468   1.020  0.00  0.00    -0.301 N 
ATOM     25  C   UNL     1       5.995  10.385  -0.441  0.00  0.00    +0.108 C 
ATOM     26  C   UNL     1       7.374  10.559  -1.075  0.00  0.00    +0.032 C 
ATOM     27  C   UNL     1       8.004  11.860  -0.573  0.00  0.00    +0.078 C 
ATOM     28  C   UNL     1       8.174  11.793   0.947  0.00  0.00    +0.032 C 
ATOM     29  C   UNL     1       6.799  11.636   1.604  0.00  0.00    +0.108 C 
BRANCH  27  30
ATOM     30  C   UNL     1       9.351  12.048  -1.221  0.00  0.00    +0.214 C 
ATOM     31  O   UNL     1      10.349  12.122  -0.535  0.00  0.00    -0.276 OA
ATOM     32  N   UNL     1       9.448  12.135  -2.562  0.00  0.00    -0.329 N 
ATOM     33  H   UNL     1       8.650  12.076  -3.111  0.00  0.00    +0.145 HD
ATOM     34  H   UNL     1      10.315  12.256  -2.979  0.00  0.00    +0.145 HD
ENDBRANCH  27  30
ENDBRANCH  21  22
ENDBRANCH  13  21
TORSDOF 4
