REMARK  Name = ZINC12872774
REMARK  5 active torsions:
REMARK  status: ('A' for Active; 'I' for Inactive)
REMARK    1  A    between atoms: C_5  and  C_7
REMARK    2  A    between atoms: C_7  and  N_8
REMARK    3  A    between atoms: C_13  and  C_29
REMARK    4  A    between atoms: C_29  and  C_30
REMARK    5  A    between atoms: C_30  and  C_31
REMARK                            x       y       z     vdW  Elec       q    Type
REMARK                         _______ _______ _______ _____ _____    ______ ____
ROOT
ATOM      1  N   UNL     1       1.468   2.541  -0.130  0.00  0.00    -0.237 N 
ATOM      2  C   UNL     1       0.611   2.201  -1.099  0.00  0.00    +0.224 C 
ATOM      3  O   UNL     1       0.801   2.350  -2.287  0.00  0.00    -0.275 OA
ATOM      4  C   UNL     1      -0.632   1.600  -0.483  0.00  0.00    +0.073 C 
ATOM      5  C   UNL     1      -1.823   2.557  -0.701  0.00  0.00    -0.057 C 
ATOM      6  C   UNL     1      -1.374   2.651   1.605  0.00  0.00    +0.050 C 
ATOM      7  C   UNL     1      -0.343   1.665   1.043  0.00  0.00    +0.088 C 
ATOM      8  C   UNL     1       1.037   2.282   1.109  0.00  0.00    +0.225 C 
ATOM      9  O   UNL     1       1.655   2.507   2.128  0.00  0.00    -0.275 OA
ATOM     10  C   UNL     1      -0.799   3.471   2.724  0.00  0.00    -0.028 A 
ATOM     11  C   UNL     1       0.266   4.339   2.814  0.00  0.00    +0.004 A 
ATOM     12  C   UNL     1       0.554   4.960   4.016  0.00  0.00    +0.000 A 
ATOM     13  C   UNL     1      -0.229   4.706   5.127  0.00  0.00    +0.002 A 
ATOM     14  C   UNL     1      -1.297   3.838   5.042  0.00  0.00    +0.023 A 
ATOM     15  C   UNL     1      -1.596   3.210   3.836  0.00  0.00    +0.036 A 
ATOM     16  N   UNL     1      -2.608   2.307   3.502  0.00  0.00    -0.286 N 
ATOM     17  C   UNL     1      -2.548   1.930   2.211  0.00  0.00    +0.211 C 
ATOM     18  O   UNL     1      -3.295   1.160   1.646  0.00  0.00    -0.277 OA
ATOM     19  H   UNL     1      -3.277   1.989   4.129  0.00  0.00    +0.155 HD
ATOM     20  N   UNL     1      -1.765   3.465   0.447  0.00  0.00    +0.394 N 
ATOM     21  H   UNL     1      -2.684   3.893   0.608  0.00  0.00    -0.083 HD
ATOM     22  H   UNL     1      -1.069   4.202   0.281  0.00  0.00    -0.083 HD
ENDROOT
BRANCH   1  23
ATOM     23  C   UNL     1       2.773   3.148  -0.404  0.00  0.00    +0.153 C 
BRANCH  23  28
ATOM     24  C   UNL     1       4.426  -0.247  -0.426  0.00  0.00    +0.000 A 
ATOM     25  C   UNL     1       5.760   0.096  -0.553  0.00  0.00    +0.001 A 
ATOM     26  C   UNL     1       6.128   1.425  -0.633  0.00  0.00    +0.020 A 
ATOM     27  C   UNL     1       5.160   2.414  -0.590  0.00  0.00    +0.046 A 
ATOM     28  C   UNL     1       3.827   2.071  -0.457  0.00  0.00    -0.011 A 
ATOM     29  C   UNL     1       3.460   0.741  -0.378  0.00  0.00    +0.006 A 
ATOM     30 CL   UNL     1       5.621   4.085  -0.697  0.00  0.00    -0.083 Cl
ENDBRANCH  23  28
ENDBRANCH   1  23
BRANCH   5  31
ATOM     31  C   UNL     1      -3.139   1.777  -0.693  0.00  0.00    -0.006 C 
BRANCH  31  32
ATOM     32  C   UNL     1      -3.468   1.316  -2.115  0.00  0.00    +0.094 C 
BRANCH  32  33
ATOM     33  C   UNL     1      -4.765   0.548  -2.107  0.00  0.00    +0.210 C 
ATOM     34  O   UNL     1      -5.367   0.386  -1.067  0.00  0.00    -0.276 OA
ATOM     35  N   UNL     1      -5.255   0.042  -3.256  0.00  0.00    -0.329 N 
ATOM     36  H   UNL     1      -4.774   0.172  -4.088  0.00  0.00    +0.145 HD
ATOM     37  H   UNL     1      -6.090  -0.452  -3.251  0.00  0.00    +0.145 HD
ENDBRANCH  32  33
ENDBRANCH  31  32
ENDBRANCH   5  31
TORSDOF 5
