REMARK  Name = ZINC39656097
REMARK  9 active torsions:
REMARK  status: ('A' for Active; 'I' for Inactive)
REMARK    1  A    between atoms: C_1  and  C_2
REMARK    2  A    between atoms: C_8  and  C_11
REMARK    3  A    between atoms: C_11  and  C_12
REMARK    4  A    between atoms: C_12  and  N_13
REMARK    5  A    between atoms: C_14  and  C_16
REMARK    6  A    between atoms: C_27  and  C_29
REMARK    7  A    between atoms: C_30  and  C_41
REMARK    8  A    between atoms: C_33  and  C_35
REMARK    9  A    between atoms: C_37  and  C_40
REMARK                            x       y       z     vdW  Elec       q    Type
REMARK                         _______ _______ _______ _____ _____    ______ ____
ROOT
ATOM      1  C   UNL     1       5.192  -0.188  -7.259  0.00  0.00    +0.100 C 
ATOM      2  C   UNL     1       5.095   0.642  -8.559  0.00  0.00    +0.121 C 
ATOM      3  N   UNL     1       5.957  -0.075  -9.527  0.00  0.00    -0.296 N 
ATOM      4  C   UNL     1       5.700  -1.510  -9.257  0.00  0.00    +0.115 C 
ATOM      5  C   UNL     1       5.589  -1.600  -7.722  0.00  0.00    -0.004 C 
ATOM      6  C   UNL     1       4.512  -2.607  -7.330  0.00  0.00    -0.010 C 
ATOM      7  C   UNL     1       4.956  -4.011  -7.748  0.00  0.00    -0.082 C 
ATOM      8  N   UNL     1       6.226  -4.342  -7.090  0.00  0.00    +0.379 N 
ATOM      9  C   UNL     1       7.279  -3.425  -7.545  0.00  0.00    -0.082 C 
ATOM     10  C   UNL     1       6.933  -1.996  -7.117  0.00  0.00    -0.010 C 
ATOM     11  C   UNL     1       6.787   0.457 -10.446  0.00  0.00    +0.247 C 
ATOM     12  O   UNL     1       7.365  -0.267 -11.236  0.00  0.00    -0.270 OA
ATOM     13  H   UNL     1       6.117  -4.258  -6.090  0.00  0.00    -0.086 HD
ATOM     14  H   UNL     1       6.485  -5.290  -7.319  0.00  0.00    -0.086 HD
ENDROOT
BRANCH  11  15
ATOM     15  C   UNL     1       6.987   1.856 -10.493  0.00  0.00    +0.072 C 
ATOM     16  C   UNL     1       7.792   2.577  -9.689  0.00  0.00    +0.047 C 
ATOM     17  N   UNL     1       7.745   3.897 -10.010  0.00  0.00    -0.269 N 
ATOM     18  O   UNL     1       6.862   4.112 -11.096  0.00  0.00    -0.260 OA
ATOM     19  C   UNL     1       6.342   2.824 -11.459  0.00  0.00    +0.237 C 
ATOM     20  C   UNL     1       8.631   1.997  -8.579  0.00  0.00    +0.066 C 
ATOM     21  H   UNL     1       8.247   4.595  -9.559  0.00  0.00    +0.194 HD
BRANCH  19  22
ATOM     22  C   UNL     1       6.723   2.482 -12.876  0.00  0.00    +0.120 A 
ATOM     23  C   UNL     1       5.831   2.230 -13.934  0.00  0.00    +0.073 A 
ATOM     24  C   UNL     1       6.555   1.963 -15.038  0.00  0.00    +0.135 A 
ATOM     25  O   UNL     1       7.854   2.038 -14.710  0.00  0.00    -0.360 OA
ATOM     26  N   UNL     1       7.937   2.374 -13.337  0.00  0.00    -0.080 NA
ATOM     27  C   UNL     1       6.003   1.636 -16.401  0.00  0.00    +0.089 C 
ENDBRANCH  19  22
ENDBRANCH  11  15
BRANCH   1  29
ATOM     28  N   UNL     1       3.802  -0.471  -5.233  0.00  0.00    -0.315 N 
ATOM     29  C   UNL     1       3.860  -0.221  -6.556  0.00  0.00    +0.218 C 
ATOM     30  O   UNL     1       2.840  -0.023  -7.181  0.00  0.00    -0.275 OA
ATOM     31  H   UNL     1       4.618  -0.630  -4.733  0.00  0.00    +0.149 HD
BRANCH  28  32
ATOM     32  C   UNL     1       2.507  -0.504  -4.550  0.00  0.00    +0.109 C 
BRANCH  32  33
ATOM     33  C   UNL     1       2.721  -0.806  -3.065  0.00  0.00    +0.056 C 
BRANCH  33  41
ATOM     34  C   UNL     1      -0.459  -5.569  -2.975  0.00  0.00    +0.044 C 
ATOM     35  C   UNL     1      -0.508  -4.151  -2.468  0.00  0.00    -0.050 A 
ATOM     36  C   UNL     1      -1.604  -3.720  -1.734  0.00  0.00    +0.005 A 
ATOM     37  C   UNL     1      -1.669  -2.427  -1.262  0.00  0.00    +0.026 A 
ATOM     38  C   UNL     1      -0.627  -1.544  -1.521  0.00  0.00    +0.047 A 
ATOM     39  N   UNL     1      -0.399  -0.225  -1.197  0.00  0.00    -0.360 N 
ATOM     40  C   UNL     1       0.806   0.177  -1.706  0.00  0.00    +0.087 A 
ATOM     41  C   UNL     1       1.389  -0.839  -2.362  0.00  0.00    -0.021 A 
ATOM     42  C   UNL     1       0.483  -1.986  -2.265  0.00  0.00    +0.003 A 
ATOM     43  C   UNL     1       0.530  -3.302  -2.730  0.00  0.00    +0.013 A 
ATOM     44  H   UNL     1      -1.002   0.335  -0.684  0.00  0.00    +0.165 HD
ENDBRANCH  33  41
ENDBRANCH  32  33
ENDBRANCH  28  32
ENDBRANCH   1  29
TORSDOF 6
