REMARK  Name = ZINC39669114
REMARK  4 active torsions:
REMARK  status: ('A' for Active; 'I' for Inactive)
REMARK    1  A    between atoms: C_10  and  C_12
REMARK    2  A    between atoms: C_12  and  N_13
REMARK    3  A    between atoms: C_14  and  C_16
REMARK    4  A    between atoms: C_27  and  C_29
REMARK                            x       y       z     vdW  Elec       q    Type
REMARK                         _______ _______ _______ _____ _____    ______ ____
ROOT
ATOM      1  C   UNL     1       8.073  -0.315   1.688  0.00  0.00    +0.100 C 
ATOM      2  C   UNL     1       8.622  -0.413   0.246  0.00  0.00    +0.121 C 
ATOM      3  N   UNL     1       9.615   0.682   0.149  0.00  0.00    -0.296 N 
ATOM      4  C   UNL     1      10.301   0.676   1.463  0.00  0.00    +0.115 C 
ATOM      5  C   UNL     1       9.180   0.397   2.484  0.00  0.00    -0.004 C 
ATOM      6  C   UNL     1       9.694  -0.508   3.599  0.00  0.00    -0.010 C 
ATOM      7  C   UNL     1      10.752   0.243   4.413  0.00  0.00    -0.082 C 
ATOM      8  N   UNL     1      10.163   1.463   4.978  0.00  0.00    +0.379 N 
ATOM      9  C   UNL     1       9.755   2.369   3.897  0.00  0.00    -0.082 C 
ATOM     10  C   UNL     1       8.655   1.708   3.062  0.00  0.00    -0.010 C 
ATOM     11  C   UNL     1       9.844   1.499  -0.899  0.00  0.00    +0.249 C 
ATOM     12  O   UNL     1      10.764   2.294  -0.861  0.00  0.00    -0.270 OA
ATOM     13  H   UNL     1       9.356   1.219   5.533  0.00  0.00    -0.086 HD
ATOM     14  H   UNL     1      10.843   1.924   5.563  0.00  0.00    -0.086 HD
ENDROOT
BRANCH  11  15
ATOM     15  C   UNL     1       8.979   1.429  -2.093  0.00  0.00    +0.073 A 
ATOM     16  C   UNL     1       8.459   0.202  -2.512  0.00  0.00    +0.036 A 
ATOM     17  C   UNL     1       7.651   0.143  -3.628  0.00  0.00    +0.042 A 
ATOM     18  C   UNL     1       7.353   1.297  -4.335  0.00  0.00    +0.023 A 
ATOM     19  C   UNL     1       7.862   2.515  -3.927  0.00  0.00    +0.040 A 
ATOM     20  C   UNL     1       8.670   2.591  -2.807  0.00  0.00    +0.136 A 
ATOM     21  F   UNL     1       9.164   3.783  -2.406  0.00  0.00    -0.205 F 
ATOM     22 CL   UNL     1       7.005  -1.382  -4.150  0.00  0.00    -0.084 Cl
ENDBRANCH  11  15
BRANCH   1  24
ATOM     23  N   UNL     1       5.881   0.276   2.668  0.00  0.00    -0.312 N 
ATOM     24  C   UNL     1       6.804   0.498   1.712  0.00  0.00    +0.218 C 
ATOM     25  O   UNL     1       6.614   1.350   0.871  0.00  0.00    -0.275 OA
ATOM     26  H   UNL     1       6.033  -0.406   3.341  0.00  0.00    +0.149 HD
BRANCH  23  27
ATOM     27  C   UNL     1       4.647   1.066   2.692  0.00  0.00    +0.140 C 
BRANCH  27  37
ATOM     28  C   UNL     1       0.025   2.656   3.656  0.00  0.00    +0.000 A 
ATOM     29  C   UNL     1       0.601   2.125   2.517  0.00  0.00    +0.000 A 
ATOM     30  C   UNL     1       1.814   1.471   2.599  0.00  0.00    +0.006 A 
ATOM     31  C   UNL     1       2.459   1.345   3.820  0.00  0.00    -0.014 A 
ATOM     32  C   UNL     1       1.886   1.877   4.955  0.00  0.00    -0.040 A 
ATOM     33  C   UNL     1       0.667   2.531   4.872  0.00  0.00    +0.004 A 
ATOM     34  C   UNL     1       2.563   1.771   6.298  0.00  0.00    +0.063 C 
ATOM     35  C   UNL     1       3.640   0.687   6.250  0.00  0.00    +0.165 C 
ATOM     36  O   UNL     1       4.454   0.906   5.093  0.00  0.00    -0.370 OA
ATOM     37  C   UNL     1       3.778   0.618   3.869  0.00  0.00    +0.165 C 
ENDBRANCH  27  37
ENDBRANCH  23  27
ENDBRANCH   1  24
TORSDOF 4
