REMARK  Name = ZINC39685329
REMARK  6 active torsions:
REMARK  status: ('A' for Active; 'I' for Inactive)
REMARK    1  A    between atoms: C_3  and  O_8
REMARK    2  A    between atoms: O_8  and  C_9
REMARK    3  A    between atoms: C_9  and  C_10
REMARK    4  A    between atoms: C_10  and  N_11
REMARK    5  A    between atoms: C_12  and  C_14
REMARK    6  A    between atoms: C_25  and  C_27
REMARK                            x       y       z     vdW  Elec       q    Type
REMARK                         _______ _______ _______ _____ _____    ______ ____
ROOT
ATOM      1  C   UNL     1       6.772   5.038   2.135  0.00  0.00    +0.100 C 
ATOM      2  C   UNL     1       5.576   5.919   2.561  0.00  0.00    +0.121 C 
ATOM      3  N   UNL     1       6.191   7.074   3.257  0.00  0.00    -0.296 N 
ATOM      4  C   UNL     1       7.403   7.381   2.460  0.00  0.00    +0.115 C 
ATOM      5  C   UNL     1       7.968   6.002   2.069  0.00  0.00    -0.004 C 
ATOM      6  C   UNL     1       8.534   6.046   0.653  0.00  0.00    -0.010 C 
ATOM      7  C   UNL     1       9.758   6.965   0.625  0.00  0.00    -0.082 C 
ATOM      8  N   UNL     1      10.770   6.463   1.562  0.00  0.00    +0.379 N 
ATOM      9  C   UNL     1      10.251   6.511   2.934  0.00  0.00    -0.082 C 
ATOM     10  C   UNL     1       9.047   5.573   3.059  0.00  0.00    -0.010 C 
ATOM     11  C   UNL     1       5.748   7.702   4.364  0.00  0.00    +0.247 C 
ATOM     12  O   UNL     1       4.804   7.251   4.982  0.00  0.00    -0.270 OA
ATOM     13  H   UNL     1      11.003   5.510   1.325  0.00  0.00    -0.086 HD
ATOM     14  H   UNL     1      11.599   7.035   1.498  0.00  0.00    -0.086 HD
ENDROOT
BRANCH  11  15
ATOM     15  C   UNL     1       6.412   8.939   4.827  0.00  0.00    +0.040 A 
ATOM     16  C   UNL     1       7.181   9.696   3.941  0.00  0.00    +0.033 A 
ATOM     17  C   UNL     1       7.798  10.850   4.379  0.00  0.00    +0.043 A 
ATOM     18  C   UNL     1       7.656  11.258   5.694  0.00  0.00    +0.040 A 
ATOM     19  C   UNL     1       6.895  10.512   6.578  0.00  0.00    +0.043 A 
ATOM     20  C   UNL     1       6.268   9.359   6.150  0.00  0.00    +0.033 A 
ATOM     21 CL   UNL     1       6.724  11.031   8.226  0.00  0.00    -0.083 Cl
ATOM     22 CL   UNL     1       8.755  11.792   3.278  0.00  0.00    -0.083 Cl
ENDBRANCH  11  15
BRANCH   1  24
ATOM     23  N   UNL     1       7.051   3.228   0.472  0.00  0.00    -0.312 N 
ATOM     24  C   UNL     1       6.516   4.426   0.782  0.00  0.00    +0.218 C 
ATOM     25  O   UNL     1       5.829   5.011  -0.029  0.00  0.00    -0.275 OA
ATOM     26  H   UNL     1       7.600   2.760   1.121  0.00  0.00    +0.149 HD
BRANCH  23  27
ATOM     27  C   UNL     1       6.803   2.632  -0.843  0.00  0.00    +0.145 C 
BRANCH  27  28
ATOM     28  C   UNL     1       7.518   1.283  -0.935  0.00  0.00    +0.247 C 
BRANCH  28  29
ATOM     29  O   UNL     1       6.944   0.374   0.006  0.00  0.00    -0.490 OA
BRANCH  29  32
ATOM     30  C   UNL     1       7.493  -3.086   0.989  0.00  0.00    +0.006 A 
ATOM     31  C   UNL     1       6.959  -1.812   0.943  0.00  0.00    +0.046 A 
ATOM     32  C   UNL     1       7.469  -0.879   0.052  0.00  0.00    +0.123 A 
ATOM     33  C   UNL     1       8.515  -1.225  -0.790  0.00  0.00    +0.084 A 
ATOM     34  C   UNL     1       9.047  -2.502  -0.741  0.00  0.00    +0.127 A 
ATOM     35  C   UNL     1       8.535  -3.431   0.149  0.00  0.00    +0.038 A 
ATOM     36  F   UNL     1      10.065  -2.841  -1.561  0.00  0.00    -0.205 F 
ENDBRANCH  29  32
ENDBRANCH  28  29
ENDBRANCH  27  28
ENDBRANCH  23  27
ENDBRANCH   1  24
TORSDOF 6
