REMARK  Name = ZINC38688739
REMARK  11 active torsions:
REMARK  status: ('A' for Active; 'I' for Inactive)
REMARK    1  A    between atoms: C_1  and  C_2
REMARK    2  A    between atoms: C_10  and  C_11
REMARK    3  A    between atoms: C_11  and  O_13
REMARK    4  A    between atoms: O_13  and  C_14
REMARK    5  A    between atoms: C_21  and  N_37
REMARK    6  A    between atoms: C_22  and  C_35
REMARK    7  A    between atoms: C_23  and  C_25
REMARK    8  A    between atoms: C_27  and  O_33
REMARK    9  A    between atoms: C_30  and  O_31
REMARK   10  A    between atoms: O_31  and  C_32
REMARK   11  A    between atoms: O_33  and  C_34
REMARK                            x       y       z     vdW  Elec       q    Type
REMARK                         _______ _______ _______ _____ _____    ______ ____
ROOT
ATOM      1  C   UNL     1       0.025  -0.746   4.722  0.00  0.00    +0.136 A 
ATOM      2  C   UNL     1      -0.070   0.630   4.874  0.00  0.00    +0.047 A 
ATOM      3  C   UNL     1      -0.100   1.185   6.138  0.00  0.00    +0.012 A 
ATOM      4  C   UNL     1      -0.035   0.373   7.257  0.00  0.00    +0.008 A 
ATOM      5  C   UNL     1       0.059  -1.002   7.111  0.00  0.00    +0.138 A 
ATOM      6  C   UNL     1       0.084  -1.562   5.840  0.00  0.00    +0.093 A 
ATOM      7  O   UNL     1       0.123  -1.814   8.195  0.00  0.00    -0.441 OA
ATOM      8  C   UNL     1       0.480  -1.311   9.389  0.00  0.00    +0.199 C 
ATOM      9  C   UNL     1       0.412   0.015   9.658  0.00  0.00    +0.098 C 
ATOM     10  C   UNL     1      -0.070   0.997   8.627  0.00  0.00    +0.102 C 
ENDROOT
BRANCH  10  11
ATOM     11  C   UNL     1      -1.482   1.409   8.952  0.00  0.00    +0.010 A 
ATOM     12  C   UNL     1      -2.486   0.461   8.995  0.00  0.00    +0.053 A 
ATOM     13  C   UNL     1      -3.786   0.841   9.295  0.00  0.00    +0.121 A 
ATOM     14  C   UNL     1      -4.078   2.172   9.552  0.00  0.00    +0.049 A 
ATOM     15  C   UNL     1      -3.074   3.120   9.509  0.00  0.00    +0.049 A 
ATOM     16  C   UNL     1      -1.773   2.740   9.214  0.00  0.00    +0.124 A 
BRANCH  16  17
ATOM     17  O   UNL     1      -0.784   3.672   9.178  0.00  0.00    -0.495 OA
ATOM     18  C   UNL     1      -1.155   5.023   9.458  0.00  0.00    +0.277 C 
ENDBRANCH  16  17
BRANCH  13  19
ATOM     19  O   UNL     1      -4.774  -0.092   9.336  0.00  0.00    -0.495 OA
ATOM     20  C   UNL     1      -6.090   0.369   9.652  0.00  0.00    +0.277 C 
ENDBRANCH  13  19
ENDBRANCH  10  11
BRANCH   8  21
ATOM     21  N   UNL     1       0.926  -2.166  10.366  0.00  0.00    -0.328 N 
ATOM     22  H   UNL     1       0.980  -3.118  10.189  0.00  0.00    +0.145 HD
ATOM     23  H   UNL     1       1.187  -1.818  11.233  0.00  0.00    +0.145 HD
ENDBRANCH   8  21
BRANCH   9  24
ATOM     24  C   UNL     1       0.807   0.490  10.949  0.00  0.00    +0.101 C 
ATOM     25  N   UNL     1       1.120   0.867  11.974  0.00  0.00    -0.191 NA
ENDBRANCH   9  24
BRANCH   1  26
ATOM     26  O   UNL     1       0.054  -1.293   3.478  0.00  0.00    -0.420 OA
BRANCH  26  27
ATOM     27  C   UNL     1      -1.073  -1.869   3.014  0.00  0.00    +0.380 C 
ATOM     28  O   UNL     1      -2.047  -1.968   3.735  0.00  0.00    -0.241 OA
BRANCH  27  38
ATOM     29  C   UNL     1      -3.541  -3.235   1.703  0.00  0.00    +0.048 C 
ATOM     30  C   UNL     1      -2.202  -2.974   1.063  0.00  0.00    +0.010 A 
ATOM     31  C   UNL     1      -1.801  -3.307  -0.303  0.00  0.00    +0.024 A 
ATOM     32  C   UNL     1      -2.441  -3.917  -1.385  0.00  0.00    +0.012 A 
ATOM     33  C   UNL     1      -1.769  -4.085  -2.562  0.00  0.00    +0.001 A 
ATOM     34  C   UNL     1      -0.455  -3.654  -2.690  0.00  0.00    +0.004 A 
ATOM     35  C   UNL     1       0.194  -3.051  -1.635  0.00  0.00    +0.047 A 
ATOM     36  C   UNL     1      -0.469  -2.868  -0.427  0.00  0.00    +0.136 A 
ATOM     37  O   UNL     1      -0.108  -2.325   0.752  0.00  0.00    -0.448 OA
ATOM     38  C   UNL     1      -1.125  -2.377   1.637  0.00  0.00    +0.216 A 
ENDBRANCH  27  38
ENDBRANCH  26  27
ENDBRANCH   1  26
TORSDOF 8
