REMARK  Name = ZINC38509855
REMARK  13 active torsions:
REMARK  status: ('A' for Active; 'I' for Inactive)
REMARK    1  A    between atoms: C_1  and  C_2
REMARK    2  A    between atoms: C_2  and  C_3
REMARK    3  A    between atoms: C_3  and  C_4
REMARK    4  A    between atoms: C_4  and  N_5
REMARK    5  A    between atoms: C_6  and  N_33
REMARK    6  A    between atoms: C_8  and  N_15
REMARK    7  A    between atoms: N_15  and  C_16
REMARK    8  A    between atoms: C_16  and  C_17
REMARK    9  A    between atoms: C_17  and  C_18
REMARK   10  A    between atoms: C_17  and  C_19
REMARK   11  A    between atoms: C_20  and  C_22
REMARK   12  A    between atoms: C_22  and  C_23
REMARK   13  A    between atoms: C_23  and  C_24
REMARK                            x       y       z     vdW  Elec       q    Type
REMARK                         _______ _______ _______ _____ _____    ______ ____
ROOT
ATOM      1  N   UNL     1       2.735  -5.309   2.406  0.00  0.00    -0.290 N 
ATOM      2  C   UNL     1       1.486  -5.740   2.137  0.00  0.00    +0.216 C 
ATOM      3  O   UNL     1       0.536  -5.016   2.346  0.00  0.00    -0.276 OA
ENDROOT
BRANCH   1   6
ATOM      4  N   UNL     1       0.883  -2.951   2.275  0.00  0.00    -0.296 N 
ATOM      5  C   UNL     1       2.345  -2.903   2.189  0.00  0.00    +0.047 C 
ATOM      6  C   UNL     1       2.937  -4.014   3.060  0.00  0.00    +0.167 C 
ATOM      7  C   UNL     1       2.249  -4.013   4.402  0.00  0.00    +0.261 C 
ATOM      8  O   UNL     1       2.935  -4.362   5.502  0.00  0.00    -0.272 OA
ATOM      9  N   UNL     1       0.994  -3.677   4.502  0.00  0.00    -0.126 NA
ATOM     10  C   UNL     1       0.282  -3.281   3.432  0.00  0.00    +0.327 C 
ATOM     11  O   UNL     1      -0.931  -3.224   3.511  0.00  0.00    -0.250 OA
BRANCH   5  12
ATOM     12  N   UNL     1       2.822  -1.597   2.664  0.00  0.00    +0.392 N 
ATOM     13  H   UNL     1       2.538  -1.464   3.622  0.00  0.00    -0.087 HD
ATOM     14  H   UNL     1       3.829  -1.565   2.604  0.00  0.00    -0.087 HD
ATOM     15  H   UNL     1       2.428  -0.866   2.091  0.00  0.00    -0.087 HD
ENDBRANCH   5  12
BRANCH   4  16
ATOM     16  C   UNL     1       0.072  -2.632   1.098  0.00  0.00    +0.107 C 
BRANCH  16  17
ATOM     17  C   UNL     1      -0.227  -1.131   1.075  0.00  0.00    +0.019 C 
BRANCH  17  19
ATOM     18  C   UNL     1      -1.373   0.702  -0.176  0.00  0.00    +0.004 C 
ATOM     19  C   UNL     1      -1.074  -0.798  -0.154  0.00  0.00    -0.002 C 
ENDBRANCH  17  19
ENDBRANCH  16  17
ENDBRANCH   4  16
ENDBRANCH   1   6
BRANCH   1  20
ATOM     20  C   UNL     1       3.889  -6.136   2.046  0.00  0.00    +0.111 C 
BRANCH  20  21
ATOM     21  C   UNL     1       4.415  -5.707   0.675  0.00  0.00    +0.000 C 
ATOM     22  C   UNL     1       5.012  -4.302   0.774  0.00  0.00    +0.009 C 
ATOM     23  C   UNL     1       5.495  -6.688   0.213  0.00  0.00    +0.009 C 
ENDBRANCH  20  21
ENDBRANCH   1  20
BRANCH   2  24
ATOM     24  C   UNL     1       1.271  -7.121   1.574  0.00  0.00    +0.101 C 
BRANCH  24  25
ATOM     25  C   UNL     1      -0.210  -7.313   1.245  0.00  0.00    +0.046 C 
BRANCH  25  26
ATOM     26  C   UNL     1      -0.425  -8.694   0.682  0.00  0.00    -0.022 A 
ATOM     27  C   UNL     1      -0.637  -9.924   1.450  0.00  0.00    +0.003 A 
ATOM     28  C   UNL     1      -0.708 -10.217   2.813  0.00  0.00    +0.010 A 
ATOM     29  C   UNL     1      -0.923 -11.504   3.220  0.00  0.00    +0.001 A 
ATOM     30  C   UNL     1      -1.073 -12.522   2.288  0.00  0.00    +0.002 A 
ATOM     31  C   UNL     1      -1.007 -12.255   0.938  0.00  0.00    +0.026 A 
ATOM     32  C   UNL     1      -0.789 -10.953   0.502  0.00  0.00    +0.047 A 
ATOM     33  N   UNL     1      -0.675 -10.377  -0.744  0.00  0.00    -0.360 N 
ATOM     34  C   UNL     1      -0.465  -9.031  -0.617  0.00  0.00    +0.087 A 
ATOM     35  H   UNL     1      -0.739 -10.854  -1.586  0.00  0.00    +0.165 HD
ENDBRANCH  25  26
ENDBRANCH  24  25
ENDBRANCH   2  24
TORSDOF 10
