REMARK  Name = ZINC39652763
REMARK  10 active torsions:
REMARK  status: ('A' for Active; 'I' for Inactive)
REMARK    1  A    between atoms: C_1  and  C_2
REMARK    2  A    between atoms: C_2  and  O_3
REMARK    3  A    between atoms: O_3  and  C_4
REMARK    4  A    between atoms: C_9  and  C_10
REMARK    5  A    between atoms: C_10  and  C_11
REMARK    6  A    between atoms: C_11  and  N_12
REMARK    7  A    between atoms: C_13  and  C_15
REMARK    8  A    between atoms: C_26  and  C_28
REMARK    9  A    between atoms: C_31  and  O_34
REMARK   10  A    between atoms: O_34  and  C_35
REMARK                            x       y       z     vdW  Elec       q    Type
REMARK                         _______ _______ _______ _____ _____    ______ ____
ROOT
ATOM      1  C   UNL     1      -7.818   1.779  -1.923  0.00  0.00    +0.100 C 
ATOM      2  C   UNL     1      -7.207   2.976  -1.161  0.00  0.00    +0.121 C 
ATOM      3  N   UNL     1      -6.710   3.882  -2.224  0.00  0.00    -0.296 N 
ATOM      4  C   UNL     1      -7.749   3.817  -3.280  0.00  0.00    +0.115 C 
ATOM      5  C   UNL     1      -8.176   2.336  -3.312  0.00  0.00    -0.004 C 
ATOM      6  C   UNL     1      -9.678   2.224  -3.554  0.00  0.00    -0.010 C 
ATOM      7  C   UNL     1     -10.002   2.729  -4.963  0.00  0.00    -0.082 C 
ATOM      8  N   UNL     1      -9.265   1.933  -5.952  0.00  0.00    +0.379 N 
ATOM      9  C   UNL     1      -7.821   2.119  -5.770  0.00  0.00    -0.082 C 
ATOM     10  C   UNL     1      -7.405   1.588  -4.395  0.00  0.00    -0.010 C 
ATOM     11  C   UNL     1      -5.572   4.603  -2.229  0.00  0.00    +0.248 C 
ATOM     12  O   UNL     1      -4.753   4.453  -1.343  0.00  0.00    -0.270 OA
ATOM     13  H   UNL     1      -9.495   0.957  -5.834  0.00  0.00    -0.086 HD
ATOM     14  H   UNL     1      -9.527   2.227  -6.881  0.00  0.00    -0.086 HD
ENDROOT
BRANCH  11  15
ATOM     15  C   UNL     1      -5.319   5.576  -3.311  0.00  0.00    +0.055 A 
ATOM     16  C   UNL     1      -6.378   6.065  -4.090  0.00  0.00    +0.020 A 
ATOM     17  C   UNL     1      -6.091   6.972  -5.089  0.00  0.00    +0.068 A 
ATOM     18  C   UNL     1      -4.773   7.369  -5.290  0.00  0.00    +0.220 A 
ATOM     19  N   UNL     1      -3.795   6.888  -4.538  0.00  0.00    -0.220 NA
ATOM     20  C   UNL     1      -4.024   6.026  -3.570  0.00  0.00    +0.127 A 
BRANCH  18  21
ATOM     21  O   UNL     1      -4.485   8.260  -6.270  0.00  0.00    -0.438 OA
BRANCH  21  22
ATOM     22  C   UNL     1      -3.204   8.699  -6.377  0.00  0.00    +0.130 A 
ATOM     23  C   UNL     1      -2.244   7.903  -6.985  0.00  0.00    +0.046 A 
ATOM     24  C   UNL     1      -0.942   8.352  -7.093  0.00  0.00    +0.004 A 
ATOM     25  C   UNL     1      -0.595   9.594  -6.594  0.00  0.00    +0.000 A 
ATOM     26  C   UNL     1      -1.549  10.390  -5.987  0.00  0.00    +0.004 A 
ATOM     27  C   UNL     1      -2.854   9.948  -5.883  0.00  0.00    +0.046 A 
ENDBRANCH  21  22
ENDBRANCH  18  21
ENDBRANCH  11  15
BRANCH   1  29
ATOM     28  N   UNL     1      -7.225  -0.611  -2.159  0.00  0.00    -0.315 N 
ATOM     29  C   UNL     1      -6.809   0.667  -2.048  0.00  0.00    +0.218 C 
ATOM     30  O   UNL     1      -5.623   0.921  -2.049  0.00  0.00    -0.275 OA
ATOM     31  H   UNL     1      -8.173  -0.814  -2.158  0.00  0.00    +0.149 HD
BRANCH  28  32
ATOM     32  C   UNL     1      -6.244  -1.692  -2.280  0.00  0.00    +0.109 C 
BRANCH  32  33
ATOM     33  C   UNL     1      -6.974  -3.033  -2.390  0.00  0.00    +0.057 C 
BRANCH  33  39
ATOM     34  C   UNL     1      -5.398  -4.699  -1.377  0.00  0.00    +0.124 A 
ATOM     35  C   UNL     1      -4.473  -5.726  -1.495  0.00  0.00    +0.046 A 
ATOM     36  C   UNL     1      -4.116  -6.192  -2.745  0.00  0.00    +0.004 A 
ATOM     37  C   UNL     1      -4.679  -5.635  -3.879  0.00  0.00    +0.000 A 
ATOM     38  C   UNL     1      -5.600  -4.611  -3.764  0.00  0.00    +0.007 A 
ATOM     39  C   UNL     1      -5.965  -4.145  -2.515  0.00  0.00    -0.004 A 
BRANCH  34  40
ATOM     40  O   UNL     1      -5.751  -4.239  -0.148  0.00  0.00    -0.492 OA
BRANCH  40  42
ATOM     41  C   UNL     1      -5.646  -4.212   2.267  0.00  0.00    +0.048 C 
ATOM     42  C   UNL     1      -5.127  -4.856   0.980  0.00  0.00    +0.225 C 
ENDBRANCH  40  42
ENDBRANCH  34  40
ENDBRANCH  33  39
ENDBRANCH  32  33
ENDBRANCH  28  32
ENDBRANCH   1  29
TORSDOF 9
