REMARK  Name = ZINC63598861
REMARK  5 active torsions:
REMARK  status: ('A' for Active; 'I' for Inactive)
REMARK    1  A    between atoms: C_5  and  C_7
REMARK    2  A    between atoms: N_9  and  N_10
REMARK    3  A    between atoms: C_11  and  C_13
REMARK    4  A    between atoms: C_18  and  O_23
REMARK    5  A    between atoms: O_23  and  C_24
REMARK                            x       y       z     vdW  Elec       q    Type
REMARK                         _______ _______ _______ _____ _____    ______ ____
ROOT
ATOM      1  N   UNL     1       0.121  -4.256  -0.024  0.00  0.00    -0.232 N 
ATOM      2  C   UNL     1      -1.033  -4.952  -0.017  0.00  0.00    +0.255 C 
ATOM      3  O   UNL     1      -2.094  -4.365  -0.003  0.00  0.00    -0.272 OA
ATOM      4  H   UNL     1       0.970  -4.726  -0.035  0.00  0.00    +0.173 HD
ENDROOT
BRANCH   2   5
ATOM      5  C   UNL     1      -1.005  -6.459  -0.026  0.00  0.00    +0.191 C 
ATOM      6  C   UNL     1      -0.760  -6.984   1.371  0.00  0.00    +0.016 C 
ATOM      7  C   UNL     1      -1.843  -7.729   1.687  0.00  0.00    -0.000 A 
ATOM      8  C   UNL     1      -2.210  -8.496   2.882  0.00  0.00    +0.055 A 
ATOM      9  C   UNL     1      -3.390  -9.159   2.914  0.00  0.00    +0.131 A 
ATOM     10  C   UNL     1      -4.289  -9.142   1.833  0.00  0.00    +0.048 A 
ATOM     11  C   UNL     1      -4.041  -8.466   0.691  0.00  0.00    +0.029 A 
ATOM     12  C   UNL     1      -2.791  -7.712   0.549  0.00  0.00    +0.043 A 
ATOM     13  N   UNL     1      -2.312  -6.986  -0.432  0.00  0.00    -0.370 N 
ATOM     14  H   UNL     1      -2.749  -6.824  -1.284  0.00  0.00    +0.161 HD
BRANCH   9  15
ATOM     15  O   UNL     1      -3.717  -9.866   4.028  0.00  0.00    -0.406 OA
BRANCH  15  16
ATOM     16  C   UNL     1      -4.971 -10.550   4.018  0.00  0.00    +0.575 C 
ATOM     17  F   UNL     1      -4.989 -11.475   2.968  0.00  0.00    -0.133 F 
ATOM     18  F   UNL     1      -5.146 -11.221   5.233  0.00  0.00    -0.133 F 
ATOM     19  F   UNL     1      -6.006  -9.625   3.842  0.00  0.00    -0.133 F 
ENDBRANCH  15  16
ENDBRANCH   9  15
ENDBRANCH   2   5
BRANCH   1  22
ATOM     20  C   UNL     1       1.250  -2.160  -0.023  0.00  0.00    +0.262 C 
ATOM     21  O   UNL     1       2.313  -2.748  -0.037  0.00  0.00    -0.269 OA
ATOM     22  N   UNL     1       0.095  -2.856  -0.015  0.00  0.00    -0.230 N 
ATOM     23  H   UNL     1      -0.754  -2.386  -0.004  0.00  0.00    +0.173 HD
BRANCH  20  28
ATOM     24  C   UNL     1      -0.017   1.375   0.010  0.00  0.00    +0.001 A 
ATOM     25  C   UNL     1       1.170   2.087   0.002  0.00  0.00    +0.001 A 
ATOM     26  C   UNL     1       2.383   1.423  -0.013  0.00  0.00    +0.021 A 
ATOM     27  C   UNL     1       2.417   0.041  -0.021  0.00  0.00    +0.053 A 
ATOM     28  C   UNL     1       1.222  -0.683  -0.014  0.00  0.00    +0.056 A 
ATOM     29  C   UNL     1       0.002  -0.004   0.002  0.00  0.00    +0.014 A 
ATOM     30 CL   UNL     1       3.940  -0.792  -0.041  0.00  0.00    -0.083 Cl
ENDBRANCH  20  28
ENDBRANCH   1  22
TORSDOF 5
