REMARK  Name = ZINC16447861
REMARK  8 active torsions:
REMARK  status: ('A' for Active; 'I' for Inactive)
REMARK    1  A    between atoms: C_1  and  C_2
REMARK    2  A    between atoms: C_5  and  O_8
REMARK    3  A    between atoms: O_8  and  C_9
REMARK    4  A    between atoms: C_9  and  C_10
REMARK    5  A    between atoms: N_12  and  N_13
REMARK    6  A    between atoms: C_14  and  C_16
REMARK    7  A    between atoms: C_23  and  C_24
REMARK    8  A    between atoms: C_23  and  C_25
REMARK                            x       y       z     vdW  Elec       q    Type
REMARK                         _______ _______ _______ _____ _____    ______ ____
ROOT
ATOM      1  N   UNL     1      -1.964   9.974   0.074  0.00  0.00    -0.234 N 
ATOM      2  C   UNL     1      -3.066  10.748   0.097  0.00  0.00    +0.234 C 
ATOM      3  O   UNL     1      -4.166  10.237   0.116  0.00  0.00    -0.274 OA
ATOM      4  H   UNL     1      -1.084  10.383   0.059  0.00  0.00    +0.173 HD
ENDROOT
BRANCH   2   5
ATOM      5  C   UNL     1      -2.933  12.250   0.098  0.00  0.00    +0.100 C 
ATOM      6  C   UNL     1      -4.138  12.909  -0.646  0.00  0.00    +0.025 C 
ATOM      7  C   UNL     1      -4.152  14.325   0.036  0.00  0.00    +0.017 C 
ATOM      8  C   UNL     1      -4.302  13.729   1.483  0.00  0.00    +0.029 C 
ATOM      9  C   UNL     1      -3.044  12.805   1.539  0.00  0.00    +0.087 C 
ATOM     10  C   UNL     1      -1.797  13.615   1.901  0.00  0.00    +0.024 C 
ATOM     11  C   UNL     1      -5.467  12.759   1.246  0.00  0.00    -0.026 C 
ATOM     12  C   UNL     1      -5.372  12.287   0.019  0.00  0.00    -0.027 C 
BRANCH   9  13
ATOM     13  C   UNL     1      -3.253  11.684   2.524  0.00  0.00    +0.363 C 
ATOM     14  O   UNL     1      -4.268  11.636   3.179  0.00  0.00    -0.246 OA
ATOM     15  O   UNL     1      -2.313  10.737   2.674  0.00  0.00    -0.246 OA
ENDBRANCH   9  13
ENDBRANCH   2   5
BRANCH   1  18
ATOM     16  C   UNL     1      -0.985   7.804   0.051  0.00  0.00    +0.267 C 
ATOM     17  O   UNL     1       0.115   8.315   0.032  0.00  0.00    -0.271 OA
ATOM     18  N   UNL     1      -2.088   8.579   0.073  0.00  0.00    -0.232 N 
ATOM     19  H   UNL     1      -2.967   8.170   0.089  0.00  0.00    +0.173 HD
BRANCH  16  20
ATOM     20  C   UNL     1      -1.118   6.303   0.050  0.00  0.00    +0.326 C 
BRANCH  20  21
ATOM     21  O   UNL     1       0.181   5.709   0.025  0.00  0.00    -0.483 OA
BRANCH  21  26
ATOM     22  C   UNL     1       0.422   0.082   0.004  0.00  0.00    +0.044 C 
ATOM     23  C   UNL     1       0.358   1.587   0.010  0.00  0.00    -0.050 A 
ATOM     24  C   UNL     1      -0.869   2.226   0.029  0.00  0.00    +0.007 A 
ATOM     25  C   UNL     1      -0.930   3.606   0.040  0.00  0.00    +0.046 A 
ATOM     26  C   UNL     1       0.239   4.351   0.020  0.00  0.00    +0.121 A 
ATOM     27  C   UNL     1       1.469   3.709  -0.004  0.00  0.00    +0.046 A 
ATOM     28  C   UNL     1       1.525   2.328  -0.009  0.00  0.00    +0.007 A 
ENDBRANCH  21  26
ENDBRANCH  20  21
ENDBRANCH  16  20
ENDBRANCH   1  18
TORSDOF 6
