REMARK  Name = ZINC22334021
REMARK  9 active torsions:
REMARK  status: ('A' for Active; 'I' for Inactive)
REMARK    1  A    between atoms: C_1  and  C_2
REMARK    2  A    between atoms: C_2  and  C_4
REMARK    3  A    between atoms: C_2  and  S_10
REMARK    4  A    between atoms: S_10  and  C_11
REMARK    5  A    between atoms: C_14  and  C_20
REMARK    6  A    between atoms: N_15  and  C_16
REMARK    7  A    between atoms: C_16  and  C_17
REMARK    8  A    between atoms: C_17  and  C_18
REMARK    9  A    between atoms: C_17  and  C_19
REMARK                            x       y       z     vdW  Elec       q    Type
REMARK                         _______ _______ _______ _____ _____    ______ ____
ROOT
ATOM      1  C   UNL     1      -2.387  -0.137   1.838  0.00  0.00    +0.170 A 
ATOM      2  N   UNL     1      -1.863   0.730   2.676  0.00  0.00    -0.230 NA
ATOM      3  C   UNL     1      -2.758   1.035   3.624  0.00  0.00    +0.140 A 
ATOM      4  C   UNL     1      -3.895   0.334   3.377  0.00  0.00    +0.069 A 
ATOM      5  N   UNL     1      -3.661  -0.410   2.234  0.00  0.00    -0.318 N 
ENDROOT
BRANCH   4   6
ATOM      6  C   UNL     1      -5.141   0.364   4.172  0.00  0.00    +0.000 A 
ATOM      7  C   UNL     1      -6.074  -0.667   4.051  0.00  0.00    +0.011 A 
ATOM      8  C   UNL     1      -7.235  -0.634   4.795  0.00  0.00    +0.016 A 
ATOM      9  C   UNL     1      -7.476   0.420   5.660  0.00  0.00    +0.018 A 
ATOM     10  C   UNL     1      -6.554   1.446   5.784  0.00  0.00    +0.016 A 
ATOM     11  C   UNL     1      -5.387   1.421   5.050  0.00  0.00    +0.011 A 
ATOM     12 BR   UNL     1      -9.070   0.459   6.676  0.00  0.00    -0.050 Br
ENDBRANCH   4   6
BRANCH   1  13
ATOM     13  S   UNL     1      -1.578  -0.824   0.432  0.00  0.00    -0.075 S 
BRANCH  13  15
ATOM     14  C   UNL     1      -0.057   1.441   0.236  0.00  0.00    +0.029 C 
ATOM     15  C   UNL     1       0.070  -0.067   0.460  0.00  0.00    +0.137 C 
BRANCH  15  16
ATOM     16  C   UNL     1       0.917  -0.668  -0.632  0.00  0.00    +0.233 C 
ATOM     17  O   UNL     1       0.391  -1.151  -1.611  0.00  0.00    -0.274 OA
ATOM     18  N   UNL     1       2.260  -0.668  -0.520  0.00  0.00    -0.239 N 
ATOM     19  C   UNL     1       3.018  -1.205  -1.496  0.00  0.00    +0.303 C 
ATOM     20  O   UNL     1       2.490  -1.689  -2.478  0.00  0.00    -0.253 OA
ATOM     21  N   UNL     1       4.361  -1.206  -1.384  0.00  0.00    -0.313 N 
ATOM     22  H   UNL     1       2.682  -0.282   0.264  0.00  0.00    +0.159 HD
ATOM     23  H   UNL     1       4.782  -0.819  -0.600  0.00  0.00    +0.146 HD
ATOM     24  H   UNL     1       4.907  -1.592  -2.087  0.00  0.00    +0.146 HD
ENDBRANCH  15  16
ENDBRANCH  13  15
ENDBRANCH   1  13
BRANCH   5  25
ATOM     25  C   UNL     1      -4.602  -1.320   1.577  0.00  0.00    +0.127 C 
BRANCH  25  26
ATOM     26  C   UNL     1      -4.437  -2.728   2.153  0.00  0.00    +0.003 C 
ATOM     27  C   UNL     1      -5.513  -3.647   1.571  0.00  0.00    +0.009 C 
ATOM     28  C   UNL     1      -3.053  -3.269   1.787  0.00  0.00    +0.009 C 
ENDBRANCH  25  26
ENDBRANCH   5  25
TORSDOF 6
