REMARK  Name = ZINC12484534
REMARK  8 active torsions:
REMARK  status: ('A' for Active; 'I' for Inactive)
REMARK    1  A    between atoms: C_1  and  C_2
REMARK    2  A    between atoms: C_7  and  C_8
REMARK    3  A    between atoms: N_10  and  C_11
REMARK    4  A    between atoms: C_14  and  S_17
REMARK    5  A    between atoms: S_17  and  N_20
REMARK    6  A    between atoms: N_20  and  C_21
REMARK    7  A    between atoms: C_24  and  S_27
REMARK    8  A    between atoms: S_27  and  N_30
REMARK                            x       y       z     vdW  Elec       q    Type
REMARK                         _______ _______ _______ _____ _____    ______ ____
ROOT
ATOM      1  C   UNL     1       3.744   4.229   0.290  0.00  0.00    +0.034 A 
ATOM      2  C   UNL     1       2.884   3.990  -0.775  0.00  0.00    +0.025 A 
ATOM      3  C   UNL     1       1.601   3.539  -0.536  0.00  0.00    +0.030 A 
ATOM      4  C   UNL     1       1.172   3.325   0.761  0.00  0.00    +0.109 A 
ATOM      5  C   UNL     1       2.023   3.567   1.823  0.00  0.00    +0.030 A 
ATOM      6  C   UNL     1       3.309   4.014   1.591  0.00  0.00    +0.025 A 
ENDROOT
BRANCH   1   9
ATOM      7  C   UNL     1       5.282   5.543  -0.961  0.00  0.00    +0.249 C 
ATOM      8  O   UNL     1       4.356   5.993  -1.607  0.00  0.00    -0.270 OA
ATOM      9  N   UNL     1       5.044   4.686   0.052  0.00  0.00    -0.281 N 
ATOM     10  H   UNL     1       5.774   4.386   0.615  0.00  0.00    +0.155 HD
BRANCH   7  17
ATOM     11  C   UNL     1       5.798   7.184  -3.288  0.00  0.00    +0.044 C 
ATOM     12  C   UNL     1       6.931   6.727  -2.406  0.00  0.00    -0.038 A 
ATOM     13  C   UNL     1       8.228   7.090  -2.703  0.00  0.00    +0.004 A 
ATOM     14  C   UNL     1       9.269   6.672  -1.894  0.00  0.00    +0.000 A 
ATOM     15  C   UNL     1       9.018   5.888  -0.782  0.00  0.00    +0.001 A 
ATOM     16  C   UNL     1       7.725   5.522  -0.470  0.00  0.00    +0.013 A 
ATOM     17  C   UNL     1       6.670   5.936  -1.286  0.00  0.00    +0.040 A 
ENDBRANCH   7  17
ENDBRANCH   1   9
BRANCH   4  18
ATOM     18  S   UNL     1      -0.466   2.749   1.061  0.00  0.00    +0.072 S 
ATOM     19  O   UNL     1      -1.220   3.041  -0.108  0.00  0.00    -0.150 OA
ATOM     20  O   UNL     1      -0.837   3.229   2.346  0.00  0.00    -0.150 OA
BRANCH  18  21
ATOM     21  N   UNL     1      -0.392   1.098   1.175  0.00  0.00    -0.216 N 
ATOM     22  H   UNL     1      -0.821   0.545   0.504  0.00  0.00    +0.174 HD
BRANCH  21  23
ATOM     23  C   UNL     1       0.290   0.502   2.239  0.00  0.00    +0.048 A 
ATOM     24  C   UNL     1       1.518  -0.109   2.023  0.00  0.00    +0.026 A 
ATOM     25  C   UNL     1       2.192  -0.693   3.078  0.00  0.00    +0.030 A 
ATOM     26  C   UNL     1       1.640  -0.679   4.346  0.00  0.00    +0.105 A 
ATOM     27  C   UNL     1       0.415  -0.075   4.563  0.00  0.00    +0.030 A 
ATOM     28  C   UNL     1      -0.261   0.515   3.514  0.00  0.00    +0.026 A 
BRANCH  26  29
ATOM     29  S   UNL     1       2.500  -1.431   5.687  0.00  0.00    +0.056 S 
ATOM     30  O   UNL     1       3.875  -1.448   5.330  0.00  0.00    -0.153 OA
ATOM     31  O   UNL     1       2.029  -0.805   6.873  0.00  0.00    -0.153 OA
BRANCH  29  32
ATOM     32  N   UNL     1       2.010  -3.011   5.759  0.00  0.00    -0.204 NA
ATOM     33  H   UNL     1       1.360  -3.346   5.122  0.00  0.00    +0.144 HD
ATOM     34  H   UNL     1       2.373  -3.600   6.439  0.00  0.00    +0.144 HD
ENDBRANCH  29  32
ENDBRANCH  26  29
ENDBRANCH  21  23
ENDBRANCH  18  21
ENDBRANCH   4  18
TORSDOF 7
