REMARK  Name = ZINC39674429
REMARK  10 active torsions:
REMARK  status: ('A' for Active; 'I' for Inactive)
REMARK    1  A    between atoms: C_1  and  C_2
REMARK    2  A    between atoms: C_4  and  C_9
REMARK    3  A    between atoms: C_5  and  C_8
REMARK    4  A    between atoms: C_9  and  C_11
REMARK    5  A    between atoms: C_9  and  N_12
REMARK    6  A    between atoms: C_13  and  C_15
REMARK    7  A    between atoms: C_26  and  C_28
REMARK    8  A    between atoms: C_31  and  O_38
REMARK    9  A    between atoms: C_32  and  C_34
REMARK   10  A    between atoms: O_38  and  C_39
REMARK                            x       y       z     vdW  Elec       q    Type
REMARK                         _______ _______ _______ _____ _____    ______ ____
ROOT
ATOM      1  C   UNL     1      -2.579  -1.594  -5.202  0.00  0.00    +0.100 C 
ATOM      2  C   UNL     1      -3.468  -2.732  -4.652  0.00  0.00    +0.121 C 
ATOM      3  N   UNL     1      -4.242  -3.202  -5.826  0.00  0.00    -0.296 N 
ATOM      4  C   UNL     1      -3.271  -3.168  -6.946  0.00  0.00    +0.115 C 
ATOM      5  C   UNL     1      -2.452  -1.884  -6.707  0.00  0.00    -0.004 C 
ATOM      6  C   UNL     1      -0.990  -2.115  -7.078  0.00  0.00    -0.010 C 
ATOM      7  C   UNL     1      -0.882  -2.344  -8.589  0.00  0.00    -0.082 C 
ATOM      8  N   UNL     1      -1.410  -1.174  -9.302  0.00  0.00    +0.379 N 
ATOM      9  C   UNL     1      -2.840  -1.014  -9.011  0.00  0.00    -0.082 C 
ATOM     10  C   UNL     1      -3.031  -0.729  -7.519  0.00  0.00    -0.010 C 
ATOM     11  C   UNL     1      -5.536  -3.576  -5.865  0.00  0.00    +0.247 C 
ATOM     12  O   UNL     1      -6.237  -3.445  -4.881  0.00  0.00    -0.270 OA
ATOM     13  H   UNL     1      -0.913  -0.348  -9.004  0.00  0.00    -0.086 HD
ATOM     14  H   UNL     1      -1.282  -1.301 -10.294  0.00  0.00    -0.086 HD
ENDROOT
BRANCH  11  15
ATOM     15  C   UNL     1      -6.102  -4.145  -7.104  0.00  0.00    +0.038 A 
ATOM     16  C   UNL     1      -5.258  -4.705  -8.067  0.00  0.00    +0.016 A 
ATOM     17  C   UNL     1      -5.790  -5.235  -9.222  0.00  0.00    +0.047 A 
ATOM     18  C   UNL     1      -7.165  -5.213  -9.430  0.00  0.00    +0.132 A 
ATOM     19  C   UNL     1      -8.007  -4.657  -8.475  0.00  0.00    +0.097 A 
ATOM     20  C   UNL     1      -7.483  -4.129  -7.315  0.00  0.00    +0.029 A 
BRANCH  19  21
ATOM     21  C   UNL     1      -9.496  -4.635  -8.705  0.00  0.00    +0.421 C 
ATOM     22  F   UNL     1     -10.129  -4.030  -7.614  0.00  0.00    -0.166 F 
ATOM     23  F   UNL     1      -9.777  -3.910  -9.868  0.00  0.00    -0.166 F 
ATOM     24  F   UNL     1      -9.965  -5.945  -8.848  0.00  0.00    -0.166 F 
ENDBRANCH  19  21
BRANCH  18  25
ATOM     25  O   UNL     1      -7.685  -5.736 -10.569  0.00  0.00    -0.495 OA
ATOM     26  C   UNL     1      -6.763  -6.291 -11.508  0.00  0.00    +0.277 C 
ENDBRANCH  18  25
ENDBRANCH  11  15
BRANCH   1  28
ATOM     27  N   UNL     1      -0.478  -0.502  -4.487  0.00  0.00    -0.309 N 
ATOM     28  C   UNL     1      -1.223  -1.623  -4.545  0.00  0.00    +0.219 C 
ATOM     29  O   UNL     1      -0.803  -2.656  -4.069  0.00  0.00    -0.275 OA
ATOM     30  H   UNL     1      -0.815   0.324  -4.868  0.00  0.00    +0.149 HD
BRANCH  27  31
ATOM     31  C   UNL     1       0.840  -0.531  -3.848  0.00  0.00    +0.100 C 
ATOM     32  C   UNL     1       1.887  -0.998  -4.861  0.00  0.00    +0.033 C 
BRANCH  31  35
ATOM     33  C   UNL     1       2.204   2.076  -5.304  0.00  0.00    +0.039 C 
ATOM     34  C   UNL     1       1.198   2.148  -4.153  0.00  0.00    +0.154 C 
ATOM     35  C   UNL     1       1.193   0.852  -3.362  0.00  0.00    -0.001 C 
ATOM     36  C   UNL     1       1.573   1.221  -2.137  0.00  0.00    +0.063 C 
ATOM     37  N   UNL     1       1.804   2.551  -2.087  0.00  0.00    -0.159 NA
ATOM     38  N   UNL     1       1.620   3.147  -3.155  0.00  0.00    -0.180 NA
ATOM     39  C   UNL     1       1.725   0.281  -0.969  0.00  0.00    +0.067 C 
ENDBRANCH  31  35
ENDBRANCH  27  31
ENDBRANCH   1  28
TORSDOF 6
