REMARK  Name = ZINC39535128
REMARK  10 active torsions:
REMARK  status: ('A' for Active; 'I' for Inactive)
REMARK    1  A    between atoms: C_1  and  C_2
REMARK    2  A    between atoms: C_2  and  O_3
REMARK    3  A    between atoms: O_3  and  C_4
REMARK    4  A    between atoms: C_4  and  C_6
REMARK    5  A    between atoms: C_7  and  C_20
REMARK    6  A    between atoms: C_12  and  C_14
REMARK    7  A    between atoms: C_20  and  S_21
REMARK    8  A    between atoms: S_21  and  C_22
REMARK    9  A    between atoms: C_25  and  C_28
REMARK   10  A    between atoms: N_26  and  N_27
REMARK                            x       y       z     vdW  Elec       q    Type
REMARK                         _______ _______ _______ _____ _____    ______ ____
ROOT
ATOM      1  C   UNL     1      -2.795  -2.410   0.126  0.00  0.00    +0.079 C 
ATOM      2  C   UNL     1      -2.985  -3.731  -0.085  0.00  0.00    +0.034 C 
ATOM      3  N   UNL     1      -4.241  -4.255  -0.186  0.00  0.00    -0.272 N 
ATOM      4  C   UNL     1      -5.360  -3.526  -0.089  0.00  0.00    +0.304 C 
ATOM      5  O   UNL     1      -6.436  -4.083  -0.193  0.00  0.00    -0.252 OA
ATOM      6  N   UNL     1      -5.333  -2.195   0.121  0.00  0.00    -0.288 N 
ATOM      7  C   UNL     1      -4.024  -1.533   0.251  0.00  0.00    +0.144 C 
ATOM      8  H   UNL     1      -4.328  -5.210  -0.337  0.00  0.00    +0.156 HD
ATOM      9  H   UNL     1      -6.156  -1.686   0.188  0.00  0.00    +0.151 HD
ENDROOT
BRANCH   7  10
ATOM     10  C   UNL     1      -3.942  -0.464  -0.809  0.00  0.00    -0.023 A 
ATOM     11  C   UNL     1      -4.306  -0.753  -2.111  0.00  0.00    +0.006 A 
ATOM     12  C   UNL     1      -4.231   0.227  -3.083  0.00  0.00    +0.000 A 
ATOM     13  C   UNL     1      -3.792   1.496  -2.753  0.00  0.00    +0.000 A 
ATOM     14  C   UNL     1      -3.429   1.784  -1.450  0.00  0.00    +0.000 A 
ATOM     15  C   UNL     1      -3.508   0.806  -0.478  0.00  0.00    +0.006 A 
ENDBRANCH   7  10
BRANCH   1  16
ATOM     16  C   UNL     1      -1.494  -1.866   0.232  0.00  0.00    +0.339 C 
ATOM     17  O   UNL     1      -1.028  -1.612   1.326  0.00  0.00    -0.245 OA
BRANCH  16  18
ATOM     18  O   UNL     1      -0.770  -1.628  -0.882  0.00  0.00    -0.462 OA
BRANCH  18  20
ATOM     19  C   UNL     1       1.200  -0.878  -2.065  0.00  0.00    +0.048 C 
ATOM     20  C   UNL     1       0.536  -1.077  -0.701  0.00  0.00    +0.229 C 
ENDBRANCH  18  20
ENDBRANCH  16  18
ENDBRANCH   1  16
BRANCH   2  21
ATOM     21  C   UNL     1      -1.789  -4.640  -0.210  0.00  0.00    +0.128 C 
BRANCH  21  22
ATOM     22  S   UNL     1      -1.597  -5.599   1.318  0.00  0.00    -0.079 S 
BRANCH  22  23
ATOM     23  C   UNL     1      -0.177  -6.599   1.017  0.00  0.00    +0.209 A 
ATOM     24  N   UNL     1       0.550  -6.611  -0.077  0.00  0.00    -0.121 NA
ATOM     25  N   UNL     1       1.510  -7.457   0.038  0.00  0.00    -0.126 NA
ATOM     26  C   UNL     1       1.455  -8.040   1.216  0.00  0.00    +0.188 A 
ATOM     27  N   UNL     1       0.375  -7.504   1.881  0.00  0.00    -0.223 N 
BRANCH  26  28
ATOM     28  C   UNL     1       2.377  -9.067   1.728  0.00  0.00    +0.058 A 
ATOM     29  C   UNL     1       3.612  -9.432   1.256  0.00  0.00    +0.019 A 
ATOM     30  C   UNL     1       4.299 -10.432   1.907  0.00  0.00    +0.008 A 
ATOM     31  C   UNL     1       3.736 -11.024   2.992  0.00  0.00    +0.046 A 
ATOM     32  S   UNL     1       2.182 -10.156   3.129  0.00  0.00    -0.093 S 
ENDBRANCH  26  28
BRANCH  27  33
ATOM     33  N   UNL     1      -0.056  -7.812   3.140  0.00  0.00    -0.295 N 
ATOM     34  H   UNL     1      -0.721  -8.570   3.119  0.00  0.00    +0.163 HD
ATOM     35  H   UNL     1       0.722  -8.031   3.745  0.00  0.00    +0.163 HD
ENDBRANCH  27  33
ENDBRANCH  22  23
ENDBRANCH  21  22
ENDBRANCH   2  21
TORSDOF 9
