REMARK  Name = ZINC39666633
REMARK  7 active torsions:
REMARK  status: ('A' for Active; 'I' for Inactive)
REMARK    1  A    between atoms: C_1  and  C_2
REMARK    2  A    between atoms: C_2  and  C_4
REMARK    3  A    between atoms: C_2  and  O_31
REMARK    4  A    between atoms: C_4  and  N_5
REMARK    5  A    between atoms: C_6  and  C_8
REMARK    6  A    between atoms: C_19  and  C_21
REMARK    7  A    between atoms: O_31  and  C_32
REMARK                            x       y       z     vdW  Elec       q    Type
REMARK                         _______ _______ _______ _____ _____    ______ ____
ROOT
ATOM      1  C   UNL     1       1.157  -6.057   3.560  0.00  0.00    +0.100 C 
ATOM      2  C   UNL     1      -0.222  -6.731   3.379  0.00  0.00    +0.121 C 
ATOM      3  N   UNL     1      -0.174  -7.924   4.258  0.00  0.00    -0.295 N 
ATOM      4  C   UNL     1       0.541  -7.460   5.471  0.00  0.00    +0.115 C 
ATOM      5  C   UNL     1       1.654  -6.538   4.934  0.00  0.00    -0.004 C 
ATOM      6  C   UNL     1       2.957  -7.316   4.781  0.00  0.00    -0.010 C 
ATOM      7  C   UNL     1       3.461  -7.734   6.165  0.00  0.00    -0.082 C 
ATOM      8  N   UNL     1       3.675  -6.540   6.991  0.00  0.00    +0.379 N 
ATOM      9  C   UNL     1       2.400  -5.847   7.210  0.00  0.00    -0.082 C 
ATOM     10  C   UNL     1       1.851  -5.349   5.870  0.00  0.00    -0.010 C 
ATOM     11  C   UNL     1      -0.669  -9.152   4.010  0.00  0.00    +0.265 C 
ATOM     12  O   UNL     1      -0.616 -10.013   4.866  0.00  0.00    -0.268 OA
ATOM     13  H   UNL     1       4.065  -6.813   7.881  0.00  0.00    -0.086 HD
ATOM     14  H   UNL     1       4.318  -5.919   6.522  0.00  0.00    -0.086 HD
ENDROOT
BRANCH  11  15
ATOM     15  C   UNL     1      -1.278  -9.455   2.692  0.00  0.00    +0.126 A 
ATOM     16  C   UNL     1      -1.667 -10.771   2.403  0.00  0.00    +0.033 A 
ATOM     17  C   UNL     1      -2.230 -11.062   1.194  0.00  0.00    +0.012 A 
ATOM     18  C   UNL     1      -2.401 -10.015   0.269  0.00  0.00    +0.000 A 
ATOM     19  C   UNL     1      -2.973 -10.242  -0.993  0.00  0.00    +0.010 A 
ATOM     20  C   UNL     1      -3.123  -9.205  -1.861  0.00  0.00    +0.001 A 
ATOM     21  C   UNL     1      -2.716  -7.917  -1.516  0.00  0.00    +0.002 A 
ATOM     22  C   UNL     1      -2.158  -7.659  -0.303  0.00  0.00    +0.028 A 
ATOM     23  C   UNL     1      -1.986  -8.705   0.624  0.00  0.00    +0.072 A 
ATOM     24  N   UNL     1      -1.447  -8.479   1.821  0.00  0.00    -0.242 NA
ENDBRANCH  11  15
BRANCH   1  26
ATOM     25  N   UNL     1       2.020  -3.787   3.091  0.00  0.00    -0.312 N 
ATOM     26  C   UNL     1       1.013  -4.557   3.549  0.00  0.00    +0.218 C 
ATOM     27  O   UNL     1      -0.009  -4.043   3.952  0.00  0.00    -0.275 OA
ATOM     28  H   UNL     1       2.837  -4.199   2.769  0.00  0.00    +0.149 HD
BRANCH  25  29
ATOM     29  C   UNL     1       1.881  -2.329   3.080  0.00  0.00    +0.148 C 
BRANCH  29  31
ATOM     30  C   UNL     1       3.061  -0.175   2.621  0.00  0.00    +0.053 C 
ATOM     31  C   UNL     1       3.156  -1.699   2.517  0.00  0.00    +0.187 C 
BRANCH  31  32
ATOM     32  O   UNL     1       3.308  -2.074   1.146  0.00  0.00    -0.486 OA
BRANCH  32  33
ATOM     33  C   UNL     1       4.565  -2.038   0.632  0.00  0.00    +0.139 A 
ATOM     34  C   UNL     1       5.642  -1.729   1.450  0.00  0.00    +0.047 A 
ATOM     35  C   UNL     1       6.919  -1.693   0.925  0.00  0.00    +0.004 A 
ATOM     36  C   UNL     1       7.125  -1.964  -0.415  0.00  0.00    +0.002 A 
ATOM     37  C   UNL     1       6.055  -2.271  -1.234  0.00  0.00    +0.023 A 
ATOM     38  C   UNL     1       4.775  -2.314  -0.712  0.00  0.00    +0.083 A 
ATOM     39 CL   UNL     1       3.431  -2.707  -1.739  0.00  0.00    -0.080 Cl
ENDBRANCH  32  33
ENDBRANCH  31  32
ENDBRANCH  29  31
ENDBRANCH  25  29
ENDBRANCH   1  26
TORSDOF 6
