REMARK  Name = ZINC39659639
REMARK  7 active torsions:
REMARK  status: ('A' for Active; 'I' for Inactive)
REMARK    1  A    between atoms: C_1  and  C_2
REMARK    2  A    between atoms: C_2  and  C_36
REMARK    3  A    between atoms: C_5  and  C_8
REMARK    4  A    between atoms: C_8  and  N_9
REMARK    5  A    between atoms: C_10  and  C_12
REMARK    6  A    between atoms: C_23  and  C_25
REMARK    7  A    between atoms: C_28  and  C_30
REMARK                            x       y       z     vdW  Elec       q    Type
REMARK                         _______ _______ _______ _____ _____    ______ ____
ROOT
ATOM      1  C   UNL     1       3.741  -1.479   5.261  0.00  0.00    +0.100 C 
ATOM      2  C   UNL     1       2.389  -1.066   5.884  0.00  0.00    +0.121 C 
ATOM      3  N   UNL     1       1.963  -2.247   6.672  0.00  0.00    -0.294 N 
ATOM      4  C   UNL     1       3.215  -2.749   7.288  0.00  0.00    +0.115 C 
ATOM      5  C   UNL     1       4.282  -2.581   6.188  0.00  0.00    -0.004 C 
ATOM      6  C   UNL     1       5.610  -2.151   6.802  0.00  0.00    -0.010 C 
ATOM      7  C   UNL     1       6.157  -3.286   7.673  0.00  0.00    -0.082 C 
ATOM      8  N   UNL     1       6.341  -4.489   6.852  0.00  0.00    +0.379 N 
ATOM      9  C   UNL     1       5.045  -4.950   6.341  0.00  0.00    -0.082 C 
ATOM     10  C   UNL     1       4.451  -3.885   5.414  0.00  0.00    -0.010 C 
ATOM     11  C   UNL     1       0.719  -2.749   6.801  0.00  0.00    +0.282 C 
ATOM     12  O   UNL     1       0.529  -3.733   7.491  0.00  0.00    -0.267 OA
ATOM     13  H   UNL     1       6.950  -4.276   6.076  0.00  0.00    -0.086 HD
ATOM     14  H   UNL     1       6.758  -5.217   7.413  0.00  0.00    -0.086 HD
ENDROOT
BRANCH  11  15
ATOM     15  C   UNL     1      -0.404  -2.110   6.111  0.00  0.00    +0.190 A 
ATOM     16  C   UNL     1      -1.720  -2.515   6.160  0.00  0.00    +0.055 A 
ATOM     17  C   UNL     1      -2.446  -1.627   5.360  0.00  0.00    +0.050 A 
ATOM     18  C   UNL     1      -1.557  -0.722   4.856  0.00  0.00    +0.136 A 
ATOM     19  O   UNL     1      -0.331  -1.019   5.320  0.00  0.00    -0.450 OA
BRANCH  18  20
ATOM     20  C   UNL     1      -1.888   0.401   3.956  0.00  0.00    +0.017 A 
ATOM     21  C   UNL     1      -3.209   0.611   3.554  0.00  0.00    +0.011 A 
ATOM     22  C   UNL     1      -3.511   1.662   2.713  0.00  0.00    +0.001 A 
ATOM     23  C   UNL     1      -2.510   2.507   2.269  0.00  0.00    +0.000 A 
ATOM     24  C   UNL     1      -1.199   2.305   2.663  0.00  0.00    +0.001 A 
ATOM     25  C   UNL     1      -0.883   1.261   3.508  0.00  0.00    +0.011 A 
ENDBRANCH  18  20
ENDBRANCH  11  15
BRANCH   1  27
ATOM     26  N   UNL     1       4.516  -1.907   2.952  0.00  0.00    -0.312 N 
ATOM     27  C   UNL     1       3.535  -2.018   3.869  0.00  0.00    +0.218 C 
ATOM     28  O   UNL     1       2.487  -2.551   3.574  0.00  0.00    -0.275 OA
ATOM     29  H   UNL     1       5.355  -1.480   3.188  0.00  0.00    +0.149 HD
BRANCH  26  30
ATOM     30  C   UNL     1       4.316  -2.430   1.598  0.00  0.00    +0.138 C 
BRANCH  30  35
ATOM     31  C   UNL     1       8.009  -0.563  -0.368  0.00  0.00    +0.074 C 
ATOM     32  C   UNL     1       6.520  -0.692  -0.695  0.00  0.00    +0.165 C 
ATOM     33  O   UNL     1       6.295  -1.891  -1.448  0.00  0.00    -0.347 OA
ATOM     34  C   UNL     1       5.399  -2.719  -0.678  0.00  0.00    +0.196 C 
ATOM     35  C   UNL     1       5.573  -2.178   0.763  0.00  0.00    +0.164 C 
ATOM     36  O   UNL     1       5.762  -0.762   0.524  0.00  0.00    -0.342 OA
ATOM     37  C   UNL     1       6.067   0.518  -1.514  0.00  0.00    +0.074 C 
ENDBRANCH  30  35
ENDBRANCH  26  30
ENDBRANCH   1  27
TORSDOF 5
