REMARK  Name = ZINC39772356
REMARK  9 active torsions:
REMARK  status: ('A' for Active; 'I' for Inactive)
REMARK    1  A    between atoms: C_2  and  C_3
REMARK    2  A    between atoms: C_3  and  N_4
REMARK    3  A    between atoms: C_5  and  C_30
REMARK    4  A    between atoms: C_8  and  S_9
REMARK    5  A    between atoms: S_9  and  C_10
REMARK    6  A    between atoms: C_10  and  C_11
REMARK    7  A    between atoms: N_13  and  C_14
REMARK    8  A    between atoms: C_17  and  C_20
REMARK    9  A    between atoms: C_34  and  N_36
REMARK                            x       y       z     vdW  Elec       q    Type
REMARK                         _______ _______ _______ _____ _____    ______ ____
ROOT
ATOM      1  C   UNL     1      -0.791  -8.750   0.980  0.00  0.00    +0.227 C 
ATOM      2  O   UNL     1      -0.728  -9.943   1.189  0.00  0.00    -0.275 OA
ATOM      3  N   UNL     1      -1.519  -8.285  -0.055  0.00  0.00    -0.285 N 
ATOM      4  H   UNL     1      -1.518  -7.337  -0.261  0.00  0.00    +0.155 HD
ENDROOT
BRANCH   3   5
ATOM      5  C   UNL     1      -2.274  -9.170  -0.833  0.00  0.00    +0.033 A 
ATOM      6  C   UNL     1      -2.440  -8.935  -2.191  0.00  0.00    +0.023 A 
ATOM      7  C   UNL     1      -3.187  -9.810  -2.956  0.00  0.00    +0.006 A 
ATOM      8  C   UNL     1      -3.768 -10.919  -2.370  0.00  0.00    -0.041 A 
ATOM      9  C   UNL     1      -3.605 -11.156  -1.017  0.00  0.00    +0.006 A 
ATOM     10  C   UNL     1      -2.855 -10.288  -0.248  0.00  0.00    +0.023 A 
BRANCH   8  11
ATOM     11  C   UNL     1      -4.582 -11.872  -3.207  0.00  0.00    -0.003 C 
ATOM     12  C   UNL     1      -3.703 -12.456  -4.315  0.00  0.00    +0.015 C 
ATOM     13  C   UNL     1      -4.529 -13.423  -5.165  0.00  0.00    -0.010 C 
ATOM     14  C   UNL     1      -5.056 -14.556  -4.282  0.00  0.00    +0.007 C 
ATOM     15  C   UNL     1      -5.936 -13.972  -3.174  0.00  0.00    -0.010 C 
ATOM     16  C   UNL     1      -5.109 -13.005  -2.324  0.00  0.00    +0.015 C 
ATOM     17  C   UNL     1      -7.114 -13.222  -3.800  0.00  0.00    +0.007 C 
ATOM     18  C   UNL     1      -6.587 -12.089  -4.683  0.00  0.00    -0.010 C 
ATOM     19  C   UNL     1      -5.708 -12.673  -5.791  0.00  0.00    +0.007 C 
ATOM     20  C   UNL     1      -5.760 -11.122  -3.833  0.00  0.00    +0.015 C 
ENDBRANCH   8  11
ENDBRANCH   3   5
BRANCH   1  21
ATOM     21  C   UNL     1      -0.056  -7.788   1.877  0.00  0.00    +0.173 C 
BRANCH  21  22
ATOM     22  S   UNL     1       0.824  -8.714   3.165  0.00  0.00    -0.077 S 
BRANCH  22  27
ATOM     23  N   UNL     1       2.414  -7.663   5.212  0.00  0.00    -0.298 N 
ATOM     24  C   UNL     1       2.814  -6.410   5.613  0.00  0.00    +0.165 A 
ATOM     25  N   UNL     1       2.268  -5.548   4.787  0.00  0.00    -0.128 NA
ATOM     26  N   UNL     1       1.565  -6.169   3.909  0.00  0.00    -0.122 NA
ATOM     27  C   UNL     1       1.622  -7.465   4.118  0.00  0.00    +0.193 A 
BRANCH  24  28
ATOM     28  C   UNL     1       3.692  -6.092   6.760  0.00  0.00    +0.021 A 
ATOM     29  C   UNL     1       4.542  -7.068   7.283  0.00  0.00    +0.012 A 
ATOM     30  C   UNL     1       5.359  -6.765   8.352  0.00  0.00    +0.003 A 
ATOM     31  C   UNL     1       5.336  -5.498   8.907  0.00  0.00    +0.033 A 
ATOM     32  C   UNL     1       4.496  -4.526   8.394  0.00  0.00    +0.127 A 
ATOM     33  C   UNL     1       3.678  -4.814   7.320  0.00  0.00    +0.044 A 
BRANCH  32  34
ATOM     34  N   UNL     1       4.478  -3.173   8.993  0.00  0.00    +0.056 N 
ATOM     35  O   UNL     1       5.198  -2.918   9.931  0.00  0.00    -0.126 OA
ATOM     36  O   UNL     1       3.744  -2.323   8.546  0.00  0.00    -0.126 OA
ENDBRANCH  32  34
ENDBRANCH  24  28
BRANCH  23  37
ATOM     37  C   UNL     1       2.769  -8.945   5.827  0.00  0.00    +0.152 C 
BRANCH  37  39
ATOM     38  C   UNL     1       5.003  -9.929   5.749  0.00  0.00    +0.005 C 
ATOM     39  C   UNL     1       3.936  -9.550   5.090  0.00  0.00    -0.013 C 
ENDBRANCH  37  39
ENDBRANCH  23  37
ENDBRANCH  22  27
ENDBRANCH  21  22
ENDBRANCH   1  21
TORSDOF 9
