REMARK  Name = ZINC20701047
REMARK  7 active torsions:
REMARK  status: ('A' for Active; 'I' for Inactive)
REMARK    1  A    between atoms: C_1  and  C_2
REMARK    2  A    between atoms: C_5  and  N_9
REMARK    3  A    between atoms: C_7  and  C_8
REMARK    4  A    between atoms: N_9  and  S_10
REMARK    5  A    between atoms: S_10  and  C_13
REMARK    6  A    between atoms: C_26  and  C_29
REMARK    7  A    between atoms: C_34  and  O_35
REMARK                            x       y       z     vdW  Elec       q    Type
REMARK                         _______ _______ _______ _____ _____    ______ ____
ROOT
ATOM      1  C   UNL     1       1.395   6.317   1.525  0.00  0.00    +0.109 A 
ATOM      2  C   UNL     1       1.501   6.529   0.162  0.00  0.00    +0.030 A 
ATOM      3  C   UNL     1       2.302   5.701  -0.599  0.00  0.00    +0.025 A 
ATOM      4  C   UNL     1       2.998   4.660   0.005  0.00  0.00    +0.031 A 
ATOM      5  C   UNL     1       2.896   4.445   1.371  0.00  0.00    -0.018 A 
ATOM      6  C   UNL     1       2.086   5.284   2.124  0.00  0.00    +0.034 A 
ATOM      7  C   UNL     1       3.626   3.339   2.064  0.00  0.00    +0.049 C 
ATOM      8  C   UNL     1       2.694   2.209   2.431  0.00  0.00    -0.023 C 
ATOM      9  C   UNL     1       3.303   1.056   2.297  0.00  0.00    -0.030 C 
ATOM     10  C   UNL     1       4.730   1.261   1.827  0.00  0.00    +0.033 C 
ATOM     11  C   UNL     1       4.698   2.673   1.176  0.00  0.00    +0.029 C 
ATOM     12  C   UNL     1       4.164   2.509  -0.250  0.00  0.00    +0.109 C 
ATOM     13  N   UNL     1       3.804   3.828  -0.779  0.00  0.00    -0.336 N 
ATOM     14  H   UNL     1       4.166   4.141  -1.770  0.00  0.00    +0.147 HD
ENDROOT
BRANCH  12  15
ATOM     15  C   UNL     1       2.946   1.622  -0.233  0.00  0.00    +0.017 A 
ATOM     16  C   UNL     1       1.692   2.173  -0.049  0.00  0.00    +0.029 A 
ATOM     17  C   UNL     1       0.573   1.359  -0.033  0.00  0.00    +0.043 A 
ATOM     18  C   UNL     1       0.707  -0.008  -0.201  0.00  0.00    +0.043 A 
ATOM     19  C   UNL     1       1.959  -0.563  -0.385  0.00  0.00    +0.084 A 
ATOM     20  C   UNL     1       3.083   0.252  -0.401  0.00  0.00    +0.140 A 
ATOM     21 CL   UNL     1       2.127  -2.278  -0.594  0.00  0.00    -0.080 Cl
ATOM     22 CL   UNL     1      -1.001   2.055   0.191  0.00  0.00    -0.083 Cl
BRANCH  20  23
ATOM     23  O   UNL     1       4.316  -0.292  -0.582  0.00  0.00    -0.505 OA
ATOM     24  H   UNL     1       4.423  -1.378  -0.715  0.00  0.00    +0.292 HD
ENDBRANCH  20  23
ENDBRANCH  12  15
BRANCH   1  25
ATOM     25  S   UNL     1       0.373   7.371   2.499  0.00  0.00    +0.072 S 
ATOM     26  O   UNL     1      -0.661   7.838   1.644  0.00  0.00    -0.150 OA
ATOM     27  O   UNL     1       0.105   6.673   3.708  0.00  0.00    -0.150 OA
BRANCH  25  28
ATOM     28  N   UNL     1       1.283   8.693   2.908  0.00  0.00    -0.216 N 
ATOM     29  H   UNL     1       1.529   8.886   3.962  0.00  0.00    +0.174 HD
BRANCH  28  34
ATOM     30  C   UNL     1       3.126  12.226  -1.127  0.00  0.00    +0.044 C 
ATOM     31  C   UNL     1       2.636  11.287  -0.055  0.00  0.00    -0.047 A 
ATOM     32  C   UNL     1       3.515  10.401   0.540  0.00  0.00    +0.005 A 
ATOM     33  C   UNL     1       3.071   9.543   1.527  0.00  0.00    +0.025 A 
ATOM     34  C   UNL     1       1.736   9.563   1.913  0.00  0.00    +0.048 A 
ATOM     35  C   UNL     1       0.856  10.454   1.313  0.00  0.00    +0.028 A 
ATOM     36  C   UNL     1       1.308  11.313   0.331  0.00  0.00    -0.046 A 
ATOM     37  C   UNL     1       0.354  12.280  -0.321  0.00  0.00    +0.044 C 
ENDBRANCH  28  34
ENDBRANCH  25  28
ENDBRANCH   1  25
TORSDOF 5
