REMARK  Name = ZINC22278269
REMARK  7 active torsions:
REMARK  status: ('A' for Active; 'I' for Inactive)
REMARK    1  A    between atoms: C_4  and  C_7
REMARK    2  A    between atoms: C_7  and  N_8
REMARK    3  A    between atoms: C_9  and  C_11
REMARK    4  A    between atoms: C_11  and  N_12
REMARK    5  A    between atoms: N_15  and  C_18
REMARK    6  A    between atoms: C_18  and  C_20
REMARK    7  A    between atoms: C_18  and  C_26
REMARK                            x       y       z     vdW  Elec       q    Type
REMARK                         _______ _______ _______ _____ _____    ______ ____
ROOT
ATOM      1  N   UNL     1       3.274   5.488   3.122  0.00  0.00    +0.387 N 
ATOM      2  C   UNL     1       3.588   5.817   1.724  0.00  0.00    -0.063 C 
ATOM      3  C   UNL     1       2.443   5.351   0.823  0.00  0.00    +0.067 C 
ATOM      4  N   UNL     1       2.250   3.904   0.989  0.00  0.00    -0.291 NA
ATOM      5  C   UNL     1       1.935   3.575   2.386  0.00  0.00    +0.067 C 
ATOM      6  C   UNL     1       3.081   4.041   3.288  0.00  0.00    -0.063 C 
ATOM      7  H   UNL     1       2.330   5.989   3.385  0.00  0.00    -0.081 HD
ENDROOT
BRANCH   1   8
ATOM      8  C   UNL     1       4.316   5.988   4.028  0.00  0.00    +0.019 C 
BRANCH   8  10
ATOM      9  N   UNL     1       5.272   8.176   4.673  0.00  0.00    -0.313 N 
ATOM     10  C   UNL     1       4.315   7.495   4.013  0.00  0.00    +0.197 C 
ATOM     11  O   UNL     1       3.452   8.094   3.406  0.00  0.00    -0.278 OA
ATOM     12  H   UNL     1       6.054   7.632   5.223  0.00  0.00    +0.149 HD
BRANCH   9  13
ATOM     13  C   UNL     1       5.270   9.641   4.659  0.00  0.00    +0.139 C 
BRANCH  13  17
ATOM     14  C   UNL     1       8.573  11.091   6.947  0.00  0.00    +0.000 A 
ATOM     15  C   UNL     1       8.723  10.848   5.594  0.00  0.00    +0.000 A 
ATOM     16  C   UNL     1       7.654  10.378   4.854  0.00  0.00    +0.005 A 
ATOM     17  C   UNL     1       6.436  10.153   5.466  0.00  0.00    -0.030 A 
ATOM     18  C   UNL     1       6.284  10.402   6.817  0.00  0.00    +0.005 A 
ATOM     19  C   UNL     1       7.354  10.867   7.559  0.00  0.00    +0.000 A 
ENDBRANCH  13  17
ENDBRANCH   9  13
ENDBRANCH   8  10
ENDBRANCH   1   8
BRANCH   4  20
ATOM     20  C   UNL     1       1.208   3.404   0.083  0.00  0.00    +0.174 C 
BRANCH  20  21
ATOM     21  C   UNL     1       1.609   3.677  -1.344  0.00  0.00    +0.242 C 
ATOM     22  O   UNL     1       2.660   4.233  -1.582  0.00  0.00    -0.273 OA
ATOM     23  N   UNL     1       0.800   3.303  -2.355  0.00  0.00    -0.239 N 
ATOM     24  C   UNL     1       1.159   3.548  -3.631  0.00  0.00    +0.303 C 
ATOM     25  O   UNL     1       2.213   4.105  -3.870  0.00  0.00    -0.253 OA
ATOM     26  N   UNL     1       0.350   3.174  -4.642  0.00  0.00    -0.313 N 
ATOM     27  H   UNL     1      -0.153   2.799  -2.139  0.00  0.00    +0.159 HD
ATOM     28  H   UNL     1       0.643   3.373  -5.683  0.00  0.00    +0.146 HD
ATOM     29  H   UNL     1      -0.603   2.669  -4.426  0.00  0.00    +0.146 HD
ENDBRANCH  20  21
BRANCH  20  30
ATOM     30  C   UNL     1       1.038   1.920   0.282  0.00  0.00    -0.021 A 
ATOM     31  C   UNL     1      -0.226   1.361   0.269  0.00  0.00    +0.005 A 
ATOM     32  C   UNL     1      -0.381  -0.001   0.451  0.00  0.00    +0.000 A 
ATOM     33  C   UNL     1       0.728  -0.803   0.645  0.00  0.00    +0.000 A 
ATOM     34  C   UNL     1       1.992  -0.244   0.657  0.00  0.00    +0.000 A 
ATOM     35  C   UNL     1       2.147   1.118   0.475  0.00  0.00    +0.005 A 
ENDBRANCH  20  30
ENDBRANCH   4  20
TORSDOF 7
