REMARK  Name = ZINC14274341
REMARK  15 active torsions:
REMARK  status: ('A' for Active; 'I' for Inactive)
REMARK    1  A    between atoms: C_1  and  C_2
REMARK    2  A    between atoms: C_2  and  C_3
REMARK    3  A    between atoms: C_3  and  C_4
REMARK    4  A    between atoms: C_4  and  C_6
REMARK    5  A    between atoms: C_4  and  N_24
REMARK    6  A    between atoms: N_8  and  C_9
REMARK    7  A    between atoms: C_12  and  C_23
REMARK    8  A    between atoms: C_13  and  S_15
REMARK    9  A    between atoms: S_15  and  N_18
REMARK   10  A    between atoms: N_18  and  C_19
REMARK   11  A    between atoms: N_18  and  C_21
REMARK   12  A    between atoms: C_19  and  C_20
REMARK   13  A    between atoms: C_21  and  C_22
REMARK   14  A    between atoms: N_27  and  C_28
REMARK   15  A    between atoms: C_28  and  C_29
REMARK                            x       y       z     vdW  Elec       q    Type
REMARK                         _______ _______ _______ _____ _____    ______ ____
ROOT
ATOM      1  C   UNL     1       2.517   1.314  -0.260  0.00  0.00    +0.238 C 
ATOM      2  O   UNL     1       2.119   0.255  -0.698  0.00  0.00    -0.273 OA
ATOM      3  N   UNL     1       3.812   1.659  -0.406  0.00  0.00    -0.284 N 
ATOM      4  H   UNL     1       4.115   2.535  -0.122  0.00  0.00    +0.155 HD
ENDROOT
BRANCH   3   5
ATOM      5  C   UNL     1       4.719   0.753  -0.968  0.00  0.00    +0.035 A 
ATOM      6  C   UNL     1       4.490  -0.613  -0.866  0.00  0.00    +0.023 A 
ATOM      7  C   UNL     1       5.383  -1.505  -1.427  0.00  0.00    +0.007 A 
ATOM      8  C   UNL     1       6.511  -1.039  -2.078  0.00  0.00    -0.024 A 
ATOM      9  C   UNL     1       6.745   0.321  -2.175  0.00  0.00    +0.110 A 
ATOM     10  C   UNL     1       5.852   1.218  -1.622  0.00  0.00    +0.052 A 
ATOM     11  C   UNL     1       7.487  -2.014  -2.683  0.00  0.00    +0.046 C 
BRANCH   9  12
ATOM     12  S   UNL     1       8.183   0.909  -3.005  0.00  0.00    +0.061 S 
ATOM     13  O   UNL     1       8.245   0.222  -4.247  0.00  0.00    -0.153 OA
ATOM     14  O   UNL     1       8.149   2.327  -2.920  0.00  0.00    -0.153 OA
BRANCH  12  15
ATOM     15  N   UNL     1       9.495   0.413  -2.124  0.00  0.00    -0.177 NA
BRANCH  15  16
ATOM     16  C   UNL     1      10.237  -0.784  -2.526  0.00  0.00    +0.106 C 
ATOM     17  C   UNL     1      11.504  -0.371  -3.277  0.00  0.00    +0.022 C 
ENDBRANCH  15  16
BRANCH  15  18
ATOM     18  C   UNL     1       9.913   1.172  -0.943  0.00  0.00    +0.106 C 
ATOM     19  C   UNL     1       9.295   0.548   0.310  0.00  0.00    +0.022 C 
ENDBRANCH  15  18
ENDBRANCH  12  15
ENDBRANCH   9  12
ENDBRANCH   3   5
BRANCH   1  20
ATOM     20  C   UNL     1       1.565   2.243   0.447  0.00  0.00    +0.161 C 
BRANCH  20  21
ATOM     21  N   UNL     1       0.228   1.644   0.474  0.00  0.00    -0.288 N 
ATOM     22  C   UNL     1      -0.861   2.432   0.571  0.00  0.00    +0.300 C 
ATOM     23  O   UNL     1      -0.735   3.639   0.641  0.00  0.00    -0.253 OA
ATOM     24  N   UNL     1      -2.091   1.881   0.591  0.00  0.00    -0.295 N 
ATOM     25  H   UNL     1       0.127   0.681   0.419  0.00  0.00    +0.151 HD
ATOM     26  H   UNL     1      -2.192   0.918   0.536  0.00  0.00    +0.151 HD
BRANCH  24  27
ATOM     27  C   UNL     1      -3.276   2.737   0.697  0.00  0.00    +0.141 C 
BRANCH  27  28
ATOM     28  C   UNL     1      -4.516   1.880   0.698  0.00  0.00    -0.030 A 
ATOM     29  C   UNL     1      -5.140   1.567  -0.495  0.00  0.00    +0.008 A 
ATOM     30  C   UNL     1      -6.274   0.778  -0.495  0.00  0.00    +0.038 A 
ATOM     31  C   UNL     1      -6.792   0.310   0.700  0.00  0.00    +0.123 A 
ATOM     32  C   UNL     1      -6.169   0.629   1.895  0.00  0.00    +0.038 A 
ATOM     33  C   UNL     1      -5.031   1.414   1.893  0.00  0.00    +0.008 A 
ATOM     34  F   UNL     1      -7.904  -0.458   0.702  0.00  0.00    -0.205 F 
ENDBRANCH  27  28
ENDBRANCH  24  27
ENDBRANCH  20  21
BRANCH  20  35
ATOM     35  C   UNL     1       2.049   2.476   1.879  0.00  0.00    +0.031 C 
BRANCH  35  37
ATOM     36  C   UNL     1       1.638   3.749   3.990  0.00  0.00    +0.004 C 
ATOM     37  C   UNL     1       1.154   3.515   2.557  0.00  0.00    -0.001 C 
ENDBRANCH  35  37
ENDBRANCH  20  35
ENDBRANCH   1  20
TORSDOF 11
