REMARK  Name = ZINC01380855
REMARK  6 active torsions:
REMARK  status: ('A' for Active; 'I' for Inactive)
REMARK    1  A    between atoms: C_4  and  C_7
REMARK    2  A    between atoms: C_7  and  N_8
REMARK    3  A    between atoms: C_9  and  C_32
REMARK    4  A    between atoms: C_17  and  C_23
REMARK    5  A    between atoms: N_25  and  C_26
REMARK    6  A    between atoms: N_34  and  C_35
REMARK                            x       y       z     vdW  Elec       q    Type
REMARK                         _______ _______ _______ _____ _____    ______ ____
ROOT
ATOM      1  N   UNL     1       3.951  -0.983   1.394  0.00  0.00    -0.282 N 
ATOM      2  C   UNL     1       4.796  -0.028   2.150  0.00  0.00    +0.199 C 
ATOM      3  C   UNL     1       5.413  -0.863   3.228  0.00  0.00    +0.127 C 
ATOM      4  C   UNL     1       5.865  -0.345   4.546  0.00  0.00    +0.009 C 
ATOM      5  C   UNL     1       6.562  -1.363   5.065  0.00  0.00    +0.004 C 
ATOM      6  C   UNL     1       6.561  -2.492   4.028  0.00  0.00    +0.155 C 
ATOM      7  O   UNL     1       6.509  -1.706   2.783  0.00  0.00    -0.358 OA
ATOM      8  C   UNL     1       5.128  -3.115   4.036  0.00  0.00    +0.122 C 
ATOM      9  C   UNL     1       4.281  -1.921   3.506  0.00  0.00    +0.128 C 
ATOM     10  C   UNL     1       3.711  -2.100   2.127  0.00  0.00    +0.224 C 
ATOM     11  O   UNL     1       3.130  -3.088   1.732  0.00  0.00    -0.275 OA
ENDROOT
BRANCH   8  12
ATOM     12  C   UNL     1       5.046  -4.290   3.095  0.00  0.00    +0.220 C 
ATOM     13  O   UNL     1       5.723  -4.310   2.089  0.00  0.00    -0.275 OA
ATOM     14  N   UNL     1       4.219  -5.318   3.372  0.00  0.00    -0.312 N 
ATOM     15  H   UNL     1       3.677  -5.302   4.176  0.00  0.00    +0.149 HD
BRANCH  14  16
ATOM     16  C   UNL     1       4.139  -6.460   2.457  0.00  0.00    +0.073 C 
ATOM     17  C   UNL     1       3.141  -6.149   1.340  0.00  0.00    +0.022 C 
ATOM     18  C   UNL     1       3.058  -7.342   0.385  0.00  0.00    +0.002 C 
ATOM     19  C   UNL     1       2.593  -8.580   1.154  0.00  0.00    +0.000 C 
ATOM     20  C   UNL     1       3.591  -8.890   2.272  0.00  0.00    +0.002 C 
ATOM     21  C   UNL     1       3.675  -7.698   3.227  0.00  0.00    +0.022 C 
ENDBRANCH  14  16
ENDBRANCH   8  12
BRANCH   2  22
ATOM     22  C   UNL     1       3.951   1.069   2.745  0.00  0.00    +0.237 C 
ATOM     23  O   UNL     1       2.754   0.913   2.867  0.00  0.00    -0.274 OA
ATOM     24  N   UNL     1       4.525   2.221   3.143  0.00  0.00    -0.311 N 
ATOM     25  H   UNL     1       5.482   2.346   3.045  0.00  0.00    +0.149 HD
BRANCH  24  26
ATOM     26  C   UNL     1       3.703   3.287   3.722  0.00  0.00    +0.073 C 
ATOM     27  C   UNL     1       3.109   4.140   2.599  0.00  0.00    +0.022 C 
ATOM     28  C   UNL     1       2.251   5.253   3.204  0.00  0.00    +0.002 C 
ATOM     29  C   UNL     1       3.118   6.132   4.108  0.00  0.00    +0.000 C 
ATOM     30  C   UNL     1       3.712   5.279   5.231  0.00  0.00    +0.002 C 
ATOM     31  C   UNL     1       4.570   4.166   4.626  0.00  0.00    +0.022 C 
ENDBRANCH  24  26
ENDBRANCH   2  22
BRANCH   1  32
ATOM     32  C   UNL     1       3.439  -0.751   0.041  0.00  0.00    +0.143 C 
BRANCH  32  36
ATOM     33  C   UNL     1      -0.356   1.196   0.267  0.00  0.00    +0.000 A 
ATOM     34  C   UNL     1       0.803   1.946   0.208  0.00  0.00    +0.000 A 
ATOM     35  C   UNL     1       2.032   1.316   0.135  0.00  0.00    +0.005 A 
ATOM     36  C   UNL     1       2.100  -0.064   0.121  0.00  0.00    -0.030 A 
ATOM     37  C   UNL     1       0.941  -0.815   0.181  0.00  0.00    +0.005 A 
ATOM     38  C   UNL     1      -0.287  -0.184   0.253  0.00  0.00    +0.000 A 
ENDBRANCH  32  36
ENDBRANCH   1  32
TORSDOF 6
