REMARK  Name = ZINC50887101
REMARK  8 active torsions:
REMARK  status: ('A' for Active; 'I' for Inactive)
REMARK    1  A    between atoms: C_1  and  C_2
REMARK    2  A    between atoms: C_2  and  C_3
REMARK    3  A    between atoms: C_3  and  C_4
REMARK    4  A    between atoms: C_4  and  C_5
REMARK    5  A    between atoms: C_5  and  C_7
REMARK    6  A    between atoms: C_5  and  N_8
REMARK    7  A    between atoms: N_8  and  C_9
REMARK    8  A    between atoms: C_14  and  N_15
REMARK                            x       y       z     vdW  Elec       q    Type
REMARK                         _______ _______ _______ _____ _____    ______ ____
ROOT
ATOM      1  C   UNL     1       1.322  -1.990  -4.944  0.00  0.00    +0.050 A 
ATOM      2  C   UNL     1       2.686  -2.212  -5.051  0.00  0.00    +0.048 A 
ATOM      3  C   UNL     1       3.318  -2.066  -6.278  0.00  0.00    +0.038 A 
ATOM      4  C   UNL     1       2.584  -1.698  -7.398  0.00  0.00    -0.024 A 
ATOM      5  C   UNL     1       1.224  -1.475  -7.294  0.00  0.00    +0.030 A 
ATOM      6  C   UNL     1       0.587  -1.625  -6.072  0.00  0.00    +0.046 A 
ATOM      7  C   UNL     1       3.275  -1.542  -8.729  0.00  0.00    +0.046 C 
ATOM      8  C   UNL     1       4.690  -1.007  -8.510  0.00  0.00    +0.101 C 
ATOM      9  C   UNL     1       5.382  -1.809  -7.442  0.00  0.00    +0.218 C 
ATOM     10  O   UNL     1       6.573  -2.024  -7.530  0.00  0.00    -0.275 OA
ATOM     11  N   UNL     1       4.696  -2.291  -6.389  0.00  0.00    -0.285 N 
ATOM     12  H   UNL     1       5.158  -2.797  -5.703  0.00  0.00    +0.155 HD
ENDROOT
BRANCH   6  13
ATOM     13  N   UNL     1      -0.794  -1.404  -5.968  0.00  0.00    -0.357 N 
ATOM     14  H   UNL     1      -1.239  -1.506  -5.112  0.00  0.00    +0.142 HD
ATOM     15  H   UNL     1      -1.305  -1.150  -6.753  0.00  0.00    +0.142 HD
ENDBRANCH   6  13
BRANCH   1  16
ATOM     16  N   UNL     1       0.682  -2.137  -3.708  0.00  0.00    -0.340 N 
ATOM     17  H   UNL     1      -0.273  -1.985  -3.635  0.00  0.00    +0.146 HD
BRANCH  16  18
ATOM     18  C   UNL     1       1.455  -2.521  -2.524  0.00  0.00    +0.067 C 
ATOM     19  C   UNL     1       1.586  -4.044  -2.472  0.00  0.00    +0.028 C 
BRANCH  18  20
ATOM     20  C   UNL     1       0.739  -2.027  -1.265  0.00  0.00    +0.022 C 
BRANCH  20  21
ATOM     21  C   UNL     1       0.718  -0.497  -1.257  0.00  0.00    +0.002 C 
BRANCH  21  23
ATOM     22  C   UNL     1      -0.019   1.526   0.010  0.00  0.00    +0.004 C 
ATOM     23  C   UNL     1       0.002  -0.004   0.002  0.00  0.00    -0.003 C 
ENDBRANCH  21  23
ENDBRANCH  20  21
ENDBRANCH  18  20
ENDBRANCH  16  18
ENDBRANCH   1  16
TORSDOF 6
