REMARK  Name = ZINC64742132
REMARK  7 active torsions:
REMARK  status: ('A' for Active; 'I' for Inactive)
REMARK    1  A    between atoms: C_1  and  C_2
REMARK    2  A    between atoms: C_2  and  C_3
REMARK    3  A    between atoms: C_8  and  N_9
REMARK    4  A    between atoms: C_10  and  C_12
REMARK    5  A    between atoms: C_20  and  S_26
REMARK    6  A    between atoms: S_26  and  C_27
REMARK    7  A    between atoms: C_27  and  C_28
REMARK                            x       y       z     vdW  Elec       q    Type
REMARK                         _______ _______ _______ _____ _____    ______ ____
ROOT
ATOM      1  C   UNL     1      -1.373  -0.211  -4.808  0.00  0.00    +0.103 C 
ATOM      2  C   UNL     1      -0.185  -1.165  -4.956  0.00  0.00    +0.110 C 
ATOM      3  C   UNL     1       0.384  -1.103  -6.342  0.00  0.00    +0.219 C 
ATOM      4  O   UNL     1       1.516  -1.503  -6.516  0.00  0.00    -0.275 OA
ATOM      5  N   UNL     1      -0.288  -0.629  -7.401  0.00  0.00    -0.273 N 
ATOM      6  C   UNL     1      -1.537  -0.093  -7.256  0.00  0.00    +0.117 C 
ATOM      7  N   UNL     1      -2.038   0.684  -8.172  0.00  0.00    -0.212 NA
ATOM      8  C   UNL     1      -3.206   1.317  -8.011  0.00  0.00    +0.182 C 
ATOM      9  N   UNL     1      -3.908   1.228  -6.890  0.00  0.00    -0.154 NA
ATOM     10  C   UNL     1      -3.528   0.444  -5.891  0.00  0.00    +0.249 C 
ATOM     11  O   UNL     1      -4.181   0.425  -4.867  0.00  0.00    -0.273 OA
ATOM     12  C   UNL     1      -2.309  -0.417  -6.003  0.00  0.00    +0.153 C 
ATOM     13  H   UNL     1       0.116  -0.668  -8.281  0.00  0.00    +0.156 HD
ENDROOT
BRANCH   1  15
ATOM     14  N   UNL     1      -1.851   0.204  -2.416  0.00  0.00    -0.285 N 
ATOM     15  C   UNL     1      -2.110  -0.512  -3.528  0.00  0.00    +0.222 C 
ATOM     16  O   UNL     1      -2.937  -1.400  -3.499  0.00  0.00    -0.275 OA
ATOM     17  H   UNL     1      -1.237   0.954  -2.455  0.00  0.00    +0.155 HD
BRANCH  14  23
ATOM     18  C   UNL     1      -1.781   0.021  -0.009  0.00  0.00    -0.026 A 
ATOM     19  C   UNL     1      -2.394  -0.308   1.184  0.00  0.00    +0.005 A 
ATOM     20  C   UNL     1      -3.688  -0.797   1.186  0.00  0.00    +0.000 A 
ATOM     21  C   UNL     1      -4.372  -0.957  -0.005  0.00  0.00    +0.002 A 
ATOM     22  C   UNL     1      -3.764  -0.630  -1.201  0.00  0.00    +0.023 A 
ATOM     23  C   UNL     1      -2.467  -0.134  -1.206  0.00  0.00    +0.037 A 
BRANCH  18  25
ATOM     24  C   UNL     1      -0.404   2.083  -0.020  0.00  0.00    +0.009 C 
ATOM     25  C   UNL     1      -0.371   0.554  -0.011  0.00  0.00    +0.033 C 
ENDBRANCH  18  25
ENDBRANCH  14  23
ENDBRANCH   1  15
BRANCH   8  26
ATOM     26  S   UNL     1      -3.832   2.301  -9.332  0.00  0.00    -0.084 S 
BRANCH  26  27
ATOM     27  C   UNL     1      -5.397   2.954  -8.690  0.00  0.00    +0.112 C 
BRANCH  27  28
ATOM     28  C   UNL     1      -6.045   3.825  -9.736  0.00  0.00    -0.037 A 
ATOM     29  C   UNL     1      -5.760   5.178  -9.781  0.00  0.00    +0.006 A 
ATOM     30  C   UNL     1      -6.354   5.977 -10.740  0.00  0.00    +0.020 A 
ATOM     31  C   UNL     1      -7.233   5.424 -11.654  0.00  0.00    +0.041 A 
ATOM     32  C   UNL     1      -7.517   4.071 -11.608  0.00  0.00    +0.020 A 
ATOM     33  C   UNL     1      -6.919   3.271 -10.652  0.00  0.00    +0.006 A 
ATOM     34 CL   UNL     1      -7.979   6.428 -12.858  0.00  0.00    -0.084 Cl
ENDBRANCH  27  28
ENDBRANCH  26  27
ENDBRANCH   8  26
TORSDOF 6
