REMARK  Name = ZINC36668167
REMARK  5 active torsions:
REMARK  status: ('A' for Active; 'I' for Inactive)
REMARK    1  A    between atoms: C_4  and  C_7
REMARK    2  A    between atoms: C_9  and  C_31
REMARK    3  A    between atoms: C_10  and  N_12
REMARK    4  A    between atoms: C_13  and  C_15
REMARK    5  A    between atoms: C_15  and  C_17
REMARK                            x       y       z     vdW  Elec       q    Type
REMARK                         _______ _______ _______ _____ _____    ______ ____
ROOT
ATOM      1  N   UNL     1       7.602  -1.585  -0.078  0.00  0.00    -0.273 N 
ATOM      2  C   UNL     1       8.399  -0.498  -0.073  0.00  0.00    +0.285 C 
ATOM      3  O   UNL     1       7.910   0.613  -0.058  0.00  0.00    -0.267 OA
ATOM      4  H   UNL     1       7.993  -2.473  -0.089  0.00  0.00    +0.156 HD
ENDROOT
BRANCH   1   8
ATOM      5  C   UNL     1       3.695  -0.684  -0.038  0.00  0.00    +0.022 A 
ATOM      6  C   UNL     1       3.921  -2.028  -0.053  0.00  0.00    +0.031 A 
ATOM      7  C   UNL     1       5.257  -2.430  -0.068  0.00  0.00    +0.066 A 
ATOM      8  C   UNL     1       6.229  -1.435  -0.066  0.00  0.00    +0.085 A 
ATOM      9  S   UNL     1       5.343  -0.008  -0.052  0.00  0.00    -0.073 S 
BRANCH   5  13
ATOM     10  C   UNL     1      -0.017   1.379   0.010  0.00  0.00    +0.000 A 
ATOM     11  C   UNL     1       1.168   2.094   0.002  0.00  0.00    +0.001 A 
ATOM     12  C   UNL     1       2.377   1.430  -0.013  0.00  0.00    +0.009 A 
ATOM     13  C   UNL     1       2.404   0.034  -0.021  0.00  0.00    -0.011 A 
ATOM     14  C   UNL     1       1.204  -0.681  -0.013  0.00  0.00    +0.009 A 
ATOM     15  C   UNL     1       0.002  -0.004   0.002  0.00  0.00    +0.001 A 
ENDBRANCH   5  13
BRANCH   7  16
ATOM     16  C   UNL     1       5.623  -3.852  -0.084  0.00  0.00    +0.244 C 
ATOM     17  O   UNL     1       6.795  -4.178  -0.096  0.00  0.00    -0.270 OA
ATOM     18  N   UNL     1       4.661  -4.795  -0.086  0.00  0.00    -0.325 N 
ATOM     19  H   UNL     1       3.726  -4.536  -0.077  0.00  0.00    +0.145 HD
ATOM     20  H   UNL     1       4.903  -5.735  -0.097  0.00  0.00    +0.145 HD
ENDBRANCH   7  16
ENDBRANCH   1   8
BRANCH   2  21
ATOM     21  C   UNL     1       9.879  -0.660  -0.086  0.00  0.00    +0.229 C 
ATOM     22  O   UNL     1      10.365  -1.765  -0.101  0.00  0.00    -0.286 OA
BRANCH  21  23
ATOM     23  C   UNL     1      10.769   0.556  -0.081  0.00  0.00    +0.132 C 
ATOM     24  C   UNL     1      10.932   1.059  -1.490  0.00  0.00    +0.010 A 
ATOM     25  C   UNL     1       9.912   1.792  -2.071  0.00  0.00    +0.008 A 
ATOM     26  C   UNL     1      10.043   2.263  -3.363  0.00  0.00    +0.001 A 
ATOM     27  C   UNL     1      11.196   2.003  -4.081  0.00  0.00    +0.004 A 
ATOM     28  C   UNL     1      12.216   1.273  -3.506  0.00  0.00    +0.046 A 
ATOM     29  C   UNL     1      12.088   0.797  -2.206  0.00  0.00    +0.133 A 
ATOM     30  O   UNL     1      13.101   0.083  -1.659  0.00  0.00    -0.455 OA
ATOM     31  C   UNL     1      13.203  -0.027  -0.313  0.00  0.00    +0.133 A 
ATOM     32  C   UNL     1      12.106   0.190   0.505  0.00  0.00    +0.010 A 
ATOM     33  C   UNL     1      12.235   0.071   1.877  0.00  0.00    +0.008 A 
ATOM     34  C   UNL     1      13.455  -0.264   2.435  0.00  0.00    +0.001 A 
ATOM     35  C   UNL     1      14.552  -0.481   1.621  0.00  0.00    +0.004 A 
ATOM     36  C   UNL     1      14.428  -0.364   0.250  0.00  0.00    +0.046 A 
ENDBRANCH  21  23
ENDBRANCH   2  21
TORSDOF 5
