REMARK  Name = ZINC03840786
REMARK  12 active torsions:
REMARK  status: ('A' for Active; 'I' for Inactive)
REMARK    1  A    between atoms: C_1  and  C_2
REMARK    2  A    between atoms: C_10  and  C_12
REMARK    3  A    between atoms: C_15  and  O_18
REMARK    4  A    between atoms: O_18  and  C_19
REMARK    5  A    between atoms: C_21  and  C_41
REMARK    6  A    between atoms: C_24  and  O_40
REMARK    7  A    between atoms: C_26  and  C_30
REMARK    8  A    between atoms: C_30  and  C_32
REMARK    9  A    between atoms: C_30  and  C_33
REMARK   10  A    between atoms: N_35  and  C_36
REMARK   11  A    between atoms: N_35  and  C_37
REMARK   12  A    between atoms: C_37  and  C_38
REMARK                            x       y       z     vdW  Elec       q    Type
REMARK                         _______ _______ _______ _____ _____    ______ ____
ROOT
ATOM      1  C   UNL     1      -3.478  -3.876  -3.154  0.00  0.00    +0.014 C 
ATOM      2  C   UNL     1      -2.095  -4.069  -2.527  0.00  0.00    +0.042 C 
ATOM      3  C   UNL     1      -1.047  -3.389  -3.394  0.00  0.00    +0.057 A 
ATOM      4  C   UNL     1       0.146  -3.996  -3.623  0.00  0.00    +0.015 A 
ATOM      5  S   UNL     1       0.986  -2.826  -4.657  0.00  0.00    -0.057 S 
ATOM      6  C   UNL     1      -0.280  -1.636  -4.703  0.00  0.00    +0.165 A 
ATOM      7  N   UNL     1      -1.214  -2.197  -3.964  0.00  0.00    -0.229 NA
ATOM      8  N   UNL     1      -0.304  -0.411  -5.357  0.00  0.00    -0.261 N 
ATOM      9  C   UNL     1       0.765  -0.008  -6.073  0.00  0.00    +0.250 C 
ATOM     10  O   UNL     1       1.750  -0.718  -6.146  0.00  0.00    -0.270 OA
ATOM     11  C   UNL     1       0.604  -5.319  -3.122  0.00  0.00    +0.051 C 
ATOM     12  C   UNL     1      -0.333  -5.779  -1.988  0.00  0.00    -0.022 C 
ATOM     13  C   UNL     1      -1.784  -5.569  -2.427  0.00  0.00    +0.033 C 
ATOM     14  C   UNL     1      -2.741  -6.168  -1.391  0.00  0.00    +0.123 C 
ATOM     15  C   UNL     1      -2.456  -7.656  -1.202  0.00  0.00    +0.029 C 
ATOM     16  C   UNL     1      -1.018  -7.822  -0.699  0.00  0.00    +0.007 C 
ATOM     17  C   UNL     1      -0.062  -7.268  -1.753  0.00  0.00    +0.008 C 
ATOM     18  C   UNL     1      -0.040  -4.987  -0.713  0.00  0.00    +0.012 C 
ATOM     19  H   UNL     1      -1.089   0.156  -5.299  0.00  0.00    +0.157 HD
ENDROOT
BRANCH   9  20
ATOM     20  C   UNL     1       0.740   1.293  -6.768  0.00  0.00    +0.037 A 
ATOM     21  C   UNL     1      -0.393   2.108  -6.689  0.00  0.00    +0.016 A 
ATOM     22  C   UNL     1      -0.409   3.325  -7.334  0.00  0.00    +0.046 A 
ATOM     23  C   UNL     1       0.694   3.737  -8.072  0.00  0.00    +0.120 A 
ATOM     24  C   UNL     1       1.820   2.928  -8.157  0.00  0.00    +0.046 A 
ATOM     25  C   UNL     1       1.847   1.712  -7.511  0.00  0.00    +0.016 A 
BRANCH  23  26
ATOM     26  O   UNL     1       0.671   4.935  -8.711  0.00  0.00    -0.495 OA
ATOM     27  C   UNL     1      -0.518   5.716  -8.581  0.00  0.00    +0.277 C 
ENDBRANCH  23  26
ENDBRANCH   9  20
BRANCH  15  28
ATOM     28  C   UNL     1      -2.619  -8.383  -2.538  0.00  0.00    +0.078 C 
ATOM     29  C   UNL     1      -4.087  -8.339  -2.967  0.00  0.00    +0.017 C 
BRANCH  28  30
ATOM     30  C   UNL     1      -2.183  -9.818  -2.385  0.00  0.00    +0.219 C 
ATOM     31  O   UNL     1      -2.220 -10.351  -1.296  0.00  0.00    -0.275 OA
ATOM     32  N   UNL     1      -1.752 -10.509  -3.459  0.00  0.00    -0.301 N 
ATOM     33  C   UNL     1      -1.788  -9.895  -4.789  0.00  0.00    +0.132 C 
BRANCH  32  34
ATOM     34  C   UNL     1      -1.248 -11.875  -3.297  0.00  0.00    +0.134 C 
BRANCH  34  35
ATOM     35  C   UNL     1      -2.387 -12.851  -3.441  0.00  0.00    -0.016 C 
ATOM     36  C   UNL     1      -2.312 -13.820  -4.319  0.00  0.00    +0.005 C 
ENDBRANCH  34  35
ENDBRANCH  32  34
ENDBRANCH  28  30
ENDBRANCH  15  28
BRANCH  14  37
ATOM     37  O   UNL     1      -4.088  -5.997  -1.837  0.00  0.00    -0.391 OA
ATOM     38  H   UNL     1      -4.752  -6.341  -1.223  0.00  0.00    +0.210 HD
ENDBRANCH  14  37
TORSDOF 7
