REMARK  Name = ZINC34966505
REMARK  12 active torsions:
REMARK  status: ('A' for Active; 'I' for Inactive)
REMARK    1  A    between atoms: C_1  and  C_2
REMARK    2  A    between atoms: C_2  and  N_3
REMARK    3  A    between atoms: N_3  and  C_4
REMARK    4  A    between atoms: C_7  and  S_24
REMARK    5  A    between atoms: C_9  and  N_10
REMARK    6  A    between atoms: N_10  and  C_11
REMARK    7  A    between atoms: C_11  and  N_13
REMARK    8  A    between atoms: N_13  and  C_14
REMARK    9  A    between atoms: C_14  and  C_16
REMARK   10  A    between atoms: C_14  and  N_20
REMARK   11  A    between atoms: C_21  and  C_23
REMARK   12  A    between atoms: S_24  and  C_27
REMARK                            x       y       z     vdW  Elec       q    Type
REMARK                         _______ _______ _______ _____ _____    ______ ____
ROOT
ATOM      1  C   UNL     1       1.058  -1.885  -1.330  0.00  0.00    +0.049 A 
ATOM      2  C   UNL     1       0.538  -2.805  -0.431  0.00  0.00    +0.026 A 
ATOM      3  C   UNL     1       0.442  -4.138  -0.785  0.00  0.00    +0.029 A 
ATOM      4  C   UNL     1       0.863  -4.558  -2.034  0.00  0.00    +0.099 A 
ATOM      5  C   UNL     1       1.382  -3.647  -2.936  0.00  0.00    +0.052 A 
ATOM      6  C   UNL     1       1.477  -2.308  -2.591  0.00  0.00    +0.056 A 
ENDROOT
BRANCH   4   7
ATOM      7  S   UNL     1       0.737  -6.259  -2.477  0.00  0.00    +0.091 S 
ATOM      8  O   UNL     1       1.748  -6.454  -3.456  0.00  0.00    -0.161 OA
ATOM      9  O   UNL     1       0.781  -6.959  -1.242  0.00  0.00    -0.161 OA
BRANCH   7  10
ATOM     10  C   UNL     1      -0.904  -6.424  -3.232  0.00  0.00    +0.526 C 
ATOM     11  F   UNL     1      -0.988  -5.590  -4.352  0.00  0.00    -0.150 F 
ATOM     12  F   UNL     1      -1.105  -7.752  -3.623  0.00  0.00    -0.150 F 
ATOM     13  F   UNL     1      -1.883  -6.058  -2.303  0.00  0.00    -0.150 F 
ENDBRANCH   7  10
ENDBRANCH   4   7
BRANCH   1  14
ATOM     14  N   UNL     1       1.155  -0.535  -0.974  0.00  0.00    -0.343 N 
ATOM     15  H   UNL     1       1.515   0.108  -1.605  0.00  0.00    +0.146 HD
BRANCH  14  17
ATOM     16  C   UNL     1       0.928   1.416   0.483  0.00  0.00    +0.024 C 
ATOM     17  C   UNL     1       0.714  -0.093   0.351  0.00  0.00    +0.098 C 
ENDBRANCH  14  17
ENDBRANCH   1  14
BRANCH   6  18
ATOM     18  N   UNL     1       1.998  -1.382  -3.505  0.00  0.00    -0.295 N 
ATOM     19  H   UNL     1       1.533  -0.546  -3.667  0.00  0.00    +0.154 HD
BRANCH  18  20
ATOM     20  C   UNL     1       3.144  -1.653  -4.160  0.00  0.00    +0.136 C 
ATOM     21  S   UNL     1       3.906  -3.174  -3.958  0.00  0.00    -0.019 S 
BRANCH  20  22
ATOM     22  N   UNL     1       3.691  -0.728  -4.973  0.00  0.00    -0.305 N 
ATOM     23  H   UNL     1       3.260   0.133  -5.087  0.00  0.00    +0.150 HD
BRANCH  22  24
ATOM     24  C   UNL     1       4.937  -1.023  -5.685  0.00  0.00    +0.211 C 
BRANCH  24  25
ATOM     25  N   UNL     1       6.046  -0.310  -5.045  0.00  0.00    -0.294 N 
ATOM     26  C   UNL     1       6.925  -0.982  -4.276  0.00  0.00    +0.211 C 
ATOM     27  O   UNL     1       6.799  -2.177  -4.113  0.00  0.00    -0.276 OA
ATOM     28  C   UNL     1       8.065  -0.248  -3.618  0.00  0.00    +0.109 C 
ATOM     29  H   UNL     1       6.147   0.646  -5.176  0.00  0.00    +0.151 HD
ENDBRANCH  24  25
BRANCH  24  30
ATOM     30  C   UNL     1       4.812  -0.571  -7.141  0.00  0.00    +0.225 C 
ATOM     31 CL   UNL     1       4.496   1.203  -7.194  0.00  0.00    -0.080 Cl
ATOM     32 CL   UNL     1       6.346  -0.934  -8.017  0.00  0.00    -0.080 Cl
ATOM     33 CL   UNL     1       3.449  -1.449  -7.928  0.00  0.00    -0.080 Cl
ENDBRANCH  24  30
ENDBRANCH  22  24
ENDBRANCH  20  22
ENDBRANCH  18  20
ENDBRANCH   6  18
TORSDOF 10
