REMARK  Name = ZINC30884056
REMARK  14 active torsions:
REMARK  status: ('A' for Active; 'I' for Inactive)
REMARK    1  A    between atoms: C_1  and  C_2
REMARK    2  A    between atoms: C_4  and  N_32
REMARK    3  A    between atoms: C_8  and  C_31
REMARK    4  A    between atoms: C_11  and  O_30
REMARK    5  A    between atoms: C_13  and  C_17
REMARK    6  A    between atoms: C_17  and  C_19
REMARK    7  A    between atoms: C_17  and  C_20
REMARK    8  A    between atoms: N_22  and  C_23
REMARK    9  A    between atoms: C_23  and  C_24
REMARK   10  A    between atoms: C_24  and  N_25
REMARK   11  A    between atoms: C_33  and  C_35
REMARK   12  A    between atoms: C_35  and  C_36
REMARK   13  A    between atoms: C_36  and  O_37
REMARK   14  A    between atoms: O_37  and  C_38
REMARK                            x       y       z     vdW  Elec       q    Type
REMARK                         _______ _______ _______ _____ _____    ______ ____
ROOT
ATOM      1  C   UNL     1      -1.910  -0.994  -4.615  0.00  0.00    +0.010 C 
ATOM      2  C   UNL     1      -1.265   0.385  -4.765  0.00  0.00    +0.012 C 
ATOM      3  C   UNL     1      -1.861   1.341  -3.729  0.00  0.00    +0.076 C 
ATOM      4  C   UNL     1      -1.216   2.720  -3.878  0.00  0.00    +0.023 C 
ATOM      5  C   UNL     1      -1.485   3.260  -5.284  0.00  0.00    +0.009 C 
ATOM      6  C   UNL     1      -0.890   2.304  -6.320  0.00  0.00    -0.027 C 
ATOM      7  C   UNL     1      -1.535   0.925  -6.171  0.00  0.00    +0.028 C 
ATOM      8  C   UNL     1      -0.940  -0.031  -7.207  0.00  0.00    +0.122 C 
ATOM      9  C   UNL     1      -1.209   0.508  -8.613  0.00  0.00    +0.029 C 
ATOM     10  C   UNL     1      -0.565   1.887  -8.762  0.00  0.00    +0.007 C 
ATOM     11  C   UNL     1      -1.160   2.844  -7.726  0.00  0.00    +0.007 C 
ATOM     12  C   UNL     1       0.619   2.188  -6.099  0.00  0.00    +0.011 C 
ENDROOT
BRANCH   3  13
ATOM     13  N   UNL     1      -1.602   0.825  -2.383  0.00  0.00    -0.312 N 
ATOM     14  C   UNL     1      -2.411   1.170  -1.362  0.00  0.00    +0.215 C 
ATOM     15  O   UNL     1      -3.353   1.909  -1.557  0.00  0.00    -0.276 OA
ATOM     16  H   UNL     1      -0.748   0.154  -2.205  0.00  0.00    +0.149 HD
BRANCH  14  17
ATOM     17  C   UNL     1      -2.146   0.639   0.023  0.00  0.00    +0.124 C 
BRANCH  17  18
ATOM     18  C   UNL     1      -3.202   1.180   0.989  0.00  0.00    +0.168 C 
BRANCH  18  19
ATOM     19  O   UNL     1      -2.950   0.676   2.302  0.00  0.00    -0.382 OA
ATOM     20  C   UNL     1      -3.886   1.124   3.285  0.00  0.00    +0.194 C 
ENDBRANCH  18  19
ENDBRANCH  17  18
ENDBRANCH  14  17
ENDBRANCH   3  13
BRANCH   9  21
ATOM     21  C   UNL     1      -0.614  -0.448  -9.649  0.00  0.00    +0.077 C 
ATOM     22  C   UNL     1       0.911  -0.444  -9.529  0.00  0.00    +0.017 C 
BRANCH  21  23
ATOM     23  C   UNL     1      -1.011  -0.000 -11.032  0.00  0.00    +0.216 C 
ATOM     24  O   UNL     1      -1.738   0.960 -11.173  0.00  0.00    -0.276 OA
ATOM     25  N   UNL     1      -0.558  -0.667 -12.112  0.00  0.00    -0.317 N 
ATOM     26  H   UNL     1       0.101  -1.538 -11.984  0.00  0.00    +0.149 HD
BRANCH  25  27
ATOM     27  C   UNL     1      -0.944  -0.232 -13.456  0.00  0.00    +0.085 C 
BRANCH  27  28
ATOM     28  C   UNL     1      -0.299  -1.152 -14.495  0.00  0.00    -0.060 C 
BRANCH  28  29
ATOM     29  N   UNL     1      -0.686  -0.716 -15.843  0.00  0.00    +0.381 N 
ATOM     30  C   UNL     1      -0.400   0.729 -16.038  0.00  0.00    -0.079 C 
ATOM     31  C   UNL     1      -0.357   0.878 -17.579  0.00  0.00    -0.020 C 
ATOM     32  C   UNL     1       0.322  -0.434 -18.034  0.00  0.00    -0.020 C 
ATOM     33  C   UNL     1       0.101  -1.424 -16.876  0.00  0.00    -0.079 C 
ATOM     34  H   UNL     1      -1.760  -0.936 -15.933  0.00  0.00    -0.082 HD
ENDBRANCH  28  29
ENDBRANCH  27  28
ENDBRANCH  25  27
ENDBRANCH  21  23
ENDBRANCH   9  21
BRANCH   8  35
ATOM     35  O   UNL     1      -1.542  -1.320  -7.067  0.00  0.00    -0.391 OA
ATOM     36  H   UNL     1      -1.239  -2.143  -7.731  0.00  0.00    +0.210 HD
ENDBRANCH   8  35
TORSDOF 10
