REMARK  Name = ZINC44452646
REMARK  6 active torsions:
REMARK  status: ('A' for Active; 'I' for Inactive)
REMARK    1  A    between atoms: C_1  and  C_2
REMARK    2  A    between atoms: C_2  and  C_3
REMARK    3  A    between atoms: C_2  and  C_4
REMARK    4  A    between atoms: C_2  and  C_5
REMARK    5  A    between atoms: N_7  and  C_8
REMARK    6  A    between atoms: C_9  and  C_16
REMARK                            x       y       z     vdW  Elec       q    Type
REMARK                         _______ _______ _______ _____ _____    ______ ____
ROOT
ATOM      1  C   UNL     1       1.495  -2.259  -2.600  0.00  0.00    +0.084 A 
ATOM      2  C   UNL     1       1.724  -3.566  -2.992  0.00  0.00    +0.069 A 
ATOM      3  C   UNL     1       2.439  -3.772  -4.251  0.00  0.00    -0.023 A 
ATOM      4  C   UNL     1       2.789  -2.634  -4.875  0.00  0.00    -0.004 A 
ATOM      5  S   UNL     1       2.177  -1.340  -3.826  0.00  0.00    -0.077 S 
ATOM      6  C   UNL     1       3.524  -2.903  -6.161  0.00  0.00    +0.043 C 
ATOM      7  C   UNL     1       3.970  -4.378  -6.054  0.00  0.00    +0.010 C 
ATOM      8  C   UNL     1       2.915  -4.957  -5.089  0.00  0.00    +0.037 C 
ENDROOT
BRANCH   2   9
ATOM      9  C   UNL     1       1.269  -4.697  -2.179  0.00  0.00    +0.254 C 
ATOM     10  O   UNL     1       0.163  -5.171  -2.361  0.00  0.00    -0.270 OA
ATOM     11  N   UNL     1       2.075  -5.212  -1.229  0.00  0.00    -0.236 N 
ATOM     12  C   UNL     1       1.656  -6.252  -0.481  0.00  0.00    +0.304 C 
ATOM     13  O   UNL     1       0.552  -6.726  -0.663  0.00  0.00    -0.253 OA
ATOM     14  N   UNL     1       2.462  -6.766   0.468  0.00  0.00    -0.313 N 
ATOM     15  H   UNL     1       2.956  -4.833  -1.084  0.00  0.00    +0.159 HD
ATOM     16  H   UNL     1       3.344  -6.388   0.614  0.00  0.00    +0.146 HD
ATOM     17  H   UNL     1       2.161  -7.515   1.007  0.00  0.00    +0.146 HD
ENDBRANCH   2   9
BRANCH   1  20
ATOM     18  C   UNL     1       0.707  -0.490  -1.238  0.00  0.00    +0.223 C 
ATOM     19  O   UNL     1       1.150   0.308  -2.036  0.00  0.00    -0.275 OA
ATOM     20  N   UNL     1       0.847  -1.812  -1.460  0.00  0.00    -0.279 N 
ATOM     21  H   UNL     1       0.493  -2.451  -0.821  0.00  0.00    +0.155 HD
BRANCH  18  23
ATOM     22  C   UNL     1      -0.019   1.526   0.010  0.00  0.00    +0.020 C 
ATOM     23  C   UNL     1       0.002  -0.004   0.002  0.00  0.00    +0.039 C 
ATOM     24  C   UNL     1       0.742  -0.511   1.242  0.00  0.00    +0.020 C 
ATOM     25  C   UNL     1      -1.433  -0.534   0.013  0.00  0.00    +0.020 C 
ENDBRANCH  18  23
ENDBRANCH   1  20
TORSDOF 3
