REMARK  Name = ZINC02300042
REMARK  11 active torsions:
REMARK  status: ('A' for Active; 'I' for Inactive)
REMARK    1  A    between atoms: C_1  and  C_2
REMARK    2  A    between atoms: C_2  and  N_55
REMARK    3  A    between atoms: C_3  and  C_4
REMARK    4  A    between atoms: C_3  and  N_55
REMARK    5  A    between atoms: C_5  and  C_6
REMARK    6  A    between atoms: C_5  and  N_55
REMARK    7  A    between atoms: C_6  and  C_7
REMARK    8  A    between atoms: C_7  and  N_8
REMARK    9  A    between atoms: C_9  and  C_11
REMARK   10  A    between atoms: C_16  and  C_27
REMARK   11  A    between atoms: C_19  and  C_22
REMARK                            x       y       z     vdW  Elec       q    Type
REMARK                         _______ _______ _______ _____ _____    ______ ____
ROOT
ATOM      1  C   UNL     1      -0.017   1.325  -0.019  0.00  0.00    +0.167 A 
ATOM      2  C   UNL     1       1.318   1.784  -0.026  0.00  0.00    +0.112 A 
ATOM      3  C   UNL     1       2.128   0.699  -0.061  0.00  0.00    +0.137 A 
ATOM      4  N   UNL     1       1.335  -0.410  -0.077  0.00  0.00    -0.237 N 
ATOM      5  N   UNL     1       0.003   0.004  -0.050  0.00  0.00    -0.163 NA
ATOM      6  C   UNL     1       1.845  -1.786  -0.116  0.00  0.00    +0.215 C 
ATOM      7  C   UNL     1       3.325  -1.727  -0.521  0.00  0.00    +0.063 C 
ATOM      8  C   UNL     1       4.025  -0.647   0.310  0.00  0.00    +0.111 C 
ATOM      9  N   UNL     1       3.522   0.680  -0.079  0.00  0.00    -0.321 N 
ATOM     10 CL   UNL     1       1.829   3.443   0.005  0.00  0.00    -0.078 Cl
ATOM     11  H   UNL     1       3.876   0.950  -0.984  0.00  0.00    +0.148 HD
ENDROOT
BRANCH   8  12
ATOM     12  C   UNL     1       3.746  -0.880   1.772  0.00  0.00    +0.010 A 
ATOM     13  C   UNL     1       4.532  -1.467   2.708  0.00  0.00    +0.013 A 
ATOM     14  C   UNL     1       4.064  -1.573   4.005  0.00  0.00    +0.008 A 
ATOM     15  C   UNL     1       2.833  -1.089   4.302  0.00  0.00    +0.045 A 
ATOM     16  S   UNL     1       2.297  -0.450   2.723  0.00  0.00    -0.100 S 
ENDBRANCH   8  12
BRANCH   1  18
ATOM     17  N   UNL     1      -2.448   1.605   0.009  0.00  0.00    -0.310 N 
ATOM     18  C   UNL     1      -1.226   2.173   0.011  0.00  0.00    +0.266 C 
ATOM     19  O   UNL     1      -1.119   3.384   0.038  0.00  0.00    -0.268 OA
ATOM     20  H   UNL     1      -2.534   0.639  -0.012  0.00  0.00    +0.149 HD
BRANCH  17  21
ATOM     21  C   UNL     1      -3.647   2.446   0.038  0.00  0.00    +0.103 C 
BRANCH  21  22
ATOM     22  C   UNL     1      -4.893   1.558   0.029  0.00  0.00    +0.000 C 
BRANCH  22  23
ATOM     23  C   UNL     1      -6.145   2.437   0.060  0.00  0.00    -0.077 C 
BRANCH  23  24
ATOM     24  N   UNL     1      -7.334   1.572  -0.093  0.00  0.00    +0.379 N 
ATOM     25  H   UNL     1      -7.143   0.866  -0.814  0.00  0.00    -0.082 HD
BRANCH  24  27
ATOM     26  C   UNL     1      -8.715  -0.162   0.942  0.00  0.00    -0.017 C 
ATOM     27  C   UNL     1      -7.628   0.887   1.183  0.00  0.00    -0.082 C 
ENDBRANCH  24  27
BRANCH  24  28
ATOM     28  C   UNL     1      -8.498   2.382  -0.511  0.00  0.00    -0.082 C 
ATOM     29  C   UNL     1      -8.367   2.695  -2.003  0.00  0.00    -0.017 C 
ENDBRANCH  24  28
ENDBRANCH  23  24
ENDBRANCH  22  23
ENDBRANCH  21  22
ENDBRANCH  17  21
ENDBRANCH   1  18
BRANCH   6  30
ATOM     30  C   UNL     1       1.058  -2.600  -1.145  0.00  0.00    +0.412 C 
ATOM     31  F   UNL     1       1.202  -2.018  -2.409  0.00  0.00    -0.168 F 
ATOM     32  F   UNL     1       1.549  -3.910  -1.177  0.00  0.00    -0.168 F 
ATOM     33  F   UNL     1      -0.295  -2.618  -0.791  0.00  0.00    -0.168 F 
ENDBRANCH   6  30
TORSDOF 9
