REMARK  Name = ZINC16492070
REMARK  10 active torsions:
REMARK  status: ('A' for Active; 'I' for Inactive)
REMARK    1  A    between atoms: C_1  and  C_2
REMARK    2  A    between atoms: C_4  and  C_36
REMARK    3  A    between atoms: C_6  and  S_8
REMARK    4  A    between atoms: S_8  and  C_9
REMARK    5  A    between atoms: C_9  and  C_10
REMARK    6  A    between atoms: C_13  and  C_16
REMARK    7  A    between atoms: N_18  and  N_19
REMARK    8  A    between atoms: C_20  and  C_22
REMARK    9  A    between atoms: C_22  and  N_23
REMARK   10  A    between atoms: C_24  and  C_26
REMARK                            x       y       z     vdW  Elec       q    Type
REMARK                         _______ _______ _______ _____ _____    ______ ____
ROOT
ATOM      1  C   UNL     1       3.167   5.124  -0.001  0.00  0.00    +0.260 C 
ATOM      2  O   UNL     1       2.232   5.901   0.012  0.00  0.00    -0.269 OA
ATOM      3  N   UNL     1       2.939   3.796  -0.006  0.00  0.00    -0.230 N 
ATOM      4  H   UNL     1       3.684   3.175  -0.016  0.00  0.00    +0.173 HD
ENDROOT
BRANCH   1   8
ATOM      5  C   UNL     1       7.152   6.594  -0.030  0.00  0.00    -0.037 A 
ATOM      6  C   UNL     1       6.090   7.481  -0.015  0.00  0.00    +0.005 A 
ATOM      7  C   UNL     1       4.794   7.011  -0.006  0.00  0.00    +0.013 A 
ATOM      8  C   UNL     1       4.554   5.636  -0.011  0.00  0.00    +0.038 A 
ATOM      9  C   UNL     1       5.629   4.746  -0.020  0.00  0.00    +0.013 A 
ATOM     10  C   UNL     1       6.921   5.230  -0.035  0.00  0.00    +0.005 A 
BRANCH   5  11
ATOM     11  C   UNL     1       8.566   7.116  -0.042  0.00  0.00    +0.112 C 
BRANCH  11  12
ATOM     12  S   UNL     1       9.148   7.316   1.660  0.00  0.00    -0.081 S 
BRANCH  12  18
ATOM     13  C   UNL     1      12.856   8.712  -1.580  0.00  0.00    +0.066 C 
ATOM     14  C   UNL     1      12.400   8.531  -0.155  0.00  0.00    +0.043 A 
ATOM     15  C   UNL     1      13.249   8.835   0.897  0.00  0.00    +0.046 A 
ATOM     16  C   UNL     1      12.791   8.655   2.193  0.00  0.00    +0.043 A 
ATOM     17  N   UNL     1      11.564   8.201   2.386  0.00  0.00    -0.227 NA
ATOM     18  C   UNL     1      10.776   7.919   1.358  0.00  0.00    +0.189 A 
ATOM     19  N   UNL     1      11.186   8.075   0.107  0.00  0.00    -0.227 NA
ATOM     20  C   UNL     1      13.679   8.973   3.368  0.00  0.00    +0.066 C 
ENDBRANCH  12  18
ENDBRANCH  11  12
ENDBRANCH   5  11
ENDBRANCH   1   8
BRANCH   3  21
ATOM     21  N   UNL     1       1.624   3.311   0.004  0.00  0.00    -0.233 N 
ATOM     22  C   UNL     1       1.396   1.982  -0.001  0.00  0.00    +0.246 C 
ATOM     23  O   UNL     1       2.328   1.207  -0.014  0.00  0.00    -0.273 OA
ATOM     24  H   UNL     1       0.879   3.931   0.015  0.00  0.00    +0.173 HD
BRANCH  22  25
ATOM     25  C   UNL     1      -0.018   1.461   0.010  0.00  0.00    +0.202 C 
BRANCH  25  26
ATOM     26  N   UNL     1       0.002  -0.004   0.002  0.00  0.00    -0.303 N 
ATOM     27  C   UNL     1      -1.156  -0.694   0.009  0.00  0.00    +0.244 C 
ATOM     28  O   UNL     1      -2.217  -0.100   0.023  0.00  0.00    -0.270 OA
ATOM     29  H   UNL     1       0.849  -0.478  -0.009  0.00  0.00    +0.150 HD
BRANCH  27  30
ATOM     30  C   UNL     1      -1.136  -2.171   0.001  0.00  0.00    +0.037 A 
ATOM     31  C   UNL     1       0.095  -2.853  -0.020  0.00  0.00    +0.013 A 
ATOM     32  C   UNL     1       0.139  -4.209  -0.022  0.00  0.00    +0.009 A 
ATOM     33  C   UNL     1      -1.055  -4.952  -0.014  0.00  0.00    -0.018 A 
ATOM     34  C   UNL     1      -1.034  -6.357  -0.023  0.00  0.00    +0.008 A 
ATOM     35  C   UNL     1      -2.207  -7.050  -0.016  0.00  0.00    +0.001 A 
ATOM     36  C   UNL     1      -3.432  -6.387  -0.000  0.00  0.00    +0.001 A 
ATOM     37  C   UNL     1      -3.493  -5.027   0.008  0.00  0.00    +0.008 A 
ATOM     38  C   UNL     1      -2.302  -4.277   0.001  0.00  0.00    -0.017 A 
ATOM     39  C   UNL     1      -2.329  -2.875   0.009  0.00  0.00    +0.021 A 
ENDBRANCH  27  30
ENDBRANCH  25  26
ENDBRANCH  22  25
ENDBRANCH   3  21
TORSDOF 8
