REMARK  Name = ZINC09329582
REMARK  12 active torsions:
REMARK  status: ('A' for Active; 'I' for Inactive)
REMARK    1  A    between atoms: C_1  and  C_2
REMARK    2  A    between atoms: C_2  and  N_57
REMARK    3  A    between atoms: C_3  and  C_4
REMARK    4  A    between atoms: C_3  and  N_57
REMARK    5  A    between atoms: C_5  and  C_6
REMARK    6  A    between atoms: C_5  and  N_57
REMARK    7  A    between atoms: C_6  and  C_7
REMARK    8  A    between atoms: C_7  and  N_8
REMARK    9  A    between atoms: C_9  and  C_31
REMARK   10  A    between atoms: C_15  and  C_23
REMARK   11  A    between atoms: C_17  and  C_21
REMARK   12  A    between atoms: C_18  and  N_20
REMARK                            x       y       z     vdW  Elec       q    Type
REMARK                         _______ _______ _______ _____ _____    ______ ____
ROOT
ATOM      1  N   UNL     1      -0.788   1.855   0.547  0.00  0.00    -0.312 N 
ATOM      2  C   UNL     1      -0.852   0.605   0.017  0.00  0.00    +0.022 A 
ATOM      3  C   UNL     1      -1.370  -0.422   0.724  0.00  0.00    +0.068 A 
ATOM      4  C   UNL     1      -1.859  -0.199   2.028  0.00  0.00    +0.141 A 
ATOM      5  C   UNL     1      -1.797   1.073   2.556  0.00  0.00    +0.072 A 
ATOM      6  C   UNL     1      -1.250   2.107   1.786  0.00  0.00    +0.259 A 
ATOM      7  O   UNL     1      -1.188   3.239   2.240  0.00  0.00    -0.267 OA
ATOM      8  C   UNL     1      -2.307   1.355   3.942  0.00  0.00    +0.106 C 
ATOM      9  C   UNL     1      -3.188   0.230   4.409  0.00  0.00    +0.098 C 
ATOM     10  C   UNL     1      -3.174  -0.975   3.791  0.00  0.00    +0.199 C 
ATOM     11  O   UNL     1      -2.378  -1.224   2.736  0.00  0.00    -0.441 OA
ATOM     12  C   UNL     1      -0.331   0.361  -1.376  0.00  0.00    +0.064 C 
ENDROOT
BRANCH   8  13
ATOM     13  C   UNL     1      -1.138   1.498   4.882  0.00  0.00    +0.002 A 
ATOM     14  C   UNL     1      -0.267   0.440   5.069  0.00  0.00    +0.046 A 
ATOM     15  C   UNL     1       0.809   0.573   5.928  0.00  0.00    +0.020 A 
ATOM     16  C   UNL     1       1.008   1.760   6.609  0.00  0.00    +0.003 A 
ATOM     17  C   UNL     1       0.135   2.816   6.426  0.00  0.00    +0.020 A 
ATOM     18  C   UNL     1      -0.939   2.686   5.563  0.00  0.00    +0.046 A 
ATOM     19 CL   UNL     1      -2.035   4.012   5.334  0.00  0.00    -0.083 Cl
ATOM     20 CL   UNL     1      -0.521  -1.053   4.221  0.00  0.00    -0.083 Cl
ENDBRANCH   8  13
BRANCH  10  21
ATOM     21  N   UNL     1      -3.996  -1.971   4.256  0.00  0.00    -0.328 N 
ATOM     22  H   UNL     1      -3.998  -2.840   3.824  0.00  0.00    +0.145 HD
ATOM     23  H   UNL     1      -4.576  -1.807   5.016  0.00  0.00    +0.145 HD
ENDBRANCH  10  21
BRANCH   9  24
ATOM     24  C   UNL     1      -4.057   0.436   5.528  0.00  0.00    +0.101 C 
ATOM     25  N   UNL     1      -4.747   0.599   6.415  0.00  0.00    -0.191 NA
ENDBRANCH   9  24
BRANCH   1  26
ATOM     26  C   UNL     1      -0.214   2.945  -0.245  0.00  0.00    +0.123 C 
BRANCH  26  27
ATOM     27  C   UNL     1      -1.318   3.620  -1.061  0.00  0.00    +0.003 C 
BRANCH  27  28
ATOM     28  C   UNL     1      -0.718   4.759  -1.888  0.00  0.00    -0.077 C 
BRANCH  28  29
ATOM     29  N   UNL     1      -1.792   5.386  -2.686  0.00  0.00    +0.379 N 
ATOM     30  H   UNL     1      -2.295   4.654  -3.203  0.00  0.00    -0.082 HD
BRANCH  29  32
ATOM     31  C   UNL     1      -2.026   7.166  -0.986  0.00  0.00    -0.017 C 
ATOM     32  C   UNL     1      -2.743   6.083  -1.794  0.00  0.00    -0.082 C 
ENDBRANCH  29  32
BRANCH  29  33
ATOM     33  C   UNL     1      -1.212   6.343  -3.651  0.00  0.00    -0.082 C 
ATOM     34  C   UNL     1      -2.275   6.697  -4.693  0.00  0.00    -0.017 C 
ENDBRANCH  29  33
ENDBRANCH  28  29
ENDBRANCH  27  28
ENDBRANCH  26  27
ENDBRANCH   1  26
TORSDOF 9
