REMARK  Name = ZINC24903415
REMARK  6 active torsions:
REMARK  status: ('A' for Active; 'I' for Inactive)
REMARK    1  A    between atoms: C_3  and  C_6
REMARK    2  A    between atoms: C_16  and  C_18
REMARK    3  A    between atoms: C_18  and  N_19
REMARK    4  A    between atoms: N_22  and  C_25
REMARK    5  A    between atoms: C_25  and  C_26
REMARK    6  A    between atoms: C_29  and  C_32
REMARK                            x       y       z     vdW  Elec       q    Type
REMARK                         _______ _______ _______ _____ _____    ______ ____
ROOT
ATOM      1  C   UNL     1      -1.331  -0.708   0.004  0.00  0.00    +0.157 C 
ENDROOT
BRANCH   1  12
ATOM      2  C   UNL     1       4.895   0.523  -1.172  0.00  0.00    -0.009 A 
ATOM      3  C   UNL     1       4.607  -0.842  -1.131  0.00  0.00    +0.011 A 
ATOM      4  C   UNL     1       3.357  -1.275  -0.747  0.00  0.00    +0.026 A 
ATOM      5  C   UNL     1       2.376  -0.353  -0.398  0.00  0.00    +0.059 A 
ATOM      6  C   UNL     1       2.664   1.008  -0.443  0.00  0.00    +0.134 A 
ATOM      7  C   UNL     1       3.909   1.450  -0.824  0.00  0.00    +0.040 A 
ATOM      8  S   UNL     1       1.395   2.151   0.000  0.00  0.00    +0.102 S 
ATOM      9  O   UNL     1       1.294   3.086  -1.065  0.00  0.00    -0.146 OA
ATOM     10  O   UNL     1       1.645   2.543   1.343  0.00  0.00    -0.146 OA
ATOM     11  N   UNL     1      -0.015   1.279   0.009  0.00  0.00    -0.117 NA
ATOM     12  C   UNL     1       0.002  -0.004   0.002  0.00  0.00    +0.135 C 
ATOM     13  N   UNL     1       1.111  -0.784  -0.007  0.00  0.00    -0.299 N 
ATOM     14  H   UNL     1       0.961  -1.822   0.324  0.00  0.00    +0.153 HD
BRANCH   2  17
ATOM     15  C   UNL     1       8.486   0.910  -2.306  0.00  0.00    +0.008 A 
ATOM     16  C   UNL     1       7.329   0.249  -1.954  0.00  0.00    +0.016 A 
ATOM     17  C   UNL     1       6.237   0.987  -1.584  0.00  0.00    +0.019 A 
ATOM     18  S   UNL     1       6.857   2.656  -1.721  0.00  0.00    -0.097 S 
ATOM     19  C   UNL     1       8.512   2.266  -2.264  0.00  0.00    +0.046 A 
ENDBRANCH   2  17
ENDBRANCH   1  12
BRANCH   1  20
ATOM     20  N   UNL     1      -2.410   0.288   0.015  0.00  0.00    -0.299 NA
ATOM     21  C   UNL     1      -2.416   1.046   1.275  0.00  0.00    +0.066 C 
ATOM     22  C   UNL     1      -3.501   2.123   1.214  0.00  0.00    -0.063 C 
ATOM     23  N   UNL     1      -4.805   1.489   0.979  0.00  0.00    +0.384 N 
ATOM     24  C   UNL     1      -4.800   0.732  -0.281  0.00  0.00    -0.063 C 
ATOM     25  C   UNL     1      -3.715  -0.346  -0.220  0.00  0.00    +0.066 C 
ATOM     26  H   UNL     1      -4.992   0.781   1.800  0.00  0.00    -0.081 HD
BRANCH  23  27
ATOM     27  C   UNL     1      -5.885   2.485   0.989  0.00  0.00    -0.041 C 
BRANCH  27  28
ATOM     28  C   UNL     1      -6.018   3.067   2.373  0.00  0.00    -0.046 A 
ATOM     29  C   UNL     1      -5.293   4.193   2.733  0.00  0.00    +0.005 A 
ATOM     30  C   UNL     1      -5.447   4.694   4.016  0.00  0.00    +0.032 A 
ATOM     31  C   UNL     1      -6.311   4.058   4.888  0.00  0.00    +0.144 A 
ATOM     32  N   UNL     1      -6.984   2.989   4.511  0.00  0.00    -0.251 NA
ATOM     33  C   UNL     1      -6.867   2.489   3.296  0.00  0.00    +0.113 A 
BRANCH  31  34
ATOM     34  C   UNL     1      -6.486   4.594   6.286  0.00  0.00    +0.434 C 
ATOM     35  F   UNL     1      -7.527   5.528   6.301  0.00  0.00    -0.164 F 
ATOM     36  F   UNL     1      -6.793   3.540   7.154  0.00  0.00    -0.164 F 
ATOM     37  F   UNL     1      -5.301   5.210   6.701  0.00  0.00    -0.164 F 
ENDBRANCH  31  34
ENDBRANCH  27  28
ENDBRANCH  23  27
ENDBRANCH   1  20
TORSDOF 6
