REMARK  Name = ZINC09065858
REMARK  9 active torsions:
REMARK  status: ('A' for Active; 'I' for Inactive)
REMARK    1  A    between atoms: C_4  and  C_7
REMARK    2  A    between atoms: C_7  and  C_8
REMARK    3  A    between atoms: C_8  and  N_9
REMARK    4  A    between atoms: N_17  and  N_18
REMARK    5  A    between atoms: C_19  and  C_21
REMARK    6  A    between atoms: C_21  and  N_22
REMARK    7  A    between atoms: C_23  and  C_25
REMARK    8  A    between atoms: C_25  and  C_26
REMARK    9  A    between atoms: C_25  and  C_32
REMARK                            x       y       z     vdW  Elec       q    Type
REMARK                         _______ _______ _______ _____ _____    ______ ____
ROOT
ATOM      1  N   UNL     1      11.093  -2.661   2.549  0.00  0.00    -0.205 N 
ATOM      2  C   UNL     1      12.233  -1.997   2.276  0.00  0.00    +0.249 C 
ATOM      3  O   UNL     1      13.277  -2.604   2.167  0.00  0.00    -0.272 OA
ATOM      4  H   UNL     1      10.258  -2.176   2.637  0.00  0.00    +0.177 HD
ENDROOT
BRANCH   1  13
ATOM      5  N   UNL     1       7.808  -5.146   3.400  0.00  0.00    -0.265 N 
ATOM      6  C   UNL     1       8.474  -6.367   3.427  0.00  0.00    +0.046 A 
ATOM      7  C   UNL     1       8.021  -7.661   3.656  0.00  0.00    +0.024 A 
ATOM      8  C   UNL     1       8.905  -8.720   3.627  0.00  0.00    +0.002 A 
ATOM      9  C   UNL     1      10.250  -8.509   3.373  0.00  0.00    +0.001 A 
ATOM     10  C   UNL     1      10.719  -7.231   3.144  0.00  0.00    +0.012 A 
ATOM     11  C   UNL     1       9.835  -6.158   3.170  0.00  0.00    +0.028 A 
ATOM     12  C   UNL     1      10.005  -4.699   2.972  0.00  0.00    +0.153 C 
ATOM     13  N   UNL     1      11.114  -4.053   2.707  0.00  0.00    -0.174 NA
ATOM     14  C   UNL     1       8.650  -4.133   3.133  0.00  0.00    +0.271 C 
ATOM     15  O   UNL     1       8.349  -2.957   3.042  0.00  0.00    -0.268 OA
BRANCH   5  16
ATOM     16  C   UNL     1       6.370  -4.986   3.628  0.00  0.00    +0.118 C 
BRANCH  16  17
ATOM     17  C   UNL     1       5.627  -5.100   2.295  0.00  0.00    +0.054 C 
BRANCH  17  21
ATOM     18  C   UNL     1       1.433  -4.633   2.957  0.00  0.00    +0.000 A 
ATOM     19  C   UNL     1       2.218  -3.527   2.690  0.00  0.00    +0.000 A 
ATOM     20  C   UNL     1       3.575  -3.678   2.476  0.00  0.00    +0.004 A 
ATOM     21  C   UNL     1       4.147  -4.935   2.530  0.00  0.00    -0.046 A 
ATOM     22  C   UNL     1       3.362  -6.041   2.797  0.00  0.00    +0.004 A 
ATOM     23  C   UNL     1       2.005  -5.890   3.010  0.00  0.00    +0.000 A 
ENDBRANCH  17  21
ENDBRANCH  16  17
ENDBRANCH   5  16
ENDBRANCH   1  13
BRANCH   2  24
ATOM     24  C   UNL     1      12.211  -0.500   2.107  0.00  0.00    +0.201 C 
BRANCH  24  25
ATOM     25  N   UNL     1      13.565  -0.021   1.819  0.00  0.00    -0.306 N 
ATOM     26  C   UNL     1      13.788   1.295   1.628  0.00  0.00    +0.225 C 
ATOM     27  O   UNL     1      12.868   2.082   1.695  0.00  0.00    -0.275 OA
ATOM     28  H   UNL     1      14.301  -0.650   1.765  0.00  0.00    +0.149 HD
BRANCH  26  29
ATOM     29  C   UNL     1      15.181   1.788   1.332  0.00  0.00    +0.135 C 
BRANCH  29  30
ATOM     30  C   UNL     1      15.682   1.146   0.063  0.00  0.00    -0.031 A 
ATOM     31  C   UNL     1      14.909   1.184  -1.082  0.00  0.00    +0.005 A 
ATOM     32  C   UNL     1      15.368   0.595  -2.246  0.00  0.00    +0.000 A 
ATOM     33  C   UNL     1      16.600  -0.031  -2.264  0.00  0.00    +0.000 A 
ATOM     34  C   UNL     1      17.374  -0.068  -1.119  0.00  0.00    +0.000 A 
ATOM     35  C   UNL     1      16.916   0.524   0.044  0.00  0.00    +0.005 A 
ENDBRANCH  29  30
BRANCH  29  36
ATOM     36  C   UNL     1      15.159   3.285   1.162  0.00  0.00    -0.031 A 
ATOM     37  C   UNL     1      14.276   3.867   0.272  0.00  0.00    +0.005 A 
ATOM     38  C   UNL     1      14.256   5.240   0.116  0.00  0.00    +0.000 A 
ATOM     39  C   UNL     1      15.118   6.032   0.852  0.00  0.00    +0.000 A 
ATOM     40  C   UNL     1      16.000   5.450   1.743  0.00  0.00    +0.000 A 
ATOM     41  C   UNL     1      16.017   4.077   1.902  0.00  0.00    +0.005 A 
ENDBRANCH  29  36
ENDBRANCH  26  29
ENDBRANCH  24  25
ENDBRANCH   2  24
TORSDOF 9
