REMARK  Name = ZINC36753951
REMARK  16 active torsions:
REMARK  status: ('A' for Active; 'I' for Inactive)
REMARK    1  A    between atoms: C_1  and  C_2
REMARK    2  A    between atoms: C_2  and  C_3
REMARK    3  A    between atoms: C_3  and  C_4
REMARK    4  A    between atoms: C_4  and  N_5
REMARK    5  A    between atoms: C_6  and  N_37
REMARK    6  A    between atoms: C_7  and  N_14
REMARK    7  A    between atoms: N_14  and  C_15
REMARK    8  A    between atoms: N_14  and  C_22
REMARK    9  A    between atoms: C_15  and  C_16
REMARK   10  A    between atoms: C_22  and  C_23
REMARK   11  A    between atoms: C_23  and  C_25
REMARK   12  A    between atoms: C_26  and  C_36
REMARK   13  A    between atoms: C_27  and  C_32
REMARK   14  A    between atoms: C_28  and  C_31
REMARK   15  A    between atoms: C_32  and  O_34
REMARK   16  A    between atoms: O_34  and  C_35
REMARK                            x       y       z     vdW  Elec       q    Type
REMARK                         _______ _______ _______ _____ _____    ______ ____
ROOT
ATOM      1  N   UNL     1       4.972  -3.298   3.103  0.00  0.00    -0.311 N 
ENDROOT
BRANCH   1   4
ATOM      2  N   UNL     1       1.466  -4.313   2.719  0.00  0.00    -0.280 N 
ATOM      3  C   UNL     1       2.824  -4.231   2.509  0.00  0.00    +0.127 A 
ATOM      4  C   UNL     1       3.575  -3.400   3.297  0.00  0.00    +0.134 A 
ATOM      5  C   UNL     1       2.936  -2.651   4.301  0.00  0.00    +0.277 A 
ATOM      6  O   UNL     1       3.584  -1.905   5.016  0.00  0.00    -0.266 OA
ATOM      7  N   UNL     1       1.604  -2.764   4.470  0.00  0.00    -0.273 N 
ATOM      8  H   UNL     1       1.162  -2.248   5.163  0.00  0.00    +0.173 HD
ATOM      9  C   UNL     1       0.880  -3.581   3.684  0.00  0.00    +0.331 A 
ATOM     10  O   UNL     1      -0.321  -3.663   3.852  0.00  0.00    -0.246 OA
BRANCH   3  11
ATOM     11  N   UNL     1       3.421  -4.976   1.519  0.00  0.00    -0.343 N 
ATOM     12  H   UNL     1       2.882  -5.550   0.953  0.00  0.00    +0.144 HD
ATOM     13  H   UNL     1       4.380  -4.927   1.386  0.00  0.00    +0.144 HD
ENDBRANCH   3  11
BRANCH   2  14
ATOM     14  C   UNL     1       0.652  -5.198   1.881  0.00  0.00    +0.128 C 
BRANCH  14  15
ATOM     15  C   UNL     1       0.166  -4.430   0.650  0.00  0.00    +0.021 C 
BRANCH  15  17
ATOM     16  C   UNL     1      -1.171  -4.587  -1.455  0.00  0.00    +0.004 C 
ATOM     17  C   UNL     1      -0.684  -5.355  -0.224  0.00  0.00    -0.002 C 
ENDBRANCH  15  17
ENDBRANCH  14  15
ENDBRANCH   2  14
ENDBRANCH   1   4
BRANCH   1  18
ATOM     18  C   UNL     1       5.892  -3.749   4.150  0.00  0.00    +0.141 C 
BRANCH  18  19
ATOM     19  C   UNL     1       6.312  -5.169   3.872  0.00  0.00    -0.030 A 
ATOM     20  C   UNL     1       5.526  -6.220   4.307  0.00  0.00    +0.005 A 
ATOM     21  C   UNL     1       5.912  -7.523   4.052  0.00  0.00    +0.000 A 
ATOM     22  C   UNL     1       7.082  -7.775   3.361  0.00  0.00    +0.000 A 
ATOM     23  C   UNL     1       7.867  -6.724   2.925  0.00  0.00    +0.000 A 
ATOM     24  C   UNL     1       7.479  -5.421   3.176  0.00  0.00    +0.005 A 
ENDBRANCH  18  19
ENDBRANCH   1  18
BRANCH   1  25
ATOM     25  C   UNL     1       5.499  -2.740   1.855  0.00  0.00    +0.186 C 
BRANCH  25  26
ATOM     26  C   UNL     1       5.797  -1.275   2.047  0.00  0.00    +0.196 C 
ATOM     27  O   UNL     1       5.588  -0.748   3.120  0.00  0.00    -0.289 OA
BRANCH  26  28
ATOM     28  C   UNL     1       6.319  -0.513   0.974  0.00  0.00    +0.088 A 
ATOM     29  C   UNL     1       6.639   0.827   1.013  0.00  0.00    -0.008 A 
ATOM     30  C   UNL     1       7.122   1.169  -0.268  0.00  0.00    +0.083 A 
ATOM     31  C   UNL     1       7.078   0.022  -1.042  0.00  0.00    +0.028 A 
ATOM     32  N   UNL     1       6.602  -0.983  -0.292  0.00  0.00    -0.355 N 
ATOM     33  H   UNL     1       6.475  -1.896  -0.594  0.00  0.00    +0.166 HD
ATOM     34  C   UNL     1       7.501  -0.081  -2.484  0.00  0.00    +0.064 C 
ATOM     35  C   UNL     1       6.500   1.750   2.197  0.00  0.00    +0.047 C 
BRANCH  30  36
ATOM     36  C   UNL     1       7.587   2.498  -0.701  0.00  0.00    +0.341 C 
ATOM     37  O   UNL     1       8.756   2.804  -0.576  0.00  0.00    -0.245 OA
BRANCH  36  38
ATOM     38  O   UNL     1       6.715   3.375  -1.236  0.00  0.00    -0.464 OA
ATOM     39  C   UNL     1       7.234   4.646  -1.634  0.00  0.00    +0.280 C 
ENDBRANCH  36  38
ENDBRANCH  30  36
ENDBRANCH  26  28
ENDBRANCH  25  26
ENDBRANCH   1  25
TORSDOF 12
