REMARK  Name = ZINC21239066
REMARK  11 active torsions:
REMARK  status: ('A' for Active; 'I' for Inactive)
REMARK    1  A    between atoms: C_1  and  C_2
REMARK    2  A    between atoms: C_2  and  O_3
REMARK    3  A    between atoms: O_3  and  C_4
REMARK    4  A    between atoms: C_6  and  C_11
REMARK    5  A    between atoms: C_9  and  O_10
REMARK    6  A    between atoms: C_16  and  C_21
REMARK    7  A    between atoms: C_24  and  O_27
REMARK    8  A    between atoms: O_27  and  C_28
REMARK    9  A    between atoms: C_28  and  C_29
REMARK   10  A    between atoms: C_29  and  C_30
REMARK   11  A    between atoms: C_29  and  C_31
REMARK                            x       y       z     vdW  Elec       q    Type
REMARK                         _______ _______ _______ _____ _____    ______ ____
ROOT
ATOM      1  C   UNL     1       3.671   2.193  -0.021  0.00  0.00    +0.136 C 
ATOM      2  C   UNL     1       3.965   2.649   1.389  0.00  0.00    +0.036 C 
ATOM      3  C   UNL     1       3.903   3.913   1.838  0.00  0.00    +0.017 C 
ATOM      4  C   UNL     1       4.188   4.224   3.298  0.00  0.00    +0.059 C 
ATOM      5  C   UNL     1       5.242   3.259   3.839  0.00  0.00    +0.032 C 
ATOM      6  C   UNL     1       4.687   1.836   3.699  0.00  0.00    +0.088 C 
ATOM      7  C   UNL     1       4.336   1.599   2.262  0.00  0.00    +0.163 C 
ATOM      8  O   UNL     1       4.371   0.463   1.830  0.00  0.00    -0.292 OA
ATOM      9  N   UNL     1       3.581   4.992   1.081  0.00  0.00    -0.316 N 
ATOM     10  C   UNL     1       2.503   5.052   0.204  0.00  0.00    +0.052 A 
ATOM     11  C   UNL     1       1.469   5.957   0.367  0.00  0.00    +0.025 A 
ATOM     12  C   UNL     1       0.481   6.040  -0.600  0.00  0.00    +0.002 A 
ATOM     13  C   UNL     1       0.528   5.225  -1.716  0.00  0.00    +0.002 A 
ATOM     14  C   UNL     1       1.551   4.305  -1.870  0.00  0.00    +0.025 A 
ATOM     15  C   UNL     1       2.532   4.208  -0.896  0.00  0.00    +0.049 A 
ATOM     16  N   UNL     1       3.556   3.267  -0.985  0.00  0.00    -0.331 N 
ATOM     17  H   UNL     1       4.193   5.905   1.136  0.00  0.00    +0.152 HD
ATOM     18  H   UNL     1       4.284   3.350  -1.805  0.00  0.00    +0.147 HD
ENDROOT
BRANCH   1  21
ATOM     19  C   UNL     1       1.196  -0.647  -0.308  0.00  0.00    +0.162 A 
ATOM     20  C   UNL     1       2.383   0.068  -0.315  0.00  0.00    +0.055 A 
ATOM     21  C   UNL     1       2.379   1.417  -0.013  0.00  0.00    -0.019 A 
ATOM     22  C   UNL     1       1.193   2.056   0.297  0.00  0.00    +0.009 A 
ATOM     23  C   UNL     1       0.005   1.348   0.305  0.00  0.00    +0.049 A 
ATOM     24  C   UNL     1       0.002  -0.004   0.004  0.00  0.00    +0.158 A 
BRANCH  24  25
ATOM     25  O   UNL     1      -1.165  -0.702   0.011  0.00  0.00    -0.503 OA
ATOM     26  H   UNL     1      -2.108  -0.193   0.258  0.00  0.00    +0.292 HD
ENDBRANCH  24  25
BRANCH  19  27
ATOM     27  O   UNL     1       1.199  -1.974  -0.605  0.00  0.00    -0.489 OA
BRANCH  27  29
ATOM     28  C   UNL     1       2.265  -4.054  -1.219  0.00  0.00    +0.048 C 
ATOM     29  C   UNL     1       2.461  -2.567  -0.915  0.00  0.00    +0.226 C 
ENDBRANCH  27  29
ENDBRANCH  19  27
ENDBRANCH   1  21
BRANCH   5  30
ATOM     30  C   UNL     1       5.515   3.562   5.290  0.00  0.00    -0.043 A 
ATOM     31  C   UNL     1       4.489   3.490   6.215  0.00  0.00    +0.007 A 
ATOM     32  C   UNL     1       4.738   3.762   7.546  0.00  0.00    +0.046 A 
ATOM     33  C   UNL     1       6.016   4.118   7.953  0.00  0.00    +0.121 A 
ATOM     34  C   UNL     1       7.042   4.194   7.022  0.00  0.00    +0.046 A 
ATOM     35  C   UNL     1       6.789   3.916   5.693  0.00  0.00    +0.007 A 
BRANCH  33  36
ATOM     36  O   UNL     1       6.262   4.390   9.261  0.00  0.00    -0.492 OA
BRANCH  36  37
ATOM     37  C   UNL     1       5.159   4.291  10.164  0.00  0.00    +0.232 C 
BRANCH  37  38
ATOM     38  C   UNL     1       5.626   4.632  11.580  0.00  0.00    +0.020 C 
ATOM     39  C   UNL     1       6.063   6.097  11.635  0.00  0.00    +0.010 C 
ATOM     40  C   UNL     1       4.477   4.405  12.565  0.00  0.00    +0.010 C 
ENDBRANCH  37  38
ENDBRANCH  36  37
ENDBRANCH  33  36
ENDBRANCH   5  30
TORSDOF 8
