REMARK  Name = ZINC08426701
REMARK  7 active torsions:
REMARK  status: ('A' for Active; 'I' for Inactive)
REMARK    1  A    between atoms: C_1  and  O_2
REMARK    2  A    between atoms: O_2  and  C_3
REMARK    3  A    between atoms: C_3  and  C_5
REMARK    4  A    between atoms: C_8  and  N_11
REMARK    5  A    between atoms: C_15  and  N_19
REMARK    6  A    between atoms: C_22  and  C_25
REMARK    7  A    between atoms: C_22  and  O_32
REMARK                            x       y       z     vdW  Elec       q    Type
REMARK                         _______ _______ _______ _____ _____    ______ ____
ROOT
ATOM      1  N   UNL     1       0.847  -6.248   1.256  0.00  0.00    -0.212 N 
ATOM      2  C   UNL     1       0.231  -7.034   0.364  0.00  0.00    +0.225 C 
ATOM      3  O   UNL     1      -0.430  -6.646  -0.575  0.00  0.00    -0.275 OA
ATOM      4  C   UNL     1       0.493  -8.483   0.713  0.00  0.00    +0.090 C 
ATOM      5  C   UNL     1       1.375  -8.398   1.975  0.00  0.00    +0.029 C 
ATOM      6  C   UNL     1       1.524  -6.909   2.203  0.00  0.00    +0.213 C 
ATOM      7  O   UNL     1       2.155  -6.396   3.103  0.00  0.00    -0.277 OA
ENDROOT
BRANCH   5   8
ATOM      8  N   UNL     1       2.685  -9.016   1.732  0.00  0.00    +0.388 N 
ATOM      9  C   UNL     1       2.500 -10.425   1.367  0.00  0.00    -0.075 C 
ATOM     10  C   UNL     1       3.855 -11.053   1.034  0.00  0.00    +0.021 C 
ATOM     11  C   UNL     1       4.770 -10.957   2.259  0.00  0.00    +0.088 C 
ATOM     12  C   UNL     1       4.896  -9.489   2.677  0.00  0.00    +0.021 C 
ATOM     13  C   UNL     1       3.502  -8.920   2.948  0.00  0.00    -0.075 C 
ATOM     14  H   UNL     1       3.150  -8.533   0.978  0.00  0.00    -0.081 HD
BRANCH  11  15
ATOM     15  C   UNL     1       6.132 -11.503   1.915  0.00  0.00    -0.016 A 
ATOM     16  C   UNL     1       6.609 -11.403   0.621  0.00  0.00    +0.007 A 
ATOM     17  C   UNL     1       7.858 -11.903   0.305  0.00  0.00    +0.015 A 
ATOM     18  C   UNL     1       8.631 -12.503   1.283  0.00  0.00    +0.018 A 
ATOM     19  C   UNL     1       8.153 -12.602   2.578  0.00  0.00    +0.015 A 
ATOM     20  C   UNL     1       6.906 -12.097   2.894  0.00  0.00    +0.007 A 
ATOM     21 BR   UNL     1      10.340 -13.187   0.851  0.00  0.00    -0.050 Br
ENDBRANCH  11  15
BRANCH  11  22
ATOM     22  O   UNL     1       4.208 -11.713   3.334  0.00  0.00    -0.384 OA
ATOM     23  H   UNL     1       4.737 -11.697   4.144  0.00  0.00    +0.211 HD
ENDBRANCH  11  22
ENDBRANCH   5   8
BRANCH   1  27
ATOM     24  C   UNL     1       0.680  -2.086   1.090  0.00  0.00    +0.059 A 
ATOM     25  C   UNL     1       1.888  -2.749   0.854  0.00  0.00    +0.017 A 
ATOM     26  C   UNL     1       1.939  -4.124   0.910  0.00  0.00    +0.025 A 
ATOM     27  C   UNL     1       0.791  -4.853   1.201  0.00  0.00    +0.044 A 
ATOM     28  C   UNL     1      -0.413  -4.197   1.436  0.00  0.00    +0.025 A 
ATOM     29  C   UNL     1      -0.470  -2.822   1.387  0.00  0.00    +0.017 A 
BRANCH  24  30
ATOM     30  C   UNL     1       0.622  -0.613   1.030  0.00  0.00    +0.339 C 
ATOM     31  O   UNL     1      -0.428  -0.038   1.240  0.00  0.00    -0.245 OA
BRANCH  30  33
ATOM     32  C   UNL     1       1.602   1.517   0.703  0.00  0.00    +0.280 C 
ATOM     33  O   UNL     1       1.732   0.095   0.744  0.00  0.00    -0.464 OA
ENDBRANCH  30  33
ENDBRANCH  24  30
ENDBRANCH   1  27
TORSDOF 6
