REMARK  Name = ZINC35469052
REMARK  8 active torsions:
REMARK  status: ('A' for Active; 'I' for Inactive)
REMARK    1  A    between atoms: C_1  and  C_2
REMARK    2  A    between atoms: C_2  and  C_3
REMARK    3  A    between atoms: C_3  and  C_5
REMARK    4  A    between atoms: C_3  and  C_6
REMARK    5  A    between atoms: C_9  and  C_12
REMARK    6  A    between atoms: C_12  and  C_14
REMARK    7  A    between atoms: C_12  and  N_21
REMARK    8  A    between atoms: N_21  and  C_22
REMARK                            x       y       z     vdW  Elec       q    Type
REMARK                         _______ _______ _______ _____ _____    ______ ____
ROOT
ATOM      1  C   UNL     1      -1.358  -6.295   0.456  0.00  0.00    -0.010 C 
ENDROOT
BRANCH   1   2
ATOM      2  C   UNL     1      -0.286  -6.711   1.430  0.00  0.00    -0.057 A 
ATOM      3  C   UNL     1      -0.527  -6.649   2.790  0.00  0.00    +0.003 A 
ATOM      4  C   UNL     1       0.456  -7.030   3.684  0.00  0.00    +0.014 A 
ATOM      5  C   UNL     1       1.680  -7.473   3.218  0.00  0.00    +0.013 A 
ATOM      6  C   UNL     1       1.921  -7.535   1.857  0.00  0.00    +0.014 A 
ATOM      7  C   UNL     1       0.936  -7.159   0.964  0.00  0.00    +0.003 A 
ATOM      8  I   UNL     1       3.170  -8.051   4.573  0.00  0.00    -0.044 I 
ENDBRANCH   1   2
BRANCH   1  12
ATOM      9  C   UNL     1      -1.414  -2.036   0.129  0.00  0.00    -0.045 A 
ATOM     10  C   UNL     1      -0.780  -2.795  -0.837  0.00  0.00    +0.004 A 
ATOM     11  C   UNL     1      -0.762  -4.173  -0.731  0.00  0.00    +0.002 A 
ATOM     12  C   UNL     1      -1.377  -4.792   0.341  0.00  0.00    -0.057 A 
ATOM     13  C   UNL     1      -2.010  -4.033   1.307  0.00  0.00    +0.002 A 
ATOM     14  C   UNL     1      -2.024  -2.655   1.203  0.00  0.00    +0.004 A 
BRANCH   9  15
ATOM     15  C   UNL     1      -1.433  -0.534   0.013  0.00  0.00    +0.016 C 
ATOM     16  C   UNL     1      -2.135  -0.131  -1.286  0.00  0.00    +0.012 C 
BRANCH  15  18
ATOM     17  C   UNL     1      -0.019   1.526   0.010  0.00  0.00    +0.004 C 
ATOM     18  C   UNL     1       0.002  -0.004   0.002  0.00  0.00    +0.004 C 
ENDBRANCH  15  18
ENDBRANCH   9  15
ENDBRANCH   1  12
BRANCH   1  19
ATOM     19  N   UNL     1      -2.664  -6.766   0.935  0.00  0.00    +0.384 N 
ATOM     20  C   UNL     1      -3.692  -6.466  -0.072  0.00  0.00    -0.099 C 
ATOM     21  H   UNL     1      -2.627  -7.762   1.090  0.00  0.00    -0.085 HD
ATOM     22  H   UNL     1      -2.894  -6.299   1.799  0.00  0.00    -0.085 HD
ENDBRANCH   1  19
TORSDOF 5
