REMARK  Name = ZINC39710545
REMARK  14 active torsions:
REMARK  status: ('A' for Active; 'I' for Inactive)
REMARK    1  A    between atoms: C_1  and  C_2
REMARK    2  A    between atoms: C_2  and  C_3
REMARK    3  A    between atoms: C_10  and  C_15
REMARK    4  A    between atoms: C_15  and  C_17
REMARK    5  A    between atoms: C_15  and  N_27
REMARK    6  A    between atoms: N_22  and  C_23
REMARK    7  A    between atoms: C_23  and  C_24
REMARK    8  A    between atoms: C_23  and  C_25
REMARK    9  A    between atoms: C_23  and  C_26
REMARK   10  A    between atoms: N_27  and  C_28
REMARK   11  A    between atoms: N_27  and  C_36
REMARK   12  A    between atoms: C_28  and  C_29
REMARK   13  A    between atoms: C_29  and  C_30
REMARK   14  A    between atoms: C_36  and  C_37
REMARK                            x       y       z     vdW  Elec       q    Type
REMARK                         _______ _______ _______ _____ _____    ______ ____
ROOT
ATOM      1  C   UNL     1       0.734  -0.946   6.958  0.00  0.00    +0.115 C 
ENDROOT
BRANCH   1   9
ATOM      2  C   UNL     1       1.949   0.166   1.360  0.00  0.00    -0.047 A 
ATOM      3  C   UNL     1       3.273  -0.245   1.515  0.00  0.00    +0.005 A 
ATOM      4  C   UNL     1       3.709  -0.912   2.616  0.00  0.00    +0.024 A 
ATOM      5  C   UNL     1       2.821  -1.219   3.663  0.00  0.00    +0.040 A 
ATOM      6  N   UNL     1       3.260  -1.873   4.738  0.00  0.00    -0.284 N 
ATOM      7  C   UNL     1       2.480  -2.194   5.757  0.00  0.00    +0.226 C 
ATOM      8  O   UNL     1       2.938  -2.792   6.712  0.00  0.00    -0.275 OA
ATOM      9  C   UNL     1       1.017  -1.813   5.730  0.00  0.00    +0.119 C 
ATOM     10  C   UNL     1       0.513  -1.069   4.509  0.00  0.00    -0.003 C 
ATOM     11  C   UNL     1       1.417  -0.797   3.525  0.00  0.00    -0.007 A 
ATOM     12  C   UNL     1       1.016  -0.078   2.316  0.00  0.00    +0.013 A 
ATOM     13  H   UNL     1       4.196  -2.126   4.775  0.00  0.00    +0.155 HD
BRANCH   2  15
ATOM     14  C   UNL     1       1.733   2.406   0.318  0.00  0.00    +0.009 C 
ATOM     15  C   UNL     1       1.548   0.902   0.107  0.00  0.00    +0.032 C 
ENDBRANCH   2  15
ENDBRANCH   1   9
BRANCH   1  16
ATOM     16  C   UNL     1       1.214  -1.671   8.216  0.00  0.00    +0.236 C 
ATOM     17  N   UNL     1       0.554  -2.978   8.338  0.00  0.00    -0.148 NA
ATOM     18  N   UNL     1      -0.099  -2.999   9.383  0.00  0.00    -0.069 NA
ATOM     19  N   UNL     1      -0.009  -1.808  10.104  0.00  0.00    -0.179 N 
ATOM     20  N   UNL     1       0.802  -0.931   9.428  0.00  0.00    -0.179 NA
ATOM     21  H   UNL     1      -0.449  -1.629  10.949  0.00  0.00    +0.191 HD
BRANCH  20  22
ATOM     22  C   UNL     1       1.969  -0.557  10.238  0.00  0.00    +0.035 C 
ATOM     23  C   UNL     1       2.944   0.255   9.384  0.00  0.00    +0.029 C 
ATOM     24  C   UNL     1       1.512   0.285  11.431  0.00  0.00    +0.029 C 
ATOM     25  C   UNL     1       2.665  -1.822  10.744  0.00  0.00    +0.029 C 
ENDBRANCH  20  22
ENDBRANCH   1  16
BRANCH   1  26
ATOM     26  N   UNL     1       1.446   0.333   6.828  0.00  0.00    -0.290 NA
BRANCH  26  27
ATOM     27  C   UNL     1       2.811   0.127   6.325  0.00  0.00    +0.090 C 
BRANCH  27  28
ATOM     28  C   UNL     1       3.645   1.383   6.584  0.00  0.00    +0.050 C 
BRANCH  28  29
ATOM     29  C   UNL     1       5.007   1.219   5.961  0.00  0.00    -0.046 A 
ATOM     30  C   UNL     1       6.038   0.658   6.691  0.00  0.00    +0.003 A 
ATOM     31  C   UNL     1       7.288   0.507   6.120  0.00  0.00    +0.000 A 
ATOM     32  C   UNL     1       7.506   0.917   4.817  0.00  0.00    +0.000 A 
ATOM     33  C   UNL     1       6.475   1.477   4.087  0.00  0.00    +0.000 A 
ATOM     34  C   UNL     1       5.224   1.624   4.657  0.00  0.00    +0.003 A 
ENDBRANCH  28  29
ENDBRANCH  27  28
ENDBRANCH  26  27
BRANCH  26  35
ATOM     35  C   UNL     1       0.703   1.264   5.969  0.00  0.00    +0.127 C 
BRANCH  35  36
ATOM     36  C   UNL     1      -0.479   1.812   6.726  0.00  0.00    +0.004 A 
ATOM     37  C   UNL     1      -0.581   2.966   7.430  0.00  0.00    +0.012 A 
ATOM     38  C   UNL     1      -1.778   3.269   8.051  0.00  0.00    +0.008 A 
ATOM     39  C   UNL     1      -2.815   2.403   7.937  0.00  0.00    +0.045 A 
ATOM     40  S   UNL     1      -2.110   1.114   6.923  0.00  0.00    -0.100 S 
ENDBRANCH  35  36
ENDBRANCH  26  35
ENDBRANCH   1  26
TORSDOF 10
