REMARK  Name = ZINC06014928
REMARK  13 active torsions:
REMARK  status: ('A' for Active; 'I' for Inactive)
REMARK    1  A    between atoms: C_1  and  C_2
REMARK    2  A    between atoms: C_2  and  C_3
REMARK    3  A    between atoms: C_2  and  C_4
REMARK    4  A    between atoms: C_2  and  N_5
REMARK    5  A    between atoms: C_6  and  C_10
REMARK    6  A    between atoms: C_10  and  C_12
REMARK    7  A    between atoms: C_10  and  N_67
REMARK    8  A    between atoms: C_16  and  O_24
REMARK    9  A    between atoms: O_24  and  C_25
REMARK   10  A    between atoms: C_26  and  C_27
REMARK   11  A    between atoms: C_26  and  N_67
REMARK   12  A    between atoms: C_33  and  C_34
REMARK   13  A    between atoms: C_33  and  N_67
REMARK                            x       y       z     vdW  Elec       q    Type
REMARK                         _______ _______ _______ _____ _____    ______ ____
ROOT
ATOM      1  C   UNL     1       2.876   1.541  -0.576  0.00  0.00    +0.040 C 
ENDROOT
BRANCH   1   2
ATOM      2  C   UNL     1       1.391   1.772  -0.689  0.00  0.00    +0.011 A 
ATOM      3  C   UNL     1       0.526   0.883  -0.142  0.00  0.00    +0.017 A 
ATOM      4  C   UNL     1      -0.911   1.134  -0.274  0.00  0.00    +0.002 A 
ATOM      5  C   UNL     1      -1.850   0.248   0.264  0.00  0.00    +0.055 A 
ATOM      6  C   UNL     1      -3.197   0.514   0.121  0.00  0.00    +0.121 A 
ATOM      7  C   UNL     1      -3.621   1.657  -0.554  0.00  0.00    +0.047 A 
ATOM      8  C   UNL     1      -2.705   2.542  -1.078  0.00  0.00    +0.030 A 
ATOM      9  C   UNL     1      -1.343   2.290  -0.950  0.00  0.00    +0.049 A 
ATOM     10  N   UNL     1      -0.410   3.156  -1.484  0.00  0.00    -0.322 N 
ATOM     11  H   UNL     1      -0.718   3.975  -1.967  0.00  0.00    +0.169 HD
ATOM     12  C   UNL     1       0.907   2.914  -1.362  0.00  0.00    +0.251 A 
ATOM     13  O   UNL     1       1.702   3.700  -1.847  0.00  0.00    -0.268 OA
BRANCH   6  14
ATOM     14  O   UNL     1      -4.115  -0.343   0.642  0.00  0.00    -0.495 OA
ATOM     15  C   UNL     1      -5.492  -0.009   0.460  0.00  0.00    +0.277 C 
ENDBRANCH   6  14
ENDBRANCH   1   2
BRANCH   1  17
ATOM     16  N   UNL     1       4.077   2.328   1.532  0.00  0.00    -0.225 N 
ATOM     17  C   UNL     1       3.475   2.566   0.352  0.00  0.00    +0.143 A 
ATOM     18  N   UNL     1       3.507   3.864   0.169  0.00  0.00    -0.115 NA
ATOM     19  N   UNL     1       4.102   4.394   1.181  0.00  0.00    -0.023 NA
ATOM     20  N   UNL     1       4.450   3.468   2.005  0.00  0.00    -0.043 NA
BRANCH  16  22
ATOM     21  C   UNL     1       5.109   0.130   1.235  0.00  0.00    +0.036 C 
ATOM     22  C   UNL     1       4.273   1.018   2.159  0.00  0.00    +0.059 C 
ATOM     23  C   UNL     1       5.003   1.196   3.493  0.00  0.00    +0.036 C 
ATOM     24  C   UNL     1       2.914   0.361   2.406  0.00  0.00    +0.036 C 
ENDBRANCH  16  22
ENDBRANCH   1  17
BRANCH   1  25
ATOM     25  N   UNL     1       3.482   1.686  -1.917  0.00  0.00    +0.395 N 
ATOM     26  H   UNL     1       3.104   2.529  -2.364  0.00  0.00    -0.079 HD
BRANCH  25  27
ATOM     27  C   UNL     1       4.949   1.824  -1.796  0.00  0.00    -0.041 C 
BRANCH  27  28
ATOM     28  C   UNL     1       5.516   2.189  -3.143  0.00  0.00    -0.064 A 
ATOM     29  C   UNL     1       5.928   1.196  -4.012  0.00  0.00    +0.002 A 
ATOM     30  C   UNL     1       6.444   1.531  -5.250  0.00  0.00    +0.000 A 
ATOM     31  C   UNL     1       6.556   2.859  -5.616  0.00  0.00    +0.000 A 
ATOM     32  C   UNL     1       6.148   3.852  -4.745  0.00  0.00    +0.000 A 
ATOM     33  C   UNL     1       5.628   3.517  -3.509  0.00  0.00    +0.002 A 
ENDBRANCH  27  28
ENDBRANCH  25  27
BRANCH  25  34
ATOM     34  C   UNL     1       3.152   0.511  -2.750  0.00  0.00    -0.034 C 
BRANCH  34  35
ATOM     35  C   UNL     1       1.754   0.678  -3.287  0.00  0.00    -0.027 A 
ATOM     36  C   UNL     1       1.310   1.500  -4.269  0.00  0.00    +0.009 A 
ATOM     37  C   UNL     1      -0.032   1.484  -4.600  0.00  0.00    +0.008 A 
ATOM     38  C   UNL     1      -0.864   0.646  -3.933  0.00  0.00    +0.045 A 
ATOM     39  S   UNL     1       0.256  -0.162  -2.801  0.00  0.00    -0.103 S 
ENDBRANCH  34  35
ENDBRANCH  25  34
ENDBRANCH   1  25
TORSDOF 9
