REMARK  Name = ZINC34756299
REMARK  5 active torsions:
REMARK  status: ('A' for Active; 'I' for Inactive)
REMARK    1  A    between atoms: C_6  and  C_7
REMARK    2  A    between atoms: C_7  and  S_8
REMARK    3  A    between atoms: S_8  and  C_9
REMARK    4  A    between atoms: N_25  and  C_28
REMARK    5  A    between atoms: C_28  and  C_29
REMARK                            x       y       z     vdW  Elec       q    Type
REMARK                         _______ _______ _______ _____ _____    ______ ____
ROOT
ATOM      1  C   UNL     1      -3.328  -1.985  -1.518  0.00  0.00    +0.191 A 
ATOM      2  N   UNL     1      -3.988  -2.371  -2.603  0.00  0.00    -0.206 NA
ATOM      3  C   UNL     1      -5.129  -3.036  -2.533  0.00  0.00    +0.134 A 
ATOM      4  C   UNL     1      -5.672  -3.351  -1.255  0.00  0.00    +0.051 A 
ATOM      5  C   UNL     1      -6.909  -4.070  -0.939  0.00  0.00    -0.025 A 
ATOM      6  C   UNL     1      -7.201  -4.238   0.366  0.00  0.00    -0.004 A 
ATOM      7  S   UNL     1      -5.869  -3.464   1.243  0.00  0.00    -0.073 S 
ATOM      8  C   UNL     1      -4.919  -2.911  -0.149  0.00  0.00    +0.115 A 
ATOM      9  N   UNL     1      -3.784  -2.255  -0.302  0.00  0.00    -0.215 NA
ATOM     10  C   UNL     1      -8.396  -4.931   0.947  0.00  0.00    +0.043 C 
ATOM     11  C   UNL     1      -9.443  -5.104  -0.163  0.00  0.00    +0.005 C 
ATOM     12  C   UNL     1      -8.750  -5.672  -1.406  0.00  0.00    +0.005 C 
ATOM     13  C   UNL     1      -7.838  -4.610  -2.022  0.00  0.00    +0.037 C 
ATOM     14  N   UNL     1      -5.787  -3.421  -3.686  0.00  0.00    -0.318 N 
ATOM     15  C   UNL     1      -6.864  -2.596  -4.254  0.00  0.00    +0.088 C 
ATOM     16  C   UNL     1      -6.575  -2.377  -5.743  0.00  0.00    -0.059 C 
ATOM     17  N   UNL     1      -6.395  -3.677  -6.402  0.00  0.00    +0.387 N 
ATOM     18  C   UNL     1      -5.207  -4.351  -5.864  0.00  0.00    -0.059 C 
ATOM     19  C   UNL     1      -5.425  -4.665  -4.384  0.00  0.00    +0.088 C 
ATOM     20  H   UNL     1      -7.209  -4.251  -6.239  0.00  0.00    -0.081 HD
ENDROOT
BRANCH   1  21
ATOM     21  S   UNL     1      -1.814  -1.102  -1.696  0.00  0.00    -0.081 S 
BRANCH  21  22
ATOM     22  C   UNL     1      -1.280  -0.797   0.011  0.00  0.00    +0.112 C 
BRANCH  22  28
ATOM     23  C   UNL     1       0.017   1.344   0.002  0.00  0.00    +0.006 A 
ATOM     24  C   UNL     1       1.210   2.040  -0.005  0.00  0.00    +0.020 A 
ATOM     25  C   UNL     1       2.412   1.353  -0.013  0.00  0.00    +0.041 A 
ATOM     26  C   UNL     1       2.417  -0.030  -0.013  0.00  0.00    +0.020 A 
ATOM     27  C   UNL     1       1.222  -0.726  -0.006  0.00  0.00    +0.006 A 
ATOM     28  C   UNL     1       0.022  -0.039   0.002  0.00  0.00    -0.037 A 
ATOM     29 CL   UNL     1       3.912   2.227  -0.023  0.00  0.00    -0.084 Cl
ENDBRANCH  22  28
ENDBRANCH  21  22
ENDBRANCH   1  21
BRANCH  17  30
ATOM     30  C   UNL     1      -6.228  -3.472  -7.847  0.00  0.00    +0.018 C 
BRANCH  30  31
ATOM     31  C   UNL     1      -6.166  -4.809  -8.540  0.00  0.00    +0.194 C 
ATOM     32  O   UNL     1      -6.254  -5.831  -7.894  0.00  0.00    -0.278 OA
ATOM     33  N   UNL     1      -6.014  -4.868  -9.878  0.00  0.00    -0.331 N 
ATOM     34  H   UNL     1      -5.944  -4.050 -10.395  0.00  0.00    +0.145 HD
ATOM     35  H   UNL     1      -5.975  -5.728 -10.324  0.00  0.00    +0.145 HD
ENDBRANCH  30  31
ENDBRANCH  17  30
TORSDOF 5
