REMARK  Name = ZINC39659293
REMARK  7 active torsions:
REMARK  status: ('A' for Active; 'I' for Inactive)
REMARK    1  A    between atoms: C_1  and  C_2
REMARK    2  A    between atoms: C_2  and  C_32
REMARK    3  A    between atoms: C_5  and  C_8
REMARK    4  A    between atoms: C_8  and  N_9
REMARK    5  A    between atoms: C_10  and  C_12
REMARK    6  A    between atoms: C_23  and  C_25
REMARK    7  A    between atoms: C_25  and  C_31
REMARK                            x       y       z     vdW  Elec       q    Type
REMARK                         _______ _______ _______ _____ _____    ______ ____
ROOT
ATOM      1  C   UNL     1       3.667  -1.039   5.671  0.00  0.00    +0.100 C 
ATOM      2  C   UNL     1       2.187  -0.832   6.066  0.00  0.00    +0.121 C 
ATOM      3  N   UNL     1       1.832  -2.046   6.838  0.00  0.00    -0.300 N 
ATOM      4  C   UNL     1       3.037  -2.328   7.655  0.00  0.00    +0.115 C 
ATOM      5  C   UNL     1       4.221  -2.019   6.719  0.00  0.00    -0.004 C 
ATOM      6  C   UNL     1       5.358  -1.368   7.502  0.00  0.00    -0.010 C 
ATOM      7  C   UNL     1       5.932  -2.381   8.497  0.00  0.00    -0.082 C 
ATOM      8  N   UNL     1       6.423  -3.558   7.771  0.00  0.00    +0.379 N 
ATOM      9  C   UNL     1       5.306  -4.232   7.096  0.00  0.00    -0.082 C 
ATOM     10  C   UNL     1       4.706  -3.298   6.042  0.00  0.00    -0.010 C 
ATOM     11  C   UNL     1       0.675  -2.737   6.805  0.00  0.00    +0.222 C 
ATOM     12  O   UNL     1      -0.196  -2.424   6.022  0.00  0.00    -0.275 OA
ATOM     13  H   UNL     1       7.104  -3.269   7.085  0.00  0.00    -0.086 HD
ATOM     14  H   UNL     1       6.855  -4.197   8.422  0.00  0.00    -0.086 HD
ENDROOT
BRANCH  11  15
ATOM     15  C   UNL     1       0.465  -3.898   7.743  0.00  0.00    +0.044 C 
ATOM     16  C   UNL     1       1.429  -5.029   7.379  0.00  0.00    +0.016 C 
ATOM     17  C   UNL     1       1.167  -5.480   5.941  0.00  0.00    +0.001 C 
ATOM     18  C   UNL     1      -0.275  -5.979   5.818  0.00  0.00    +0.000 C 
ATOM     19  C   UNL     1      -1.239  -4.849   6.182  0.00  0.00    +0.001 C 
ATOM     20  C   UNL     1      -0.976  -4.397   7.620  0.00  0.00    +0.016 C 
ATOM     21  C   UNL     1       0.727  -3.447   9.181  0.00  0.00    +0.021 C 
ENDBRANCH  11  15
BRANCH   1  23
ATOM     22  N   UNL     1       4.834  -1.375   3.516  0.00  0.00    -0.312 N 
ATOM     23  C   UNL     1       3.763  -1.637   4.291  0.00  0.00    +0.218 C 
ATOM     24  O   UNL     1       2.876  -2.354   3.877  0.00  0.00    -0.275 OA
ATOM     25  H   UNL     1       5.543  -0.802   3.847  0.00  0.00    +0.149 HD
BRANCH  22  26
ATOM     26  C   UNL     1       4.927  -1.957   2.175  0.00  0.00    +0.138 C 
BRANCH  26  31
ATOM     27  C   UNL     1       8.494   0.487   0.660  0.00  0.00    +0.074 C 
ATOM     28  C   UNL     1       7.113   0.090   0.134  0.00  0.00    +0.165 C 
ATOM     29  O   UNL     1       7.209  -1.146  -0.586  0.00  0.00    -0.347 OA
ATOM     30  C   UNL     1       6.365  -2.101   0.089  0.00  0.00    +0.196 C 
ATOM     31  C   UNL     1       6.231  -1.505   1.513  0.00  0.00    +0.164 C 
ATOM     32  O   UNL     1       6.208  -0.084   1.236  0.00  0.00    -0.342 OA
ATOM     33  C   UNL     1       6.585   1.183  -0.798  0.00  0.00    +0.074 C 
ENDBRANCH  26  31
ENDBRANCH  22  26
ENDBRANCH   1  23
TORSDOF 4
