REMARK  Name = ZINC64044037
REMARK  9 active torsions:
REMARK  status: ('A' for Active; 'I' for Inactive)
REMARK    1  A    between atoms: C_1  and  C_2
REMARK    2  A    between atoms: C_4  and  C_24
REMARK    3  A    between atoms: C_6  and  C_9
REMARK    4  A    between atoms: C_14  and  N_15
REMARK    5  A    between atoms: C_16  and  C_18
REMARK    6  A    between atoms: C_24  and  N_25
REMARK    7  A    between atoms: C_26  and  C_28
REMARK    8  A    between atoms: C_28  and  C_29
REMARK    9  A    between atoms: C_29  and  C_30
REMARK                            x       y       z     vdW  Elec       q    Type
REMARK                         _______ _______ _______ _____ _____    ______ ____
ROOT
ATOM      1  C   UNL     1      -0.010   1.522  -0.000  0.00  0.00    +0.044 C 
ATOM      2  C   UNL     1       0.003  -0.008   0.001  0.00  0.00    +0.164 C 
ATOM      3  C   UNL     1       0.737  -0.529  -1.215  0.00  0.00    +0.062 C 
ATOM      4  N   UNL     1       1.909  -0.897  -0.856  0.00  0.00    -0.253 NA
ATOM      5  C   UNL     1       2.081  -0.669   0.584  0.00  0.00    +0.268 C 
ATOM      6  O   UNL     1       0.754  -0.503   1.128  0.00  0.00    -0.342 OA
ENDROOT
BRANCH   5   7
ATOM      7  C   UNL     1       2.757  -1.856   1.220  0.00  0.00    +0.024 A 
ATOM      8  C   UNL     1       2.869  -3.043   0.523  0.00  0.00    +0.010 A 
ATOM      9  C   UNL     1       3.490  -4.133   1.106  0.00  0.00    +0.001 A 
ATOM     10  C   UNL     1       4.001  -4.037   2.387  0.00  0.00    +0.002 A 
ATOM     11  C   UNL     1       3.893  -2.853   3.089  0.00  0.00    +0.024 A 
ATOM     12  C   UNL     1       3.274  -1.755   2.505  0.00  0.00    +0.041 A 
BRANCH  12  13
ATOM     13  N   UNL     1       3.168  -0.552   3.211  0.00  0.00    -0.283 N 
ATOM     14  C   UNL     1       4.046  -0.267   4.193  0.00  0.00    +0.246 C 
ATOM     15  O   UNL     1       4.987  -1.004   4.398  0.00  0.00    -0.273 OA
ATOM     16  H   UNL     1       2.462   0.077   2.994  0.00  0.00    +0.155 HD
BRANCH  14  17
ATOM     17  C   UNL     1       3.859   0.968   5.036  0.00  0.00    +0.204 C 
ATOM     18  C   UNL     1       4.020   2.229   4.160  0.00  0.00    +0.043 C 
ATOM     19  C   UNL     1       4.794   3.190   5.105  0.00  0.00    +0.031 C 
ATOM     20  C   UNL     1       5.682   2.186   5.882  0.00  0.00    +0.161 C 
ATOM     21  O   UNL     1       4.863   1.016   6.057  0.00  0.00    -0.367 OA
ENDBRANCH  14  17
ENDBRANCH  12  13
ENDBRANCH   5   7
BRANCH   3  22
ATOM     22  C   UNL     1       0.182  -0.603  -2.614  0.00  0.00    +0.157 C 
BRANCH  22  23
ATOM     23  N   UNL     1       1.194  -1.165  -3.512  0.00  0.00    -0.310 N 
ATOM     24  C   UNL     1       0.918  -1.325  -4.821  0.00  0.00    +0.214 C 
ATOM     25  O   UNL     1      -0.168  -1.005  -5.256  0.00  0.00    -0.276 OA
ATOM     26  H   UNL     1       2.062  -1.421  -3.164  0.00  0.00    +0.149 HD
BRANCH  24  27
ATOM     27  C   UNL     1       1.959  -1.903  -5.745  0.00  0.00    +0.100 C 
BRANCH  27  28
ATOM     28  C   UNL     1       1.395  -1.978  -7.165  0.00  0.00    +0.042 C 
BRANCH  28  29
ATOM     29  C   UNL     1       2.436  -2.556  -8.089  0.00  0.00    -0.041 C 
ATOM     30  C   UNL     1       2.562  -3.849  -8.465  0.00  0.00    -0.001 A 
ATOM     31  C   UNL     1       1.798  -5.059  -8.136  0.00  0.00    +0.010 A 
ATOM     32  C   UNL     1       2.174  -6.239  -8.679  0.00  0.00    +0.001 A 
ATOM     33  C   UNL     1       3.273  -6.336  -9.544  0.00  0.00    +0.002 A 
ATOM     34  C   UNL     1       4.023  -5.270  -9.892  0.00  0.00    +0.026 A 
ATOM     35  C   UNL     1       3.718  -3.978  -9.381  0.00  0.00    +0.043 A 
ATOM     36  N   UNL     1       4.284  -2.810  -9.565  0.00  0.00    -0.380 N 
ATOM     37  C   UNL     1       3.546  -1.806  -8.790  0.00  0.00    +0.144 C 
ATOM     38  H   UNL     1       5.058  -2.638 -10.123  0.00  0.00    +0.160 HD
ENDBRANCH  28  29
ENDBRANCH  27  28
ENDBRANCH  24  27
ENDBRANCH  22  23
ENDBRANCH   3  22
TORSDOF 8
