REMARK  Name = ZINC39637490
REMARK  6 active torsions:
REMARK  status: ('A' for Active; 'I' for Inactive)
REMARK    1  A    between atoms: C_1  and  C_2
REMARK    2  A    between atoms: C_7  and  N_12
REMARK    3  A    between atoms: C_9  and  C_11
REMARK    4  A    between atoms: C_13  and  C_15
REMARK    5  A    between atoms: C_26  and  C_28
REMARK    6  A    between atoms: C_31  and  C_33
REMARK                            x       y       z     vdW  Elec       q    Type
REMARK                         _______ _______ _______ _____ _____    ______ ____
ROOT
ATOM      1  C   UNL     1      -2.287  -4.298   1.743  0.00  0.00    +0.100 C 
ATOM      2  C   UNL     1      -3.149  -3.495   2.743  0.00  0.00    +0.121 C 
ATOM      3  N   UNL     1      -4.051  -4.501   3.352  0.00  0.00    -0.294 N 
ATOM      4  C   UNL     1      -3.197  -5.699   3.533  0.00  0.00    +0.115 C 
ATOM      5  C   UNL     1      -2.320  -5.744   2.266  0.00  0.00    -0.004 C 
ATOM      6  C   UNL     1      -0.911  -6.212   2.616  0.00  0.00    -0.010 C 
ATOM      7  C   UNL     1      -0.962  -7.671   3.078  0.00  0.00    -0.082 C 
ATOM      8  N   UNL     1      -1.525  -8.505   2.008  0.00  0.00    +0.379 N 
ATOM      9  C   UNL     1      -2.913  -8.108   1.742  0.00  0.00    -0.082 C 
ATOM     10  C   UNL     1      -2.944  -6.668   1.224  0.00  0.00    -0.010 C 
ATOM     11  C   UNL     1      -5.353  -4.359   3.670  0.00  0.00    +0.282 C 
ATOM     12  O   UNL     1      -5.962  -5.286   4.169  0.00  0.00    -0.267 OA
ATOM     13  H   UNL     1      -0.976  -8.389   1.169  0.00  0.00    -0.086 HD
ATOM     14  H   UNL     1      -1.501  -9.473   2.291  0.00  0.00    -0.086 HD
ENDROOT
BRANCH  11  15
ATOM     15  C   UNL     1      -6.034  -3.087   3.414  0.00  0.00    +0.190 A 
ATOM     16  C   UNL     1      -7.354  -2.806   3.693  0.00  0.00    +0.055 A 
ATOM     17  C   UNL     1      -7.580  -1.486   3.289  0.00  0.00    +0.050 A 
ATOM     18  C   UNL     1      -6.403  -1.015   2.783  0.00  0.00    +0.136 A 
ATOM     19  O   UNL     1      -5.478  -1.985   2.868  0.00  0.00    -0.450 OA
BRANCH  18  20
ATOM     20  C   UNL     1      -6.182   0.340   2.237  0.00  0.00    +0.017 A 
ATOM     21  C   UNL     1      -7.226   1.266   2.214  0.00  0.00    +0.011 A 
ATOM     22  C   UNL     1      -7.013   2.530   1.703  0.00  0.00    +0.001 A 
ATOM     23  C   UNL     1      -5.767   2.880   1.214  0.00  0.00    +0.000 A 
ATOM     24  C   UNL     1      -4.727   1.967   1.234  0.00  0.00    +0.001 A 
ATOM     25  C   UNL     1      -4.925   0.702   1.747  0.00  0.00    +0.011 A 
ENDBRANCH  18  20
ENDBRANCH  11  15
BRANCH   1  27
ATOM     26  N   UNL     1      -0.139  -3.841   0.604  0.00  0.00    -0.312 N 
ATOM     27  C   UNL     1      -0.873  -3.776   1.733  0.00  0.00    +0.218 C 
ATOM     28  O   UNL     1      -0.396  -3.298   2.740  0.00  0.00    -0.275 OA
ATOM     29  H   UNL     1      -0.521  -4.224  -0.201  0.00  0.00    +0.149 HD
BRANCH  26  35
ATOM     30  C   UNL     1       1.913  -3.774  -3.171  0.00  0.00    +0.008 C 
ATOM     31  C   UNL     1       1.525  -4.167  -1.744  0.00  0.00    -0.009 C 
ATOM     32  C   UNL     1       2.474  -5.255  -1.239  0.00  0.00    +0.003 C 
ATOM     33  C   UNL     1       2.086  -5.648   0.188  0.00  0.00    +0.002 C 
ATOM     34  C   UNL     1       2.184  -4.423   1.099  0.00  0.00    +0.022 C 
ATOM     35  C   UNL     1       1.235  -3.334   0.594  0.00  0.00    +0.076 C 
ATOM     36  C   UNL     1       1.623  -2.941  -0.833  0.00  0.00    +0.009 C 
ATOM     37  C   UNL     1       0.674  -1.853  -1.339  0.00  0.00    +0.009 C 
ENDBRANCH  26  35
ENDBRANCH   1  27
TORSDOF 4
