REMARK  Name = ZINC09133918
REMARK  9 active torsions:
REMARK  status: ('A' for Active; 'I' for Inactive)
REMARK    1  A    between atoms: C_1  and  C_2
REMARK    2  A    between atoms: C_2  and  C_30
REMARK    3  A    between atoms: N_11  and  C_22
REMARK    4  A    between atoms: N_14  and  C_15
REMARK    5  A    between atoms: C_15  and  C_16
REMARK    6  A    between atoms: C_22  and  C_23
REMARK    7  A    between atoms: N_25  and  C_26
REMARK    8  A    between atoms: C_26  and  C_27
REMARK    9  A    between atoms: C_27  and  N_57
REMARK                            x       y       z     vdW  Elec       q    Type
REMARK                         _______ _______ _______ _____ _____    ______ ____
ROOT
ATOM      1  C   UNL     1      -3.621   9.532  -4.477  0.00  0.00    +0.041 C 
ATOM      2  C   UNL     1      -2.574   8.785  -5.306  0.00  0.00    +0.068 C 
ATOM      3  C   UNL     1      -2.859   7.281  -5.247  0.00  0.00    +0.071 C 
ATOM      4  C   UNL     1      -2.540   6.796  -3.838  0.00  0.00    -0.018 A 
ATOM      5  C   UNL     1      -1.775   7.554  -3.023  0.00  0.00    +0.021 A 
ATOM      6  S   UNL     1      -1.664   6.631  -1.519  0.00  0.00    -0.073 S 
ATOM      7  C   UNL     1      -2.619   5.267  -1.966  0.00  0.00    +0.097 A 
ATOM      8  C   UNL     1      -3.013   5.532  -3.279  0.00  0.00    +0.074 A 
ATOM      9  C   UNL     1      -3.858   4.498  -3.916  0.00  0.00    +0.266 A 
ATOM     10  O   UNL     1      -4.254   4.644  -5.057  0.00  0.00    -0.267 OA
ATOM     11  N   UNL     1      -4.184   3.396  -3.218  0.00  0.00    -0.251 N 
ATOM     12  C   UNL     1      -3.763   3.204  -1.957  0.00  0.00    +0.334 A 
ATOM     13  O   UNL     1      -4.084   2.189  -1.370  0.00  0.00    -0.246 OA
ATOM     14  N   UNL     1      -2.992   4.114  -1.331  0.00  0.00    -0.283 N 
ATOM     15  C   UNL     1      -1.172   8.882  -3.362  0.00  0.00    +0.203 C 
ATOM     16  O   UNL     1      -1.272   9.061  -4.784  0.00  0.00    -0.368 OA
ATOM     17  C   UNL     1      -2.648   9.256  -6.760  0.00  0.00    +0.041 C 
ENDROOT
BRANCH  14  18
ATOM     18  C   UNL     1      -2.553   3.869   0.045  0.00  0.00    +0.162 C 
BRANCH  18  19
ATOM     19  C   UNL     1      -1.238   3.133   0.030  0.00  0.00    -0.028 A 
ATOM     20  C   UNL     1      -1.219   1.751   0.017  0.00  0.00    +0.005 A 
ATOM     21  C   UNL     1      -0.013   1.076   0.008  0.00  0.00    +0.000 A 
ATOM     22  C   UNL     1       1.175   1.783   0.000  0.00  0.00    +0.000 A 
ATOM     23  C   UNL     1       1.156   3.165   0.008  0.00  0.00    +0.000 A 
ATOM     24  C   UNL     1      -0.050   3.840   0.022  0.00  0.00    +0.005 A 
ENDBRANCH  18  19
ENDBRANCH  14  18
BRANCH  11  25
ATOM     25  C   UNL     1      -5.021   2.374  -3.852  0.00  0.00    +0.225 C 
BRANCH  25  26
ATOM     26  C   UNL     1      -6.472   2.675  -3.582  0.00  0.00    +0.233 C 
ATOM     27  O   UNL     1      -6.778   3.648  -2.925  0.00  0.00    -0.274 OA
ATOM     28  N   UNL     1      -7.431   1.864  -4.071  0.00  0.00    -0.316 N 
ATOM     29  H   UNL     1      -7.187   1.087  -4.597  0.00  0.00    +0.149 HD
BRANCH  28  30
ATOM     30  C   UNL     1      -8.842   2.157  -3.808  0.00  0.00    +0.085 C 
BRANCH  30  31
ATOM     31  C   UNL     1      -9.717   1.091  -4.471  0.00  0.00    -0.067 C 
BRANCH  31  34
ATOM     32  H   UNL     1     -11.372   2.313  -4.519  0.00  0.00    -0.090 HD
ATOM     33  H   UNL     1     -11.730   0.693  -4.634  0.00  0.00    -0.090 HD
ATOM     34  N   UNL     1     -11.132   1.383  -4.182  0.00  0.00    +0.379 N 
ATOM     35  H   UNL     1     -11.284   1.344  -3.167  0.00  0.00    -0.090 HD
ENDBRANCH  31  34
ENDBRANCH  30  31
ENDBRANCH  28  30
ENDBRANCH  25  26
ENDBRANCH  11  25
TORSDOF 7
