REMARK  Name = ZINC04912977
REMARK  3 active torsions:
REMARK  status: ('A' for Active; 'I' for Inactive)
REMARK    1  A    between atoms: C_1  and  O_2
REMARK    2  A    between atoms: O_2  and  C_3
REMARK    3  A    between atoms: C_6  and  C_10
REMARK                            x       y       z     vdW  Elec       q    Type
REMARK                         _______ _______ _______ _____ _____    ______ ____
ROOT
ATOM      1  C   UNL     1       1.288   2.110   0.001  0.00  0.00    +0.063 C 
ATOM      2  C   UNL     1       2.317   1.344   0.837  0.00  0.00    +0.109 C 
ATOM      3  C   UNL     1       2.332  -0.096   0.388  0.00  0.00    +0.218 C 
ATOM      4  O   UNL     1       3.366  -0.729   0.412  0.00  0.00    -0.275 OA
ATOM      5  N   UNL     1       1.197  -0.678  -0.040  0.00  0.00    -0.289 N 
ATOM      6  C   UNL     1       0.002  -0.004   0.002  0.00  0.00    +0.018 C 
ATOM      7  C   UNL     1      -0.016   1.346   0.009  0.00  0.00    +0.020 C 
ATOM      8  C   UNL     1      -1.224   2.061   0.019  0.00  0.00    +0.161 C 
ATOM      9  O   UNL     1      -1.200   3.276   0.025  0.00  0.00    -0.292 OA
ATOM     10  C   UNL     1      -2.549   1.346   0.031  0.00  0.00    +0.080 C 
ATOM     11  C   UNL     1      -2.389  -0.010  -0.665  0.00  0.00    +0.014 C 
ATOM     12  C   UNL     1      -1.281  -0.795   0.041  0.00  0.00    +0.051 C 
ATOM     13  H   UNL     1       1.223  -1.585  -0.382  0.00  0.00    +0.155 HD
ENDROOT
BRANCH   1  17
ATOM     14  C   UNL     1       0.680   5.991   1.685  0.00  0.00    +0.134 A 
ATOM     15  C   UNL     1       0.425   4.857   2.442  0.00  0.00    +0.047 A 
ATOM     16  C   UNL     1       0.617   3.604   1.894  0.00  0.00    +0.008 A 
ATOM     17  C   UNL     1       1.074   3.479   0.595  0.00  0.00    -0.038 A 
ATOM     18  C   UNL     1       1.330   4.607  -0.162  0.00  0.00    +0.023 A 
ATOM     19  C   UNL     1       1.134   5.864   0.380  0.00  0.00    +0.060 A 
ATOM     20 BR   UNL     1       1.484   7.406  -0.656  0.00  0.00    -0.047 Br
BRANCH  14  22
ATOM     21  C   UNL     1       0.018   7.281   3.570  0.00  0.00    +0.277 C 
ATOM     22  O   UNL     1       0.486   7.225   2.221  0.00  0.00    -0.494 OA
ENDBRANCH  14  22
ENDBRANCH   1  17
TORSDOF 2
