REMARK  Name = ZINC02246605
REMARK  9 active torsions:
REMARK  status: ('A' for Active; 'I' for Inactive)
REMARK    1  A    between atoms: C_1  and  C_2
REMARK    2  A    between atoms: N_8  and  C_9
REMARK    3  A    between atoms: C_9  and  C_10
REMARK    4  A    between atoms: C_10  and  N_48
REMARK    5  A    between atoms: C_11  and  N_48
REMARK    6  A    between atoms: C_12  and  N_48
REMARK    7  A    between atoms: C_13  and  C_21
REMARK    8  A    between atoms: C_15  and  C_19
REMARK    9  A    between atoms: C_16  and  N_18
REMARK                            x       y       z     vdW  Elec       q    Type
REMARK                         _______ _______ _______ _____ _____    ______ ____
ROOT
ATOM      1  C   UNL     1      -0.018   1.503   0.010  0.00  0.00    +0.064 C 
ATOM      2  C   UNL     1       0.002  -0.004   0.002  0.00  0.00    +0.022 A 
ATOM      3  C   UNL     1      -0.006  -0.664  -1.176  0.00  0.00    +0.068 A 
ATOM      4  C   UNL     1       0.018  -2.074  -1.190  0.00  0.00    +0.141 A 
ATOM      5  C   UNL     1       0.038  -2.753   0.010  0.00  0.00    +0.072 A 
ATOM      6  C   UNL     1       0.041  -2.026   1.208  0.00  0.00    +0.259 A 
ATOM      7  O   UNL     1       0.058  -2.614   2.278  0.00  0.00    -0.267 OA
ATOM      8  N   UNL     1       0.022  -0.680   1.180  0.00  0.00    -0.314 N 
ATOM      9  C   UNL     1       0.060  -4.256   0.043  0.00  0.00    +0.106 C 
ATOM     10  C   UNL     1      -0.344  -4.808  -1.296  0.00  0.00    +0.098 C 
ATOM     11  C   UNL     1      -0.343  -4.031  -2.405  0.00  0.00    +0.199 C 
ATOM     12  O   UNL     1       0.015  -2.736  -2.366  0.00  0.00    -0.441 OA
ENDROOT
BRANCH   9  13
ATOM     13  C   UNL     1       1.450  -4.729   0.380  0.00  0.00    +0.002 A 
ATOM     14  C   UNL     1       2.512  -4.401  -0.444  0.00  0.00    +0.046 A 
ATOM     15  C   UNL     1       3.789  -4.830  -0.130  0.00  0.00    +0.020 A 
ATOM     16  C   UNL     1       4.003  -5.597   1.000  0.00  0.00    +0.003 A 
ATOM     17  C   UNL     1       2.942  -5.930   1.820  0.00  0.00    +0.020 A 
ATOM     18  C   UNL     1       1.665  -5.497   1.511  0.00  0.00    +0.046 A 
ATOM     19 CL   UNL     1       0.332  -5.915   2.542  0.00  0.00    -0.083 Cl
ATOM     20 CL   UNL     1       2.242  -3.444  -1.867  0.00  0.00    -0.083 Cl
ENDBRANCH   9  13
BRANCH  11  21
ATOM     21  N   UNL     1      -0.719  -4.582  -3.605  0.00  0.00    -0.328 N 
ATOM     22  H   UNL     1      -0.724  -4.038  -4.408  0.00  0.00    +0.145 HD
ATOM     23  H   UNL     1      -0.980  -5.516  -3.650  0.00  0.00    +0.145 HD
ENDBRANCH  11  21
BRANCH  10  24
ATOM     24  C   UNL     1      -0.736  -6.182  -1.401  0.00  0.00    +0.101 C 
ATOM     25  N   UNL     1      -1.046  -7.271  -1.484  0.00  0.00    -0.191 NA
ENDBRANCH  10  24
BRANCH   8  26
ATOM     26  C   UNL     1       0.024   0.067   2.441  0.00  0.00    +0.106 C 
BRANCH  26  27
ATOM     27  C   UNL     1      -1.417   0.307   2.893  0.00  0.00    -0.058 C 
BRANCH  27  30
ATOM     28  C   UNL     1      -0.879   2.410   3.965  0.00  0.00    -0.097 C 
ATOM     29  C   UNL     1      -2.761   1.102   4.744  0.00  0.00    -0.097 C 
ATOM     30  N   UNL     1      -1.398   1.042   4.175  0.00  0.00    +0.377 N 
ATOM     31  H   UNL     1      -0.783   0.549   4.833  0.00  0.00    -0.083 HD
ENDBRANCH  27  30
ENDBRANCH  26  27
ENDBRANCH   8  26
TORSDOF 6
