REMARK  Name = ZINC40596414
REMARK  6 active torsions:
REMARK  status: ('A' for Active; 'I' for Inactive)
REMARK    1  A    between atoms: C_1  and  C_2
REMARK    2  A    between atoms: C_2  and  N_3
REMARK    3  A    between atoms: C_5  and  N_21
REMARK    4  A    between atoms: C_6  and  N_10
REMARK    5  A    between atoms: N_10  and  N_11
REMARK    6  A    between atoms: C_12  and  C_14
REMARK                            x       y       z     vdW  Elec       q    Type
REMARK                         _______ _______ _______ _____ _____    ______ ____
ROOT
ATOM      1  N   UNL     1       0.711  -0.489   1.189  0.00  0.00    -0.327 N 
ATOM      2  C   UNL     1       0.858  -1.852   1.400  0.00  0.00    +0.154 A 
ATOM      3  C   UNL     1       1.524  -2.324   2.526  0.00  0.00    +0.206 A 
ATOM      4  C   UNL     1       1.645  -3.700   2.692  0.00  0.00    +0.171 A 
ATOM      5  N   UNL     1       1.122  -4.510   1.773  0.00  0.00    -0.217 NA
ATOM      6  C   UNL     1       0.498  -4.024   0.720  0.00  0.00    +0.225 A 
ATOM      7  N   UNL     1       0.359  -2.728   0.529  0.00  0.00    -0.218 NA
ATOM      8  H   UNL     1       1.077   0.142   1.827  0.00  0.00    +0.148 HD
ENDROOT
BRANCH   3   9
ATOM      9  N   UNL     1       2.090  -1.386   3.523  0.00  0.00    +0.063 N 
ATOM     10  O   UNL     1       1.417  -1.019   4.457  0.00  0.00    -0.126 OA
ATOM     11  O   UNL     1       3.225  -0.988   3.401  0.00  0.00    -0.126 OA
ENDBRANCH   3   9
BRANCH   1  13
ATOM     12  C   UNL     1      -0.019   1.526   0.010  0.00  0.00    +0.024 C 
ATOM     13  C   UNL     1       0.002  -0.004   0.002  0.00  0.00    +0.099 C 
ENDBRANCH   1  13
BRANCH   4  14
ATOM     14  N   UNL     1       2.300  -4.220   3.798  0.00  0.00    -0.246 N 
ATOM     15  H   UNL     1       2.678  -3.624   4.463  0.00  0.00    +0.172 HD
BRANCH  14  16
ATOM     16  N   UNL     1       2.415  -5.608   3.954  0.00  0.00    -0.231 N 
ATOM     17  C   UNL     1       3.052  -6.114   5.029  0.00  0.00    +0.260 C 
ATOM     18  O   UNL     1       3.526  -5.366   5.862  0.00  0.00    -0.269 OA
ATOM     19  H   UNL     1       2.037  -6.204   3.290  0.00  0.00    +0.173 HD
BRANCH  17  20
ATOM     20  C   UNL     1       3.174  -7.577   5.195  0.00  0.00    +0.038 A 
ATOM     21  C   UNL     1       2.636  -8.438   4.236  0.00  0.00    +0.014 A 
ATOM     22  C   UNL     1       2.753  -9.803   4.396  0.00  0.00    +0.016 A 
ATOM     23  C   UNL     1       3.403 -10.320   5.505  0.00  0.00    +0.018 A 
ATOM     24  C   UNL     1       3.939  -9.471   6.458  0.00  0.00    +0.016 A 
ATOM     25  C   UNL     1       3.833  -8.104   6.307  0.00  0.00    +0.014 A 
ATOM     26 BR   UNL     1       3.558 -12.193   5.716  0.00  0.00    -0.050 Br
ENDBRANCH  17  20
ENDBRANCH  14  16
ENDBRANCH   4  14
TORSDOF 5
