REMARK  Name = ZINC15687614
REMARK  13 active torsions:
REMARK  status: ('A' for Active; 'I' for Inactive)
REMARK    1  A    between atoms: C_1  and  C_2
REMARK    2  A    between atoms: C_2  and  C_4
REMARK    3  A    between atoms: C_2  and  N_7
REMARK    4  A    between atoms: C_4  and  O_5
REMARK    5  A    between atoms: O_5  and  C_6
REMARK    6  A    between atoms: N_7  and  S_8
REMARK    7  A    between atoms: S_8  and  C_11
REMARK    8  A    between atoms: C_14  and  N_17
REMARK    9  A    between atoms: C_18  and  C_20
REMARK   10  A    between atoms: C_20  and  S_21
REMARK   11  A    between atoms: S_21  and  C_22
REMARK   12  A    between atoms: C_25  and  C_31
REMARK   13  A    between atoms: C_27  and  N_28
REMARK                            x       y       z     vdW  Elec       q    Type
REMARK                         _______ _______ _______ _____ _____    ______ ____
ROOT
ATOM      1  N   UNL     1      -0.242   1.246   2.466  0.00  0.00    -0.285 N 
ATOM      2  C   UNL     1       0.428   0.076   2.486  0.00  0.00    +0.227 C 
ATOM      3  O   UNL     1       0.457  -0.589   3.500  0.00  0.00    -0.275 OA
ATOM      4  H   UNL     1      -0.209   1.810   1.677  0.00  0.00    +0.155 HD
ENDROOT
BRANCH   1   8
ATOM      5  C   UNL     1      -2.449   2.440   5.791  0.00  0.00    +0.105 A 
ATOM      6  C   UNL     1      -1.267   1.743   5.962  0.00  0.00    +0.030 A 
ATOM      7  C   UNL     1      -0.532   1.346   4.861  0.00  0.00    +0.025 A 
ATOM      8  C   UNL     1      -0.983   1.647   3.583  0.00  0.00    +0.034 A 
ATOM      9  C   UNL     1      -2.168   2.352   3.415  0.00  0.00    +0.025 A 
ATOM     10  C   UNL     1      -2.901   2.740   4.519  0.00  0.00    +0.030 A 
BRANCH   5  11
ATOM     11  S   UNL     1      -3.383   2.945   7.198  0.00  0.00    +0.059 S 
ATOM     12  O   UNL     1      -4.725   3.104   6.758  0.00  0.00    -0.153 OA
ATOM     13  O   UNL     1      -3.027   2.068   8.257  0.00  0.00    -0.153 OA
BRANCH  11  14
ATOM     14  N   UNL     1      -2.844   4.450   7.628  0.00  0.00    -0.185 NA
ATOM     15  H   UNL     1      -2.400   4.581   8.481  0.00  0.00    +0.148 HD
BRANCH  14  17
ATOM     16  C   UNL     1      -1.781   5.779   5.871  0.00  0.00    +0.028 C 
ATOM     17  C   UNL     1      -3.038   5.585   6.722  0.00  0.00    +0.099 C 
BRANCH  17  18
ATOM     18  C   UNL     1      -3.300   6.851   7.539  0.00  0.00    +0.179 C 
BRANCH  18  19
ATOM     19  O   UNL     1      -2.138   7.174   8.305  0.00  0.00    -0.381 OA
ATOM     20  C   UNL     1      -2.279   8.347   9.109  0.00  0.00    +0.194 C 
ENDBRANCH  18  19
ENDBRANCH  17  18
ENDBRANCH  14  17
ENDBRANCH  11  14
ENDBRANCH   5  11
ENDBRANCH   1   8
BRANCH   2  21
ATOM     21  C   UNL     1       1.140  -0.405   1.248  0.00  0.00    +0.170 C 
BRANCH  21  22
ATOM     22  S   UNL     1       1.940  -1.997   1.592  0.00  0.00    -0.114 S 
BRANCH  22  23
ATOM     23  C   UNL     1       2.719  -2.420   0.069  0.00  0.00    +0.039 A 
ATOM     24  C   UNL     1       2.611  -1.568  -1.028  0.00  0.00    +0.018 A 
ATOM     25  C   UNL     1       3.212  -1.891  -2.210  0.00  0.00    +0.014 A 
ATOM     26  C   UNL     1       3.939  -3.080  -2.324  0.00  0.00    +0.039 A 
ATOM     27  C   UNL     1       4.050  -3.937  -1.225  0.00  0.00    +0.047 A 
ATOM     28  C   UNL     1       3.446  -3.604  -0.034  0.00  0.00    +0.140 A 
BRANCH  26  29
ATOM     29  C   UNL     1       4.588  -3.429  -3.602  0.00  0.00    +0.242 C 
ATOM     30  O   UNL     1       5.221  -4.463  -3.700  0.00  0.00    -0.270 OA
ATOM     31  N   UNL     1       4.481  -2.602  -4.661  0.00  0.00    -0.325 N 
ATOM     32  H   UNL     1       3.976  -1.777  -4.582  0.00  0.00    +0.145 HD
ATOM     33  H   UNL     1       4.908  -2.832  -5.501  0.00  0.00    +0.145 HD
ENDBRANCH  26  29
BRANCH  28  34
ATOM     34  N   UNL     1       3.565  -4.505   1.134  0.00  0.00    +0.058 N 
ATOM     35  O   UNL     1       4.202  -5.539   1.043  0.00  0.00    -0.126 OA
ATOM     36  O   UNL     1       3.027  -4.211   2.187  0.00  0.00    -0.126 OA
ENDBRANCH  28  34
ENDBRANCH  22  23
ENDBRANCH  21  22
ENDBRANCH   2  21
TORSDOF 11
