REMARK  Name = ZINC38638343
REMARK  10 active torsions:
REMARK  status: ('A' for Active; 'I' for Inactive)
REMARK    1  A    between atoms: C_1  and  C_2
REMARK    2  A    between atoms: C_2  and  C_3
REMARK    3  A    between atoms: C_3  and  N_5
REMARK    4  A    between atoms: C_3  and  N_15
REMARK    5  A    between atoms: N_5  and  C_6
REMARK    6  A    between atoms: C_11  and  C_14
REMARK    7  A    between atoms: C_16  and  C_18
REMARK    8  A    between atoms: C_20  and  N_35
REMARK    9  A    between atoms: C_23  and  N_24
REMARK   10  A    between atoms: N_35  and  C_36
REMARK                            x       y       z     vdW  Elec       q    Type
REMARK                         _______ _______ _______ _____ _____    ______ ____
ROOT
ATOM      1  C   UNL     1      -0.450   0.786  -4.605  0.00  0.00    +0.060 A 
ATOM      2  C   UNL     1      -1.828   0.869  -4.449  0.00  0.00    +0.038 A 
ATOM      3  C   UNL     1      -2.624   1.375  -5.477  0.00  0.00    +0.039 A 
ATOM      4  C   UNL     1      -2.038   1.804  -6.673  0.00  0.00    +0.056 A 
ATOM      5  C   UNL     1      -0.640   1.724  -6.839  0.00  0.00    +0.056 A 
ATOM      6  C   UNL     1       0.154   1.219  -5.802  0.00  0.00    +0.049 A 
ATOM      7  C   UNL     1      -0.019   2.172  -8.095  0.00  0.00    +0.196 C 
ATOM      8  O   UNL     1       1.186   2.102  -8.237  0.00  0.00    -0.287 OA
ATOM      9  C   UNL     1      -0.862   2.708  -9.184  0.00  0.00    +0.033 A 
ATOM     10  C   UNL     1      -0.283   3.134 -10.376  0.00  0.00    +0.012 A 
ATOM     11  C   UNL     1      -1.080   3.634 -11.390  0.00  0.00    +0.001 A 
ATOM     12  C   UNL     1      -2.452   3.714 -11.228  0.00  0.00    +0.001 A 
ATOM     13  C   UNL     1      -3.044   3.296 -10.051  0.00  0.00    +0.012 A 
ATOM     14  C   UNL     1      -2.256   2.789  -9.020  0.00  0.00    +0.033 A 
ATOM     15  C   UNL     1      -2.880   2.338  -7.759  0.00  0.00    +0.196 C 
ATOM     16  O   UNL     1      -4.085   2.408  -7.616  0.00  0.00    -0.287 OA
ENDROOT
BRANCH   1  18
ATOM     17  N   UNL     1      -0.179  -0.076  -2.331  0.00  0.00    -0.325 N 
ATOM     18  C   UNL     1       0.385   0.249  -3.511  0.00  0.00    +0.244 C 
ATOM     19  O   UNL     1       1.580   0.100  -3.676  0.00  0.00    -0.270 OA
ATOM     20  H   UNL     1      -1.133   0.043  -2.200  0.00  0.00    +0.147 HD
BRANCH  17  21
ATOM     21  C   UNL     1       0.649  -0.609  -1.246  0.00  0.00    +0.016 C 
BRANCH  21  22
ATOM     22  N   UNL     1       0.403  -2.051  -1.106  0.00  0.00    +0.393 N 
ATOM     23  H   UNL     1       0.899  -2.400  -0.300  0.00  0.00    -0.083 HD
ATOM     24  H   UNL     1      -0.586  -2.213  -0.988  0.00  0.00    -0.083 HD
BRANCH  22  25
ATOM     25  C   UNL     1       0.873  -2.748  -2.310  0.00  0.00    -0.069 C 
ATOM     26  C   UNL     1       0.478  -4.224  -2.233  0.00  0.00    -0.016 C 
ATOM     27  C   UNL     1       0.969  -4.949  -3.487  0.00  0.00    -0.001 C 
ATOM     28  C   UNL     1       2.491  -4.833  -3.582  0.00  0.00    +0.003 C 
ATOM     29  C   UNL     1       2.886  -3.357  -3.659  0.00  0.00    -0.016 C 
ATOM     30  C   UNL     1       2.396  -2.631  -2.405  0.00  0.00    -0.013 C 
ATOM     31  C   UNL     1       4.409  -3.241  -3.753  0.00  0.00    +0.007 C 
ENDBRANCH  22  25
ENDBRANCH  21  22
BRANCH  21  33
ATOM     32  C   UNL     1       0.549   1.600  -0.084  0.00  0.00    +0.004 C 
ATOM     33  C   UNL     1       0.292   0.099   0.062  0.00  0.00    -0.001 C 
ENDBRANCH  21  33
ENDBRANCH  17  21
ENDBRANCH   1  18
BRANCH   6  34
ATOM     34  N   UNL     1       1.524   1.142  -5.954  0.00  0.00    -0.357 N 
ATOM     35  H   UNL     1       2.016   0.406  -5.557  0.00  0.00    +0.142 HD
ATOM     36  H   UNL     1       1.996   1.823  -6.459  0.00  0.00    +0.142 HD
ENDBRANCH   6  34
BRANCH   3  37
ATOM     37  N   UNL     1      -4.000   1.454  -5.312  0.00  0.00    -0.346 N 
ATOM     38  C   UNL     1      -4.601   1.140  -4.014  0.00  0.00    +0.125 C 
ATOM     39  H   UNL     1      -4.563   1.717  -6.057  0.00  0.00    +0.146 HD
ENDBRANCH   3  37
TORSDOF 7
