REMARK  Name = ZINC63375914
REMARK  3 active torsions:
REMARK  status: ('A' for Active; 'I' for Inactive)
REMARK    1  A    between atoms: C_4  and  N_7
REMARK    2  A    between atoms: C_12  and  C_30
REMARK    3  A    between atoms: C_30  and  C_31
REMARK                            x       y       z     vdW  Elec       q    Type
REMARK                         _______ _______ _______ _____ _____    ______ ____
ROOT
ATOM      1  N   UNL     1       3.624  -0.652  -0.037  0.00  0.00    -0.210 N 
ATOM      2  C   UNL     1       4.801  -0.025  -0.139  0.00  0.00    +0.232 C 
ATOM      3  O   UNL     1       4.950   1.175  -0.225  0.00  0.00    -0.274 OA
ATOM      4  C   UNL     1       5.917  -1.045  -0.128  0.00  0.00    +0.107 C 
ATOM      5  C   UNL     1       6.583  -1.081  -1.520  0.00  0.00    +0.072 C 
ATOM      6  N   UNL     1       6.713  -2.527  -1.843  0.00  0.00    -0.295 NA
ATOM      7  C   UNL     1       5.467  -3.125  -1.328  0.00  0.00    +0.136 C 
ATOM      8  C   UNL     1       5.164  -2.398   0.005  0.00  0.00    +0.123 C 
ATOM      9  C   UNL     1       3.710  -1.984   0.052  0.00  0.00    +0.233 C 
ATOM     10  O   UNL     1       2.769  -2.742   0.153  0.00  0.00    -0.274 OA
ATOM     11  C   UNL     1       4.341  -2.985  -2.312  0.00  0.00    +0.005 A 
ATOM     12  C   UNL     1       3.728  -1.903  -2.904  0.00  0.00    +0.008 A 
ATOM     13  C   UNL     1       2.689  -2.097  -3.796  0.00  0.00    +0.002 A 
ATOM     14  C   UNL     1       2.267  -3.380  -4.093  0.00  0.00    +0.022 A 
ATOM     15  C   UNL     1       2.877  -4.468  -3.502  0.00  0.00    +0.062 A 
ATOM     16  C   UNL     1       3.925  -4.281  -2.602  0.00  0.00    +0.057 A 
ATOM     17  N   UNL     1       4.690  -5.205  -1.886  0.00  0.00    -0.282 N 
ATOM     18  C   UNL     1       5.618  -4.607  -1.115  0.00  0.00    +0.243 C 
ATOM     19  O   UNL     1       6.420  -5.156  -0.389  0.00  0.00    -0.273 OA
ATOM     20 CL   UNL     1       2.339  -6.075  -3.881  0.00  0.00    -0.082 Cl
ATOM     21  H   UNL     1       6.798  -2.670  -2.838  0.00  0.00    +0.124 HD
ATOM     22  H   UNL     1       4.567  -6.166  -1.939  0.00  0.00    +0.155 HD
ENDROOT
BRANCH   1  26
ATOM     23  C   UNL     1      -0.016   1.380   0.011  0.00  0.00    +0.000 A 
ATOM     24  C   UNL     1       0.416   0.711   1.142  0.00  0.00    +0.002 A 
ATOM     25  C   UNL     1       1.622   0.037   1.129  0.00  0.00    +0.024 A 
ATOM     26  C   UNL     1       2.399   0.031  -0.021  0.00  0.00    +0.044 A 
ATOM     27  C   UNL     1       1.963   0.703  -1.155  0.00  0.00    +0.024 A 
ATOM     28  C   UNL     1       0.756   1.375  -1.135  0.00  0.00    +0.002 A 
ENDBRANCH   1  26
BRANCH   5  29
ATOM     29  C   UNL     1       7.961  -0.419  -1.469  0.00  0.00    +0.052 C 
BRANCH  29  30
ATOM     30  C   UNL     1       8.540  -0.355  -2.859  0.00  0.00    -0.040 C 
ATOM     31  C   UNL     1       8.476   0.686  -3.720  0.00  0.00    -0.001 A 
ATOM     32  C   UNL     1       7.872   2.020  -3.623  0.00  0.00    +0.010 A 
ATOM     33  C   UNL     1       7.974   2.864  -4.675  0.00  0.00    +0.001 A 
ATOM     34  C   UNL     1       8.641   2.498  -5.852  0.00  0.00    +0.002 A 
ATOM     35  C   UNL     1       9.222   1.290  -6.015  0.00  0.00    +0.026 A 
ATOM     36  C   UNL     1       9.176   0.324  -4.973  0.00  0.00    +0.043 A 
ATOM     37  N   UNL     1       9.653  -0.895  -4.891  0.00  0.00    -0.380 N 
ATOM     38  C   UNL     1       9.315  -1.441  -3.572  0.00  0.00    +0.144 C 
ATOM     39  H   UNL     1      10.149  -1.356  -5.585  0.00  0.00    +0.160 HD
ENDBRANCH  29  30
ENDBRANCH   5  29
TORSDOF 3
