REMARK  Name = ZINC39636657
REMARK  7 active torsions:
REMARK  status: ('A' for Active; 'I' for Inactive)
REMARK    1  A    between atoms: C_1  and  C_2
REMARK    2  A    between atoms: C_5  and  C_37
REMARK    3  A    between atoms: C_6  and  C_8
REMARK    4  A    between atoms: C_8  and  N_9
REMARK    5  A    between atoms: C_10  and  C_12
REMARK    6  A    between atoms: C_23  and  C_25
REMARK    7  A    between atoms: C_28  and  C_30
REMARK                            x       y       z     vdW  Elec       q    Type
REMARK                         _______ _______ _______ _____ _____    ______ ____
ROOT
ATOM      1  C   UNL     1       3.085  -4.431   4.205  0.00  0.00    +0.100 C 
ATOM      2  C   UNL     1       3.539  -5.502   3.187  0.00  0.00    +0.121 C 
ATOM      3  N   UNL     1       4.348  -6.455   3.983  0.00  0.00    -0.294 N 
ATOM      4  C   UNL     1       3.623  -6.569   5.271  0.00  0.00    +0.115 C 
ATOM      5  C   UNL     1       3.141  -5.136   5.571  0.00  0.00    -0.004 C 
ATOM      6  C   UNL     1       1.754  -5.168   6.206  0.00  0.00    -0.010 C 
ATOM      7  C   UNL     1       1.846  -5.821   7.588  0.00  0.00    -0.082 C 
ATOM      8  N   UNL     1       2.774  -5.058   8.431  0.00  0.00    +0.379 N 
ATOM      9  C   UNL     1       4.126  -5.110   7.861  0.00  0.00    -0.082 C 
ATOM     10  C   UNL     1       4.131  -4.427   6.491  0.00  0.00    -0.010 C 
ATOM     11  C   UNL     1       5.486  -7.078   3.618  0.00  0.00    +0.282 C 
ATOM     12  O   UNL     1       6.038  -7.840   4.390  0.00  0.00    -0.267 OA
ATOM     13  H   UNL     1       2.469  -4.098   8.482  0.00  0.00    -0.086 HD
ATOM     14  H   UNL     1       2.787  -5.454   9.359  0.00  0.00    -0.086 HD
ENDROOT
BRANCH  11  15
ATOM     15  C   UNL     1       6.059  -6.837   2.291  0.00  0.00    +0.190 A 
ATOM     16  C   UNL     1       7.209  -7.409   1.790  0.00  0.00    +0.055 A 
ATOM     17  C   UNL     1       7.382  -6.903   0.499  0.00  0.00    +0.051 A 
ATOM     18  C   UNL     1       6.343  -6.049   0.260  0.00  0.00    +0.139 A 
ATOM     19  O   UNL     1       5.551  -6.021   1.344  0.00  0.00    -0.450 OA
BRANCH  18  20
ATOM     20  C   UNL     1       6.125  -5.287  -0.986  0.00  0.00    +0.052 A 
ATOM     21  C   UNL     1       7.165  -4.538  -1.542  0.00  0.00    +0.014 A 
ATOM     22  C   UNL     1       6.955  -3.828  -2.705  0.00  0.00    +0.001 A 
ATOM     23  C   UNL     1       5.716  -3.856  -3.324  0.00  0.00    +0.003 A 
ATOM     24  C   UNL     1       4.681  -4.594  -2.780  0.00  0.00    +0.039 A 
ATOM     25  C   UNL     1       4.878  -5.315  -1.618  0.00  0.00    +0.134 A 
ATOM     26  F   UNL     1       3.868  -6.041  -1.091  0.00  0.00    -0.205 F 
ENDBRANCH  18  20
ENDBRANCH  11  15
BRANCH   1  28
ATOM     27  N   UNL     1       1.283  -2.737   4.232  0.00  0.00    -0.311 N 
ATOM     28  C   UNL     1       1.679  -3.983   3.903  0.00  0.00    +0.218 C 
ATOM     29  O   UNL     1       0.902  -4.743   3.364  0.00  0.00    -0.275 OA
ATOM     30  H   UNL     1       1.904  -2.129   4.664  0.00  0.00    +0.149 HD
BRANCH  27  31
ATOM     31  C   UNL     1      -0.084  -2.301   3.939  0.00  0.00    +0.139 C 
BRANCH  31  37
ATOM     32  C   UNL     1      -1.764   0.963   7.340  0.00  0.00    +0.044 C 
ATOM     33  C   UNL     1      -1.073   0.682   6.030  0.00  0.00    -0.050 A 
ATOM     34  C   UNL     1      -0.609   1.728   5.255  0.00  0.00    +0.003 A 
ATOM     35  C   UNL     1       0.024   1.471   4.054  0.00  0.00    +0.004 A 
ATOM     36  C   UNL     1       0.194   0.166   3.628  0.00  0.00    -0.046 A 
ATOM     37  C   UNL     1      -0.269  -0.880   4.403  0.00  0.00    -0.027 A 
ATOM     38  C   UNL     1      -0.899  -0.622   5.607  0.00  0.00    +0.008 A 
ATOM     39  C   UNL     1       0.883  -0.115   2.318  0.00  0.00    +0.044 C 
ENDBRANCH  31  37
ENDBRANCH  27  31
ENDBRANCH   1  28
TORSDOF 5
