REMARK  Name = ZINC04199114
REMARK  17 active torsions:
REMARK  status: ('A' for Active; 'I' for Inactive)
REMARK    1  A    between atoms: C_1  and  C_2
REMARK    2  A    between atoms: C_2  and  C_29
REMARK    3  A    between atoms: C_3  and  C_4
REMARK    4  A    between atoms: C_4  and  C_5
REMARK    5  A    between atoms: C_5  and  C_6
REMARK    6  A    between atoms: C_6  and  C_28
REMARK    7  A    between atoms: C_7  and  C_8
REMARK    8  A    between atoms: C_8  and  C_9
REMARK    9  A    between atoms: C_9  and  C_10
REMARK   10  A    between atoms: C_10  and  C_27
REMARK   11  A    between atoms: C_11  and  C_25
REMARK   12  A    between atoms: C_11  and  O_26
REMARK   13  A    between atoms: N_12  and  C_16
REMARK   14  A    between atoms: C_18  and  C_23
REMARK   15  A    between atoms: C_18  and  C_24
REMARK   16  A    between atoms: C_19  and  C_21
REMARK   17  A    between atoms: C_19  and  C_22
REMARK                            x       y       z     vdW  Elec       q    Type
REMARK                         _______ _______ _______ _____ _____    ______ ____
ROOT
ATOM      1  C   UNL     1       3.116   2.527   0.577  0.00  0.00    +0.158 C 
ATOM      2  C   UNL     1       1.907   1.647   0.951  0.00  0.00    +0.175 C 
ATOM      3  N   UNL     1       0.811   2.613   1.124  0.00  0.00    -0.233 N 
ATOM      4  C   UNL     1       1.280   3.847   0.891  0.00  0.00    +0.406 C 
ATOM      5  O   UNL     1       0.587   4.843   0.959  0.00  0.00    -0.226 OA
ATOM      6  O   UNL     1       2.580   3.882   0.580  0.00  0.00    -0.439 OA
ATOM      7  C   UNL     1       1.586   0.667  -0.180  0.00  0.00    +0.068 C 
ATOM      8  C   UNL     1       3.638   2.159  -0.813  0.00  0.00    +0.060 C 
ENDROOT
BRANCH   3   9
ATOM      9  C   UNL     1      -0.568   2.280   1.488  0.00  0.00    +0.080 C 
ATOM     10  C   UNL     1      -0.933   2.995   2.788  0.00  0.00    +0.010 C 
ATOM     11  C   UNL     1      -2.379   2.695   3.177  0.00  0.00    -0.072 C 
ATOM     12  C   UNL     1      -2.955   2.430   0.748  0.00  0.00    -0.072 C 
ATOM     13  C   UNL     1      -1.510   2.773   0.387  0.00  0.00    +0.010 C 
ATOM     14  C   UNL     1      -3.871   3.159  -0.260  0.00  0.00    -0.010 C 
ATOM     15  C   UNL     1      -3.189   0.927   0.574  0.00  0.00    -0.010 C 
ATOM     16  C   UNL     1      -2.770   3.677   4.304  0.00  0.00    -0.010 C 
ATOM     17  C   UNL     1      -2.469   1.279   3.760  0.00  0.00    -0.010 C 
ATOM     18  N   UNL     1      -3.378   2.903   2.095  0.00  0.00    +0.386 N 
ATOM     19  H   UNL     1      -3.574   3.909   2.032  0.00  0.00    -0.084 HD
ATOM     20  H   UNL     1      -4.236   2.403   2.353  0.00  0.00    -0.084 HD
ENDBRANCH   3   9
BRANCH   2  21
ATOM     21  O   UNL     1       2.155   0.945   2.170  0.00  0.00    -0.368 OA
ATOM     22  H   UNL     1       1.403   0.426   2.485  0.00  0.00    +0.212 HD
ENDBRANCH   2  21
BRANCH   1  23
ATOM     23  C   UNL     1       4.224   2.387   1.622  0.00  0.00    +0.056 C 
BRANCH  23  24
ATOM     24  C   UNL     1       5.411   3.269   1.228  0.00  0.00    +0.031 C 
BRANCH  24  26
ATOM     25  C   UNL     1       6.999   4.197   2.834  0.00  0.00    -0.076 C 
ATOM     26  C   UNL     1       6.503   3.131   2.257  0.00  0.00    -0.028 C 
ATOM     27  C   UNL     1       6.568   5.568   2.379  0.00  0.00    +0.039 C 
BRANCH  25  28
ATOM     28  C   UNL     1       7.999   4.054   3.952  0.00  0.00    +0.034 C 
BRANCH  28  29
ATOM     29  C   UNL     1       9.416   4.150   3.384  0.00  0.00    +0.031 C 
BRANCH  29  32
ATOM     30  C   UNL     1      11.522   2.287   3.167  0.00  0.00    +0.038 C 
ATOM     31  C   UNL     1      11.358   3.098   4.426  0.00  0.00    -0.080 C 
ATOM     32  C   UNL     1      10.416   4.006   4.502  0.00  0.00    -0.028 C 
ATOM     33  C   UNL     1      12.276   2.866   5.598  0.00  0.00    +0.038 C 
ENDBRANCH  29  32
ENDBRANCH  28  29
ENDBRANCH  25  28
ENDBRANCH  24  26
ENDBRANCH  23  24
ENDBRANCH   1  23
TORSDOF 8
