REMARK  Name = ZINC21943374
REMARK  7 active torsions:
REMARK  status: ('A' for Active; 'I' for Inactive)
REMARK    1  A    between atoms: C_1  and  C_2
REMARK    2  A    between atoms: C_2  and  N_3
REMARK    3  A    between atoms: C_7  and  C_9
REMARK    4  A    between atoms: C_9  and  N_10
REMARK    5  A    between atoms: C_11  and  C_13
REMARK    6  A    between atoms: C_13  and  N_14
REMARK    7  A    between atoms: N_27  and  C_28
REMARK                            x       y       z     vdW  Elec       q    Type
REMARK                         _______ _______ _______ _____ _____    ______ ____
ROOT
ATOM      1  N   UNL     1      -0.483   2.173   0.930  0.00  0.00    -0.260 N 
ATOM      2  C   UNL     1       0.047   1.470   2.017  0.00  0.00    +0.058 A 
ATOM      3  C   UNL     1       1.285   0.855   1.928  0.00  0.00    +0.025 A 
ATOM      4  C   UNL     1       1.788   0.160   3.013  0.00  0.00    +0.002 A 
ATOM      5  C   UNL     1       1.062   0.077   4.187  0.00  0.00    +0.002 A 
ATOM      6  C   UNL     1      -0.174   0.690   4.286  0.00  0.00    +0.025 A 
ATOM      7  C   UNL     1      -0.682   1.388   3.205  0.00  0.00    +0.060 A 
ATOM      8  N   UNL     1      -1.928   2.030   3.278  0.00  0.00    -0.245 N 
ATOM      9  C   UNL     1      -2.131   3.232   2.455  0.00  0.00    +0.211 C 
ATOM     10  C   UNL     1      -1.530   3.005   1.092  0.00  0.00    +0.238 C 
ATOM     11  O   UNL     1      -1.997   3.575   0.128  0.00  0.00    -0.273 OA
ATOM     12  C   UNL     1      -2.907   1.561   4.076  0.00  0.00    +0.311 C 
ATOM     13  O   UNL     1      -2.693   0.613   4.807  0.00  0.00    -0.252 OA
ATOM     14  N   UNL     1      -4.123   2.142   4.065  0.00  0.00    -0.269 N 
ATOM     15  H   UNL     1      -4.341   2.948   3.348  0.00  0.00    +0.156 HD
ENDROOT
BRANCH  14  16
ATOM     16  C   UNL     1      -5.109   1.721   4.965  0.00  0.00    +0.035 A 
ATOM     17  C   UNL     1      -4.752   1.292   6.237  0.00  0.00    +0.026 A 
ATOM     18  C   UNL     1      -5.727   0.882   7.125  0.00  0.00    +0.040 A 
ATOM     19  C   UNL     1      -7.058   0.887   6.745  0.00  0.00    +0.124 A 
ATOM     20  C   UNL     1      -7.416   1.309   5.475  0.00  0.00    +0.040 A 
ATOM     21  C   UNL     1      -6.445   1.725   4.586  0.00  0.00    +0.026 A 
ATOM     22  F   UNL     1      -8.010   0.481   7.614  0.00  0.00    -0.205 F 
ENDBRANCH  14  16
BRANCH   1  23
ATOM     23  C   UNL     1       0.111   2.007  -0.399  0.00  0.00    +0.209 C 
BRANCH  23  25
ATOM     24  N   UNL     1      -0.190   0.537  -2.365  0.00  0.00    -0.316 N 
ATOM     25  C   UNL     1      -0.574   0.874  -1.118  0.00  0.00    +0.231 C 
ATOM     26  O   UNL     1      -1.470   0.264  -0.574  0.00  0.00    -0.274 OA
ATOM     27  H   UNL     1       0.623   1.090  -2.859  0.00  0.00    +0.149 HD
BRANCH  24  28
ATOM     28  C   UNL     1      -0.856  -0.565  -3.064  0.00  0.00    +0.089 C 
BRANCH  28  33
ATOM     29  N   UNL     1      -0.757   0.588  -5.246  0.00  0.00    +0.382 N 
ATOM     30  C   UNL     1      -1.101   0.207  -6.628  0.00  0.00    -0.078 C 
ATOM     31  C   UNL     1      -0.926  -1.322  -6.738  0.00  0.00    -0.020 C 
ATOM     32  C   UNL     1      -1.040  -1.796  -5.264  0.00  0.00    -0.016 C 
ATOM     33  C   UNL     1      -0.356  -0.629  -4.508  0.00  0.00    -0.051 C 
ATOM     34  H   UNL     1      -1.631   1.048  -4.761  0.00  0.00    -0.081 HD
BRANCH  29  36
ATOM     35  C   UNL     1      -0.091   2.788  -6.090  0.00  0.00    -0.017 C 
ATOM     36  C   UNL     1       0.316   1.591  -5.228  0.00  0.00    -0.082 C 
ENDBRANCH  29  36
ENDBRANCH  28  33
ENDBRANCH  24  28
ENDBRANCH  23  25
ENDBRANCH   1  23
TORSDOF 6
