REMARK  Name = ZINC35168422
REMARK  16 active torsions:
REMARK  status: ('A' for Active; 'I' for Inactive)
REMARK    1  A    between atoms: C_1  and  C_2
REMARK    2  A    between atoms: C_2  and  C_34
REMARK    3  A    between atoms: C_3  and  C_32
REMARK    4  A    between atoms: C_3  and  O_33
REMARK    5  A    between atoms: C_4  and  C_30
REMARK    6  A    between atoms: C_4  and  O_31
REMARK    7  A    between atoms: C_5  and  C_7
REMARK    8  A    between atoms: C_5  and  N_8
REMARK    9  A    between atoms: C_16  and  C_18
REMARK   10  A    between atoms: C_20  and  O_28
REMARK   11  A    between atoms: C_21  and  O_26
REMARK   12  A    between atoms: C_22  and  O_24
REMARK   13  A    between atoms: O_24  and  C_25
REMARK   14  A    between atoms: O_26  and  C_27
REMARK   15  A    between atoms: O_28  and  C_29
REMARK   16  A    between atoms: C_34  and  O_35
REMARK                            x       y       z     vdW  Elec       q    Type
REMARK                         _______ _______ _______ _____ _____    ______ ____
ROOT
ATOM      1  N   UNL     1      -0.108  -1.287   3.401  0.00  0.00    -0.267 N 
ATOM      2  C   UNL     1       1.059  -1.070   4.069  0.00  0.00    +0.097 A 
ATOM      3  C   UNL     1       1.313  -1.766   5.203  0.00  0.00    +0.062 A 
ATOM      4  C   UNL     1       0.360  -2.698   5.660  0.00  0.00    +0.132 A 
ATOM      5  N   UNL     1      -0.762  -2.876   4.977  0.00  0.00    -0.178 NA
ATOM      6  C   UNL     1      -1.000  -2.180   3.866  0.00  0.00    +0.352 A 
ATOM      7  O   UNL     1      -2.042  -2.359   3.258  0.00  0.00    -0.244 OA
ATOM      8  N   UNL     1       0.594  -3.422   6.813  0.00  0.00    -0.266 N 
ATOM      9  C   UNL     1      -0.320  -4.312   7.246  0.00  0.00    +0.250 C 
ATOM     10  O   UNL     1      -1.350  -4.478   6.623  0.00  0.00    -0.270 OA
ATOM     11  H   UNL     1       1.416  -3.290   7.310  0.00  0.00    +0.157 HD
ENDROOT
BRANCH   1  16
ATOM     12  C   UNL     1      -1.323   0.076  -0.566  0.00  0.00    +0.047 C 
ATOM     13  C   UNL     1      -2.075   0.142   0.766  0.00  0.00    +0.123 C 
ATOM     14  C   UNL     1      -1.689   1.423   1.538  0.00  0.00    +0.127 C 
ATOM     15  C   UNL     1      -0.559   0.964   2.486  0.00  0.00    +0.142 C 
ATOM     16  C   UNL     1      -0.395  -0.540   2.174  0.00  0.00    +0.179 C 
ATOM     17  O   UNL     1      -1.669  -0.944   1.627  0.00  0.00    -0.340 OA
ATOM     18  C   UNL     1       0.718  -0.753   1.146  0.00  0.00    +0.070 C 
ATOM     19  C   UNL     1       0.736   1.719   2.180  0.00  0.00    +0.049 C 
ATOM     20  C   UNL     1      -2.883   1.945   2.340  0.00  0.00    +0.047 C 
BRANCH  15  21
ATOM     21  O   UNL     1      -0.941   1.154   3.850  0.00  0.00    -0.381 OA
ATOM     22  H   UNL     1      -0.236   0.970   4.485  0.00  0.00    +0.210 HD
ENDBRANCH  15  21
BRANCH  14  23
ATOM     23  O   UNL     1      -1.212   2.425   0.638  0.00  0.00    -0.383 OA
ATOM     24  H   UNL     1      -1.864   2.707  -0.019  0.00  0.00    +0.210 HD
ENDBRANCH  14  23
BRANCH  13  25
ATOM     25  C   UNL     1      -3.585   0.096   0.526  0.00  0.00    +0.193 C 
BRANCH  25  26
ATOM     26  O   UNL     1      -3.923  -1.114  -0.156  0.00  0.00    -0.392 OA
ATOM     27  H   UNL     1      -4.867  -1.211  -0.341  0.00  0.00    +0.210 HD
ENDBRANCH  25  26
ENDBRANCH  13  25
ENDBRANCH   1  16
BRANCH   9  28
ATOM     28  C   UNL     1      -0.070  -5.086   8.478  0.00  0.00    +0.044 A 
ATOM     29  C   UNL     1       1.111  -4.892   9.198  0.00  0.00    +0.062 A 
ATOM     30  C   UNL     1       1.342  -5.618  10.352  0.00  0.00    +0.166 A 
ATOM     31  C   UNL     1       0.400  -6.541  10.796  0.00  0.00    +0.204 A 
ATOM     32  C   UNL     1      -0.778  -6.737  10.079  0.00  0.00    +0.166 A 
ATOM     33  C   UNL     1      -1.017  -6.009   8.928  0.00  0.00    +0.062 A 
BRANCH  32  34
ATOM     34  O   UNL     1      -1.697  -7.640  10.515  0.00  0.00    -0.491 OA
ATOM     35  C   UNL     1      -2.883  -7.789   9.732  0.00  0.00    +0.277 C 
ENDBRANCH  32  34
BRANCH  31  36
ATOM     36  O   UNL     1       0.630  -7.254  11.929  0.00  0.00    -0.488 OA
ATOM     37  C   UNL     1       0.172  -6.685  13.158  0.00  0.00    +0.277 C 
ENDBRANCH  31  36
BRANCH  30  38
ATOM     38  O   UNL     1       2.492  -5.430  11.053  0.00  0.00    -0.491 OA
ATOM     39  C   UNL     1       3.415  -4.467  10.541  0.00  0.00    +0.277 C 
ENDBRANCH  30  38
ENDBRANCH   9  28
TORSDOF 9
