REMARK  Name = ZINC40501918
REMARK  6 active torsions:
REMARK  status: ('A' for Active; 'I' for Inactive)
REMARK    1  A    between atoms: C_1  and  C_2
REMARK    2  A    between atoms: C_2  and  N_3
REMARK    3  A    between atoms: C_7  and  N_10
REMARK    4  A    between atoms: N_10  and  S_11
REMARK    5  A    between atoms: S_11  and  C_14
REMARK    6  A    between atoms: C_15  and  N_22
REMARK                            x       y       z     vdW  Elec       q    Type
REMARK                         _______ _______ _______ _____ _____    ______ ____
ROOT
ATOM      1  S   UNL     1      -4.508  -5.260   1.919  0.00  0.00    +0.061 S 
ATOM      2  O   UNL     1      -4.646  -6.672   1.998  0.00  0.00    -0.153 OA
ATOM      3  O   UNL     1      -4.595  -4.421   3.063  0.00  0.00    -0.153 OA
ENDROOT
BRANCH   1   4
ATOM      4  C   UNL     1      -5.734  -4.696   0.787  0.00  0.00    +0.140 A 
ATOM      5  C   UNL     1      -6.273  -3.422   0.922  0.00  0.00    +0.053 A 
ATOM      6  C   UNL     1      -7.239  -2.981   0.027  0.00  0.00    +0.040 A 
ATOM      7  C   UNL     1      -7.661  -3.809  -0.995  0.00  0.00    +0.021 A 
ATOM      8  C   UNL     1      -7.124  -5.077  -1.127  0.00  0.00    +0.032 A 
ATOM      9  C   UNL     1      -6.157  -5.518  -0.240  0.00  0.00    +0.047 A 
ATOM     10 BR   UNL     1      -5.419  -7.248  -0.430  0.00  0.00    -0.048 Br
ATOM     11 BR   UNL     1      -8.977  -3.209  -2.214  0.00  0.00    -0.050 Br
BRANCH   5  12
ATOM     12  N   UNL     1      -5.844  -2.588   1.957  0.00  0.00    -0.356 N 
ATOM     13  H   UNL     1      -4.953  -2.692   2.327  0.00  0.00    +0.142 HD
ATOM     14  H   UNL     1      -6.437  -1.904   2.306  0.00  0.00    +0.142 HD
ENDBRANCH   5  12
ENDBRANCH   1   4
BRANCH   1  15
ATOM     15  N   UNL     1      -3.032  -4.967   1.229  0.00  0.00    -0.189 NA
ATOM     16  H   UNL     1      -2.454  -5.707   0.986  0.00  0.00    +0.148 HD
BRANCH  15  21
ATOM     17  N   UNL     1      -0.647  -2.106   0.945  0.00  0.00    +0.381 N 
ATOM     18  C   UNL     1      -0.908  -1.742  -0.453  0.00  0.00    -0.079 C 
ATOM     19  C   UNL     1      -2.414  -1.779  -0.722  0.00  0.00    -0.017 C 
ATOM     20  C   UNL     1      -2.940  -3.192  -0.454  0.00  0.00    +0.017 C 
ATOM     21  C   UNL     1      -2.598  -3.589   0.985  0.00  0.00    +0.060 C 
ATOM     22  C   UNL     1      -1.085  -3.485   1.190  0.00  0.00    -0.058 C 
ATOM     23  H   UNL     1      -1.154  -1.480   1.553  0.00  0.00    -0.082 HD
BRANCH  17  25
ATOM     24  C   UNL     1       1.224  -0.532   1.084  0.00  0.00    -0.017 C 
ATOM     25  C   UNL     1       0.791  -1.993   1.218  0.00  0.00    -0.082 C 
ENDBRANCH  17  25
ENDBRANCH  15  21
ENDBRANCH   1  15
TORSDOF 5
