REMARK  Name = ZINC40572859
REMARK  10 active torsions:
REMARK  status: ('A' for Active; 'I' for Inactive)
REMARK    1  A    between atoms: C_1  and  C_2
REMARK    2  A    between atoms: C_2  and  C_29
REMARK    3  A    between atoms: C_4  and  N_10
REMARK    4  A    between atoms: C_6  and  C_8
REMARK    5  A    between atoms: C_6  and  C_9
REMARK    6  A    between atoms: C_12  and  N_26
REMARK    7  A    between atoms: C_13  and  N_17
REMARK    8  A    between atoms: N_17  and  C_18
REMARK    9  A    between atoms: N_17  and  C_19
REMARK   10  A    between atoms: C_19  and  C_20
REMARK                            x       y       z     vdW  Elec       q    Type
REMARK                         _______ _______ _______ _____ _____    ______ ____
ROOT
ATOM      1  N   UNL     1       2.605  -0.714  -2.591  0.00  0.00    -0.324 N 
ATOM      2  C   UNL     1       3.804  -0.262  -3.119  0.00  0.00    +0.155 A 
ATOM      3  C   UNL     1       4.248  -0.720  -4.356  0.00  0.00    +0.205 A 
ATOM      4  C   UNL     1       5.458  -0.236  -4.843  0.00  0.00    +0.157 A 
ATOM      5  N   UNL     1       6.143   0.642  -4.113  0.00  0.00    -0.218 NA
ATOM      6  C   UNL     1       5.690   1.051  -2.946  0.00  0.00    +0.225 A 
ATOM      7  N   UNL     1       4.546   0.620  -2.453  0.00  0.00    -0.218 NA
ATOM      8  H   UNL     1       2.070  -1.357  -3.082  0.00  0.00    +0.148 HD
ENDROOT
BRANCH   1  12
ATOM      9  C   UNL     1       0.186   1.668   0.215  0.00  0.00    -0.010 C 
ATOM     10  C   UNL     1       0.119   0.139   0.146  0.00  0.00    -0.072 C 
ATOM     11  C   UNL     1       0.623  -0.340  -1.212  0.00  0.00    +0.009 C 
ATOM     12  C   UNL     1       2.145  -0.219  -1.287  0.00  0.00    +0.069 C 
ATOM     13  C   UNL     1       2.747  -1.083  -0.179  0.00  0.00    +0.009 C 
ATOM     14  C   UNL     1       2.259  -0.612   1.187  0.00  0.00    -0.072 C 
ATOM     15  N   UNL     1       0.816  -0.471   1.266  0.00  0.00    +0.386 N 
ATOM     16  C   UNL     1       2.967   0.693   1.568  0.00  0.00    -0.010 C 
ATOM     17  C   UNL     1       2.684  -1.678   2.223  0.00  0.00    -0.010 C 
ATOM     18  C   UNL     1      -1.373  -0.255   0.250  0.00  0.00    -0.010 C 
ATOM     19  H   UNL     1       0.590   0.061   2.112  0.00  0.00    -0.084 HD
ATOM     20  H   UNL     1       0.412  -1.399   1.426  0.00  0.00    -0.084 HD
ENDBRANCH   1  12
BRANCH   3  21
ATOM     21  N   UNL     1       3.453  -1.697  -5.134  0.00  0.00    +0.063 N 
ATOM     22  O   UNL     1       2.594  -1.311  -5.893  0.00  0.00    -0.126 OA
ATOM     23  O   UNL     1       3.662  -2.882  -5.010  0.00  0.00    -0.126 OA
ENDBRANCH   3  21
BRANCH   4  24
ATOM     24  N   UNL     1       5.943  -0.661  -6.070  0.00  0.00    -0.312 N 
ATOM     25  C   UNL     1       6.808  -1.841  -6.147  0.00  0.00    +0.131 C 
BRANCH  24  26
ATOM     26  C   UNL     1       5.591   0.069  -7.290  0.00  0.00    +0.141 C 
BRANCH  26  27
ATOM     27  C   UNL     1       6.613   1.147  -7.543  0.00  0.00    -0.030 A 
ATOM     28  C   UNL     1       6.435   2.408  -7.007  0.00  0.00    +0.005 A 
ATOM     29  C   UNL     1       7.373   3.397  -7.239  0.00  0.00    +0.000 A 
ATOM     30  C   UNL     1       8.489   3.124  -8.007  0.00  0.00    +0.000 A 
ATOM     31  C   UNL     1       8.668   1.862  -8.543  0.00  0.00    +0.000 A 
ATOM     32  C   UNL     1       7.732   0.872  -8.307  0.00  0.00    +0.005 A 
ENDBRANCH  26  27
ENDBRANCH  24  26
ENDBRANCH   4  24
TORSDOF 5
