REMARK  Name = ZINC20920310
REMARK  13 active torsions:
REMARK  status: ('A' for Active; 'I' for Inactive)
REMARK    1  A    between atoms: C_1  and  C_2
REMARK    2  A    between atoms: C_2  and  C_3
REMARK    3  A    between atoms: C_3  and  C_4
REMARK    4  A    between atoms: C_4  and  N_5
REMARK    5  A    between atoms: N_5  and  C_6
REMARK    6  A    between atoms: N_5  and  C_8
REMARK    7  A    between atoms: C_6  and  C_7
REMARK    8  A    between atoms: C_8  and  C_9
REMARK    9  A    between atoms: C_9  and  N_10
REMARK   10  A    between atoms: C_16  and  C_32
REMARK   11  A    between atoms: C_19  and  C_20
REMARK   12  A    between atoms: C_19  and  C_21
REMARK   13  A    between atoms: N_23  and  C_24
REMARK                            x       y       z     vdW  Elec       q    Type
REMARK                         _______ _______ _______ _____ _____    ______ ____
ROOT
ATOM      1  N   UNL     1      -5.687   4.635  -0.202  0.00  0.00    -0.282 N 
ATOM      2  C   UNL     1      -5.071   5.682  -0.799  0.00  0.00    +0.264 C 
ATOM      3  O   UNL     1      -5.687   6.669  -1.159  0.00  0.00    -0.268 OA
ATOM      4  C   UNL     1      -3.622   5.565  -0.989  0.00  0.00    +0.105 A 
ATOM      5  C   UNL     1      -2.694   6.492  -1.379  0.00  0.00    +0.033 A 
ATOM      6  C   UNL     1      -1.449   5.862  -1.371  0.00  0.00    +0.032 A 
ATOM      7  C   UNL     1      -1.643   4.545  -0.984  0.00  0.00    +0.085 A 
ATOM      8  N   UNL     1      -2.966   4.361  -0.756  0.00  0.00    -0.331 N 
ATOM      9  C   UNL     1      -3.694   3.156  -0.345  0.00  0.00    +0.157 C 
ATOM     10  C   UNL     1      -4.936   3.566   0.446  0.00  0.00    +0.128 C 
ATOM     11  C   UNL     1      -4.504   4.038   1.836  0.00  0.00    +0.043 C 
ENDROOT
BRANCH   7  12
ATOM     12  C   UNL     1      -0.594   3.525  -0.840  0.00  0.00    +0.151 A 
ATOM     13  C   UNL     1       0.747   3.731  -0.976  0.00  0.00    +0.051 A 
ATOM     14  C   UNL     1       1.372   2.490  -0.756  0.00  0.00    +0.042 A 
ATOM     15  C   UNL     1       0.396   1.595  -0.499  0.00  0.00    +0.196 A 
ATOM     16  O   UNL     1      -0.790   2.222  -0.555  0.00  0.00    -0.461 OA
ENDBRANCH   7  12
BRANCH  10  17
ATOM     17  C   UNL     1      -5.833   2.365   0.600  0.00  0.00    +0.238 C 
ATOM     18  O   UNL     1      -5.905   1.794   1.668  0.00  0.00    -0.273 OA
ATOM     19  N   UNL     1      -6.556   1.925  -0.449  0.00  0.00    -0.311 N 
ATOM     20  H   UNL     1      -6.426   2.386  -1.439  0.00  0.00    +0.149 HD
BRANCH  19  21
ATOM     21  C   UNL     1      -7.514   0.831  -0.271  0.00  0.00    +0.073 C 
ATOM     22  C   UNL     1      -6.788  -0.510  -0.397  0.00  0.00    +0.022 C 
ATOM     23  C   UNL     1      -7.671  -1.623   0.171  0.00  0.00    +0.002 C 
ATOM     24  C   UNL     1      -8.291  -1.161   1.490  0.00  0.00    +0.000 C 
ATOM     25  C   UNL     1      -9.804  -1.011   1.319  0.00  0.00    +0.000 C 
ATOM     26  C   UNL     1     -10.103   0.274   0.542  0.00  0.00    +0.000 C 
ATOM     27  C   UNL     1      -9.794   0.058  -0.940  0.00  0.00    +0.002 C 
ATOM     28  C   UNL     1      -8.601   0.925  -1.345  0.00  0.00    +0.022 C 
ENDBRANCH  19  21
ENDBRANCH  10  17
BRANCH   1  29
ATOM     29  C   UNL     1      -7.151   4.574  -0.208  0.00  0.00    +0.091 C 
BRANCH  29  30
ATOM     30  C   UNL     1      -7.700   5.401   0.957  0.00  0.00    -0.060 C 
BRANCH  30  31
ATOM     31  N   UNL     1      -9.167   5.340   0.951  0.00  0.00    +0.381 N 
ATOM     32  H   UNL     1      -9.461   4.280   0.914  0.00  0.00    -0.082 HD
BRANCH  31  33
ATOM     33  C   UNL     1      -9.718   6.003  -0.238  0.00  0.00    -0.082 C 
ATOM     34  C   UNL     1     -11.181   5.595  -0.418  0.00  0.00    -0.017 C 
ENDBRANCH  31  33
BRANCH  31  35
ATOM     35  C   UNL     1      -9.723   5.920   2.182  0.00  0.00    -0.079 C 
BRANCH  35  36
ATOM     36  C   UNL     1      -9.384   5.017   3.369  0.00  0.00    -0.019 C 
BRANCH  36  38
ATOM     37  C   UNL     1      -9.713   4.660   5.820  0.00  0.00    +0.004 C 
ATOM     38  C   UNL     1     -10.052   5.563   4.633  0.00  0.00    -0.005 C 
ENDBRANCH  36  38
ENDBRANCH  35  36
ENDBRANCH  31  35
ENDBRANCH  30  31
ENDBRANCH  29  30
ENDBRANCH   1  29
TORSDOF 10
