REMARK  Name = ZINC43548608
REMARK  14 active torsions:
REMARK  status: ('A' for Active; 'I' for Inactive)
REMARK    1  A    between atoms: C_1  and  C_2
REMARK    2  A    between atoms: C_2  and  C_3
REMARK    3  A    between atoms: C_3  and  C_4
REMARK    4  A    between atoms: C_4  and  N_5
REMARK    5  A    between atoms: C_12  and  C_35
REMARK    6  A    between atoms: C_15  and  C_25
REMARK    7  A    between atoms: C_17  and  O_24
REMARK    8  A    between atoms: C_21  and  C_23
REMARK    9  A    between atoms: C_25  and  C_27
REMARK   10  A    between atoms: C_25  and  C_28
REMARK   11  A    between atoms: N_30  and  C_31
REMARK   12  A    between atoms: C_31  and  C_32
REMARK   13  A    between atoms: C_32  and  O_33
REMARK   14  A    between atoms: O_33  and  C_34
REMARK                            x       y       z     vdW  Elec       q    Type
REMARK                         _______ _______ _______ _____ _____    ______ ____
ROOT
ATOM      1  N   UNL     1       2.275  -2.402  -2.933  0.00  0.00    -0.325 N 
ATOM      2  C   UNL     1       2.201  -3.783  -3.020  0.00  0.00    +0.136 A 
ATOM      3  N   UNL     1       2.673  -4.569  -3.963  0.00  0.00    -0.340 N 
ATOM      4  C   UNL     1       2.526  -5.892  -3.915  0.00  0.00    +0.031 A 
ATOM      5  C   UNL     1       1.859  -6.352  -2.827  0.00  0.00    +0.013 A 
ATOM      6  S   UNL     1       1.490  -4.864  -1.940  0.00  0.00    -0.059 S 
ATOM      7  C   UNL     1       1.540  -7.768  -2.491  0.00  0.00    +0.051 C 
ATOM      8  C   UNL     1       1.772  -8.633  -3.733  0.00  0.00    -0.022 C 
ATOM      9  C   UNL     1       0.651  -8.425  -4.749  0.00  0.00    +0.008 C 
ATOM     10  C   UNL     1       0.880  -9.360  -5.941  0.00  0.00    +0.007 C 
ATOM     11  C   UNL     1       2.239  -9.067  -6.576  0.00  0.00    +0.029 C 
ATOM     12  C   UNL     1       3.352  -9.251  -5.541  0.00  0.00    +0.123 C 
ATOM     13  C   UNL     1       3.112  -8.268  -4.382  0.00  0.00    +0.033 C 
ATOM     14  C   UNL     1       3.042  -6.855  -4.972  0.00  0.00    +0.039 C 
ATOM     15  C   UNL     1       4.439  -6.419  -5.421  0.00  0.00    +0.014 C 
ATOM     16  C   UNL     1       1.795 -10.107  -3.324  0.00  0.00    +0.012 C 
ATOM     17  H   UNL     1       2.718  -1.895  -3.631  0.00  0.00    +0.148 HD
ATOM     18  H   UNL     1       3.142  -4.174  -4.715  0.00  0.00    +0.167 HD
ENDROOT
BRANCH  12  19
ATOM     19  O   UNL     1       4.619  -8.985  -6.146  0.00  0.00    -0.391 OA
ATOM     20  H   UNL     1       4.799  -9.519  -6.931  0.00  0.00    +0.210 HD
ENDBRANCH  12  19
BRANCH  11  21
ATOM     21  C   UNL     1       2.471 -10.029  -7.744  0.00  0.00    +0.077 C 
ATOM     22  C   UNL     1       1.339  -9.879  -8.761  0.00  0.00    +0.017 C 
BRANCH  21  23
ATOM     23  C   UNL     1       2.501 -11.445  -7.230  0.00  0.00    +0.216 C 
ATOM     24  O   UNL     1       2.243 -11.674  -6.067  0.00  0.00    -0.276 OA
ATOM     25  N   UNL     1       2.814 -12.457  -8.062  0.00  0.00    -0.313 N 
ATOM     26  H   UNL     1       3.020 -12.275  -8.992  0.00  0.00    +0.149 HD
BRANCH  25  27
ATOM     27  C   UNL     1       2.842 -13.835  -7.563  0.00  0.00    +0.132 C 
BRANCH  27  28
ATOM     28  C   UNL     1       3.223 -14.782  -8.702  0.00  0.00    +0.178 C 
BRANCH  28  29
ATOM     29  O   UNL     1       4.559 -14.506  -9.126  0.00  0.00    -0.381 OA
ATOM     30  C   UNL     1       5.015 -15.341 -10.192  0.00  0.00    +0.194 C 
ENDBRANCH  28  29
ENDBRANCH  27  28
ENDBRANCH  25  27
ENDBRANCH  21  23
ENDBRANCH  11  21
BRANCH   1  31
ATOM     31  C   UNL     1       1.685  -1.707  -1.786  0.00  0.00    +0.103 C 
BRANCH  31  32
ATOM     32  C   UNL     1       1.905  -0.200  -1.933  0.00  0.00    +0.018 C 
BRANCH  32  34
ATOM     33  C   UNL     1       1.507   2.032  -0.883  0.00  0.00    +0.004 C 
ATOM     34  C   UNL     1       1.288   0.525  -0.735  0.00  0.00    -0.002 C 
ENDBRANCH  32  34
ENDBRANCH  31  32
ENDBRANCH   1  31
TORSDOF 9
