REMARK  Name = ZINC63743831
REMARK  5 active torsions:
REMARK  status: ('A' for Active; 'I' for Inactive)
REMARK    1  A    between atoms: C_1  and  O_2
REMARK    2  A    between atoms: O_2  and  C_3
REMARK    3  A    between atoms: C_6  and  N_9
REMARK    4  A    between atoms: N_12  and  C_13
REMARK    5  A    between atoms: C_16  and  C_19
REMARK                            x       y       z     vdW  Elec       q    Type
REMARK                         _______ _______ _______ _____ _____    ______ ____
ROOT
ATOM      1  C   UNL     1      -6.302  -5.938  -0.129  0.00  0.00    +0.035 A 
ATOM      2  C   UNL     1      -5.132  -6.687  -0.132  0.00  0.00    +0.024 A 
ATOM      3  C   UNL     1      -5.197  -8.067  -0.129  0.00  0.00    +0.008 A 
ATOM      4  C   UNL     1      -6.425  -8.703  -0.124  0.00  0.00    -0.021 A 
ATOM      5  C   UNL     1      -7.591  -7.960  -0.122  0.00  0.00    +0.008 A 
ATOM      6  C   UNL     1      -7.533  -6.580  -0.118  0.00  0.00    +0.024 A 
ENDROOT
BRANCH   4   7
ATOM      7  C   UNL     1      -6.492 -10.208  -0.121  0.00  0.00    +0.133 C 
ATOM      8  C   UNL     1      -6.815 -10.713   1.268  0.00  0.00    +0.012 C 
ATOM      9  C   UNL     1      -7.984 -11.384   1.160  0.00  0.00    -0.002 A 
ATOM     10  C   UNL     1      -8.815 -12.098   2.137  0.00  0.00    +0.029 A 
ATOM     11  C   UNL     1      -9.960 -12.686   1.720  0.00  0.00    +0.042 A 
ATOM     12  C   UNL     1     -10.372 -12.630   0.380  0.00  0.00    +0.022 A 
ATOM     13  C   UNL     1      -9.662 -11.993  -0.575  0.00  0.00    +0.027 A 
ATOM     14  C   UNL     1      -8.441 -11.340  -0.248  0.00  0.00    +0.043 A 
ATOM     15  N   UNL     1      -7.587 -10.667  -0.983  0.00  0.00    -0.374 N 
ATOM     16 CL   UNL     1     -10.945 -13.532   2.873  0.00  0.00    -0.084 Cl
ATOM     17  H   UNL     1      -7.665 -10.501  -1.935  0.00  0.00    +0.161 HD
ENDBRANCH   4   7
BRANCH   1  21
ATOM     18  N   UNL     1      -5.116  -2.572  -0.692  0.00  0.00    -0.269 N 
ATOM     19  C   UNL     1      -5.236  -3.912  -0.775  0.00  0.00    +0.308 C 
ATOM     20  O   UNL     1      -4.438  -4.554  -1.431  0.00  0.00    -0.252 OA
ATOM     21  N   UNL     1      -6.239  -4.540  -0.132  0.00  0.00    -0.269 N 
ATOM     22  H   UNL     1      -5.705  -2.068  -0.109  0.00  0.00    +0.156 HD
ATOM     23  H   UNL     1      -6.919  -4.024   0.329  0.00  0.00    +0.156 HD
BRANCH  18  27
ATOM     24  C   UNL     1      -2.212  -0.593  -2.937  0.00  0.00    +0.120 A 
ATOM     25  C   UNL     1      -2.821  -1.732  -3.441  0.00  0.00    +0.047 A 
ATOM     26  C   UNL     1      -3.783  -2.388  -2.698  0.00  0.00    +0.027 A 
ATOM     27  C   UNL     1      -4.140  -1.907  -1.446  0.00  0.00    +0.035 A 
ATOM     28  C   UNL     1      -3.529  -0.767  -0.941  0.00  0.00    +0.027 A 
ATOM     29  C   UNL     1      -2.564  -0.115  -1.683  0.00  0.00    +0.047 A 
BRANCH  24  31
ATOM     30  C   UNL     1      -0.952  -0.495  -4.951  0.00  0.00    +0.277 C 
ATOM     31  O   UNL     1      -1.265   0.053  -3.668  0.00  0.00    -0.495 OA
ENDBRANCH  24  31
ENDBRANCH  18  27
ENDBRANCH   1  21
TORSDOF 4
