REMARK  Name = ZINC20694203
REMARK  8 active torsions:
REMARK  status: ('A' for Active; 'I' for Inactive)
REMARK    1  A    between atoms: C_1  and  O_2
REMARK    2  A    between atoms: O_2  and  C_3
REMARK    3  A    between atoms: C_7  and  C_10
REMARK    4  A    between atoms: C_8  and  O_9
REMARK    5  A    between atoms: C_21  and  S_26
REMARK    6  A    between atoms: S_26  and  N_29
REMARK    7  A    between atoms: N_29  and  C_30
REMARK    8  A    between atoms: C_30  and  C_31
REMARK                            x       y       z     vdW  Elec       q    Type
REMARK                         _______ _______ _______ _____ _____    ______ ____
ROOT
ATOM      1  C   UNL     1       2.446   4.231   0.001  0.00  0.00    +0.109 C 
ATOM      2  C   UNL     1       3.037   4.282   1.399  0.00  0.00    +0.029 C 
ATOM      3  C   UNL     1       3.264   2.942   2.112  0.00  0.00    +0.033 C 
ATOM      4  C   UNL     1       3.110   3.345   3.580  0.00  0.00    -0.030 C 
ATOM      5  C   UNL     1       2.341   4.423   3.677  0.00  0.00    -0.023 C 
ATOM      6  C   UNL     1       1.902   4.838   2.309  0.00  0.00    +0.049 C 
ATOM      7  C   UNL     1       1.667   6.248   1.931  0.00  0.00    -0.018 A 
ATOM      8  C   UNL     1       1.315   7.212   2.851  0.00  0.00    +0.034 A 
ATOM      9  C   UNL     1       1.094   8.515   2.446  0.00  0.00    +0.106 A 
ATOM     10  C   UNL     1       1.224   8.856   1.112  0.00  0.00    +0.030 A 
ATOM     11  C   UNL     1       1.582   7.899   0.184  0.00  0.00    +0.025 A 
ATOM     12  C   UNL     1       1.812   6.588   0.581  0.00  0.00    +0.031 A 
ATOM     13  N   UNL     1       2.194   5.639  -0.375  0.00  0.00    -0.336 N 
ATOM     14  H   UNL     1       2.305   5.957  -1.423  0.00  0.00    +0.147 HD
ENDROOT
BRANCH   1  19
ATOM     15  C   UNL     1      -0.016   1.356   0.009  0.00  0.00    +0.162 A 
ATOM     16  C   UNL     1      -1.225   2.034   0.019  0.00  0.00    +0.049 A 
ATOM     17  C   UNL     1      -1.242   3.416   0.033  0.00  0.00    +0.004 A 
ATOM     18  C   UNL     1      -0.055   4.125   0.025  0.00  0.00    +0.009 A 
ATOM     19  C   UNL     1       1.154   3.455   0.010  0.00  0.00    +0.018 A 
ATOM     20  C   UNL     1       1.178   2.069   0.002  0.00  0.00    +0.163 A 
BRANCH  15  22
ATOM     21  C   UNL     1      -1.262  -0.670   0.011  0.00  0.00    +0.277 C 
ATOM     22  O   UNL     1       0.002  -0.004   0.002  0.00  0.00    -0.491 OA
ENDBRANCH  15  22
BRANCH  20  23
ATOM     23  O   UNL     1       2.367   1.409  -0.013  0.00  0.00    -0.503 OA
ATOM     24  H   UNL     1       3.310   1.974  -0.019  0.00  0.00    +0.292 HD
ENDBRANCH  20  23
ENDBRANCH   1  19
BRANCH   9  25
ATOM     25  S   UNL     1       0.645   9.742   3.628  0.00  0.00    +0.059 S 
ATOM     26  O   UNL     1       1.121   9.286   4.887  0.00  0.00    -0.153 OA
ATOM     27  O   UNL     1       1.026  10.995   3.079  0.00  0.00    -0.153 OA
BRANCH  25  28
ATOM     28  N   UNL     1      -1.009   9.750   3.722  0.00  0.00    -0.186 NA
ATOM     29  H   UNL     1      -1.570  10.570   3.251  0.00  0.00    +0.148 HD
BRANCH  28  30
ATOM     30  C   UNL     1      -1.719   8.574   4.231  0.00  0.00    +0.141 C 
BRANCH  30  31
ATOM     31  C   UNL     1      -3.141   8.950   4.561  0.00  0.00    -0.032 A 
ATOM     32  C   UNL     1      -3.460   9.399   5.829  0.00  0.00    +0.005 A 
ATOM     33  C   UNL     1      -4.763   9.748   6.131  0.00  0.00    +0.000 A 
ATOM     34  C   UNL     1      -5.748   9.640   5.167  0.00  0.00    +0.000 A 
ATOM     35  C   UNL     1      -5.430   9.186   3.901  0.00  0.00    +0.000 A 
ATOM     36  C   UNL     1      -4.126   8.841   3.598  0.00  0.00    +0.005 A 
ENDBRANCH  30  31
ENDBRANCH  28  30
ENDBRANCH  25  28
ENDBRANCH   9  25
TORSDOF 7
