REMARK  Name = ZINC15769750
REMARK  3 active torsions:
REMARK  status: ('A' for Active; 'I' for Inactive)
REMARK    1  A    between atoms: C_4  and  C_7
REMARK    2  A    between atoms: C_7  and  N_69
REMARK    3  A    between atoms: N_26  and  C_27
REMARK                            x       y       z     vdW  Elec       q    Type
REMARK                         _______ _______ _______ _____ _____    ______ ____
ROOT
ATOM      1  C   UNL     1      -2.111   0.951   1.357  0.00  0.00    +0.065 C 
ATOM      2  C   UNL     1      -0.743   1.586   1.254  0.00  0.00    +0.023 C 
ATOM      3  C   UNL     1      -0.013   1.086   0.008  0.00  0.00    +0.028 C 
ATOM      4  C   UNL     1      -0.766   1.599  -1.217  0.00  0.00    +0.121 C 
ATOM      5  C   UNL     1      -2.194   1.063  -1.243  0.00  0.00    +0.160 C 
ATOM      6  C   UNL     1      -2.837   0.720   0.055  0.00  0.00    +0.063 C 
ATOM      7  C   UNL     1      -4.149   1.451   0.236  0.00  0.00    -0.047 C 
ATOM      8  C   UNL     1      -4.172   2.006   1.435  0.00  0.00    -0.010 C 
ATOM      9  C   UNL     1      -5.343   2.822   1.952  0.00  0.00    +0.049 C 
ATOM     10  C   UNL     1      -6.217   3.237   0.766  0.00  0.00    +0.006 C 
ATOM     11  C   UNL     1      -6.537   2.003  -0.083  0.00  0.00    +0.005 C 
ATOM     12  C   UNL     1      -5.257   1.536  -0.785  0.00  0.00    +0.032 C 
ATOM     13  N   UNL     1      -2.118  -0.094  -2.148  0.00  0.00    -0.166 NA
ATOM     14  N   UNL     1      -1.053  -0.086  -2.765  0.00  0.00    -0.083 NA
ATOM     15  N   UNL     1      -0.192   0.963  -2.427  0.00  0.00    -0.229 N 
ATOM     16  N   UNL     1      -3.177   1.453   2.248  0.00  0.00    -0.393 NA
ATOM     17  H   UNL     1      -3.610   0.609   2.641  0.00  0.00    +0.126 HD
ENDROOT
BRANCH  15  18
ATOM     18  C   UNL     1       1.033   1.356  -3.129  0.00  0.00    +0.095 C 
ATOM     19  C   UNL     1       0.695   1.737  -4.571  0.00  0.00    +0.024 C 
ATOM     20  C   UNL     1       1.974   2.147  -5.304  0.00  0.00    +0.002 C 
ATOM     21  C   UNL     1       2.959   0.977  -5.304  0.00  0.00    +0.000 C 
ATOM     22  C   UNL     1       3.298   0.596  -3.861  0.00  0.00    +0.002 C 
ATOM     23  C   UNL     1       2.019   0.186  -3.128  0.00  0.00    +0.024 C 
ENDBRANCH  15  18
BRANCH  16  24
ATOM     24  C   UNL     1      -2.743   2.254   3.515  0.00  0.00    +0.088 C 
BRANCH  24  28
ATOM     25  C   UNL     1      -4.876   0.554   6.875  0.00  0.00    +0.000 C 
ATOM     26  C   UNL     1      -3.353   0.663   6.968  0.00  0.00    +0.000 C 
ATOM     27  C   UNL     1      -2.851   1.684   5.946  0.00  0.00    +0.005 C 
ATOM     28  C   UNL     1      -3.245   1.232   4.538  0.00  0.00    +0.005 C 
ATOM     29  C   UNL     1      -4.768   1.124   4.445  0.00  0.00    +0.005 C 
ATOM     30  C   UNL     1      -5.270   0.102   5.468  0.00  0.00    +0.000 C 
ENDBRANCH  24  28
ENDBRANCH  16  24
TORSDOF 3
