REMARK  Name = ZINC08270501
REMARK  5 active torsions:
REMARK  status: ('A' for Active; 'I' for Inactive)
REMARK    1  A    between atoms: C_1  and  C_2
REMARK    2  A    between atoms: N_11  and  C_15
REMARK    3  A    between atoms: C_15  and  C_16
REMARK    4  A    between atoms: C_20  and  C_29
REMARK    5  A    between atoms: N_31  and  C_32
REMARK                            x       y       z     vdW  Elec       q    Type
REMARK                         _______ _______ _______ _____ _____    ______ ____
ROOT
ATOM      1  C   UNL     1       3.355   0.684   1.199  0.00  0.00    +0.238 C 
ATOM      2  O   UNL     1       3.940   0.574   0.143  0.00  0.00    -0.274 OA
ATOM      3  N   UNL     1       2.088   1.142   1.224  0.00  0.00    -0.263 N 
ATOM      4  C   UNL     1       1.321   1.198   2.480  0.00  0.00    +0.168 C 
ATOM      5  C   UNL     1       0.557   2.530   2.498  0.00  0.00    +0.276 C 
ATOM      6  O   UNL     1      -0.288   2.592   1.347  0.00  0.00    -0.476 OA
ATOM      7  C   UNL     1       0.267   2.309   0.139  0.00  0.00    +0.143 A 
ATOM      8  C   UNL     1       1.451   1.582   0.050  0.00  0.00    +0.078 A 
ATOM      9  C   UNL     1       2.000   1.293  -1.188  0.00  0.00    +0.027 A 
ATOM     10  C   UNL     1       1.371   1.731  -2.340  0.00  0.00    +0.002 A 
ATOM     11  C   UNL     1       0.198   2.457  -2.255  0.00  0.00    +0.004 A 
ATOM     12  C   UNL     1      -0.355   2.746  -1.021  0.00  0.00    +0.047 A 
ENDROOT
BRANCH   5  13
ATOM     13  C   UNL     1      -0.281   2.614   3.748  0.00  0.00    +0.255 C 
ATOM     14  O   UNL     1      -1.491   2.632   3.667  0.00  0.00    -0.272 OA
ATOM     15  N   UNL     1       0.314   2.669   4.956  0.00  0.00    -0.315 N 
ATOM     16  C   UNL     1      -0.500   2.751   6.171  0.00  0.00    +0.128 C 
ATOM     17  H   UNL     1       1.282   2.654   5.021  0.00  0.00    +0.148 HD
ENDBRANCH   5  13
BRANCH   1  18
ATOM     18  C   UNL     1       4.045   0.307   2.485  0.00  0.00    +0.214 C 
BRANCH  18  28
ATOM     19  C   UNL     1       6.989  -0.681  -0.712  0.00  0.00    +0.010 C 
ATOM     20  C   UNL     1       7.730  -1.575   0.284  0.00  0.00    +0.018 C 
ATOM     21  C   UNL     1       9.240  -1.414   0.088  0.00  0.00    +0.006 C 
ATOM     22  C   UNL     1       9.981  -2.293   1.098  0.00  0.00    +0.000 C 
ATOM     23  C   UNL     1       9.611  -1.864   2.519  0.00  0.00    +0.003 C 
ATOM     24  C   UNL     1       8.102  -2.027   2.724  0.00  0.00    +0.035 C 
ATOM     25  C   UNL     1       7.355  -1.173   1.706  0.00  0.00    +0.115 C 
ATOM     26  C   UNL     1       5.863  -1.292   1.916  0.00  0.00    +0.247 C 
ATOM     27  O   UNL     1       5.189  -2.297   1.838  0.00  0.00    -0.273 OA
ATOM     28  N   UNL     1       5.439  -0.045   2.207  0.00  0.00    -0.215 N 
ATOM     29  C   UNL     1       6.452   0.831   2.214  0.00  0.00    +0.310 C 
ATOM     30  O   UNL     1       6.320   2.015   2.454  0.00  0.00    -0.252 OA
ATOM     31  N   UNL     1       7.633   0.252   1.927  0.00  0.00    -0.285 N 
ATOM     32  H   UNL     1       8.498   0.690   1.875  0.00  0.00    +0.151 HD
ENDBRANCH  18  28
ENDBRANCH   1  18
TORSDOF 3
