REMARK  Name = ZINC43769391
REMARK  10 active torsions:
REMARK  status: ('A' for Active; 'I' for Inactive)
REMARK    1  A    between atoms: C_1  and  C_2
REMARK    2  A    between atoms: C_3  and  C_37
REMARK    3  A    between atoms: C_7  and  C_10
REMARK    4  A    between atoms: C_10  and  C_11
REMARK    5  A    between atoms: C_10  and  C_12
REMARK    6  A    between atoms: C_10  and  O_36
REMARK    7  A    between atoms: C_12  and  O_35
REMARK    8  A    between atoms: C_15  and  O_34
REMARK    9  A    between atoms: C_16  and  C_33
REMARK   10  A    between atoms: C_26  and  C_32
REMARK                            x       y       z     vdW  Elec       q    Type
REMARK                         _______ _______ _______ _____ _____    ______ ____
ROOT
ATOM      1  C   UNL     1      -0.724  -4.179   1.757  0.00  0.00    +0.106 C 
ATOM      2  C   UNL     1       0.141  -4.832   0.646  0.00  0.00    +0.041 C 
ATOM      3  C   UNL     1       0.366  -6.308   1.081  0.00  0.00    +0.038 C 
ATOM      4  C   UNL     1       0.266  -6.204   2.612  0.00  0.00    +0.078 C 
ATOM      5  C   UNL     1      -0.982  -5.298   2.765  0.00  0.00    +0.029 C 
ATOM      6  C   UNL     1      -1.119  -4.931   4.224  0.00  0.00    +0.013 C 
ATOM      7  C   UNL     1      -1.307  -6.209   5.052  0.00  0.00    +0.006 C 
ATOM      8  C   UNL     1      -0.186  -7.221   4.836  0.00  0.00    +0.013 C 
ATOM      9  C   UNL     1       0.036  -7.495   3.352  0.00  0.00    +0.029 C 
ATOM     10  C   UNL     1       1.182  -8.486   3.155  0.00  0.00    +0.034 C 
ATOM     11  C   UNL     1       2.410  -7.972   3.844  0.00  0.00    -0.026 C 
ATOM     12  C   UNL     1       2.344  -7.277   4.940  0.00  0.00    -0.056 C 
ATOM     13  C   UNL     1       1.059  -6.904   5.630  0.00  0.00    +0.054 C 
ATOM     14  C   UNL     1       1.138  -5.460   6.056  0.00  0.00    +0.166 C 
ATOM     15  O   UNL     1       0.184  -4.892   6.565  0.00  0.00    -0.292 OA
ATOM     16  C   UNL     1       2.392  -4.711   5.929  0.00  0.00    +0.043 C 
ATOM     17  C   UNL     1       3.554  -5.302   5.701  0.00  0.00    -0.019 C 
ATOM     18  C   UNL     1       3.645  -6.800   5.562  0.00  0.00    +0.058 C 
ATOM     19  C   UNL     1       0.988  -7.751   6.920  0.00  0.00    +0.024 C 
ATOM     20  C   UNL     1      -2.253  -6.027   2.306  0.00  0.00    +0.017 C 
ENDROOT
BRANCH   1  21
ATOM     21  C   UNL     1       0.009  -2.998   2.384  0.00  0.00    +0.129 C 
ATOM     22  C   UNL     1      -0.864  -2.379   3.478  0.00  0.00    +0.048 C 
BRANCH  21  29
ATOM     23  C   UNL     1       1.686   1.665   1.230  0.00  0.00    +0.039 C 
ATOM     24  C   UNL     1       1.463   0.213   0.896  0.00  0.00    -0.059 C 
ATOM     25  C   UNL     1       1.747  -0.222  -0.327  0.00  0.00    +0.033 C 
ATOM     26  C   UNL     1       1.525  -1.639  -0.667  0.00  0.00    +0.335 C 
ATOM     27  O   UNL     1       1.612  -2.034  -1.813  0.00  0.00    -0.245 OA
ATOM     28  O   UNL     1       1.218  -2.487   0.348  0.00  0.00    -0.455 OA
ATOM     29  C   UNL     1       0.298  -1.949   1.309  0.00  0.00    +0.215 C 
ATOM     30  C   UNL     1       0.930  -0.712   1.955  0.00  0.00    +0.078 C 
ATOM     31  C   UNL     1       2.294   0.728  -1.361  0.00  0.00    +0.051 C 
ENDBRANCH  21  29
BRANCH  21  32
ATOM     32  O   UNL     1       1.239  -3.448   2.954  0.00  0.00    -0.382 OA
ATOM     33  H   UNL     1       1.843  -3.852   2.317  0.00  0.00    +0.210 HD
ENDBRANCH  21  32
ENDBRANCH   1  21
BRANCH   4  34
ATOM     34  O   UNL     1       1.433  -5.537   3.109  0.00  0.00    -0.388 OA
ATOM     35  H   UNL     1       2.261  -6.000   2.921  0.00  0.00    +0.210 HD
ENDBRANCH   4  34
BRANCH   1  36
ATOM     36  O   UNL     1      -1.969  -3.741   1.200  0.00  0.00    -0.385 OA
ATOM     37  H   UNL     1      -1.878  -3.061   0.518  0.00  0.00    +0.210 HD
ENDBRANCH   1  36
TORSDOF 5
