REMARK  Name = ZINC16627758
REMARK  11 active torsions:
REMARK  status: ('A' for Active; 'I' for Inactive)
REMARK    1  A    between atoms: C_1  and  C_2
REMARK    2  A    between atoms: C_2  and  C_3
REMARK    3  A    between atoms: C_3  and  N_51
REMARK    4  A    between atoms: C_4  and  C_5
REMARK    5  A    between atoms: C_4  and  N_51
REMARK    6  A    between atoms: N_7  and  C_8
REMARK    7  A    between atoms: C_13  and  S_14
REMARK    8  A    between atoms: S_14  and  C_15
REMARK    9  A    between atoms: C_16  and  C_17
REMARK   10  A    between atoms: C_16  and  N_51
REMARK   11  A    between atoms: N_19  and  C_20
REMARK                            x       y       z     vdW  Elec       q    Type
REMARK                         _______ _______ _______ _____ _____    ______ ____
ROOT
ATOM      1  N   UNL     1       1.569   3.271  -1.300  0.00  0.00    +0.391 N 
ATOM      2  H   UNL     1       0.933   3.391  -2.097  0.00  0.00    -0.080 HD
ENDROOT
BRANCH   1   3
ATOM      3  C   UNL     1       0.941   2.364  -0.316  0.00  0.00    -0.078 C 
BRANCH   3   5
ATOM      4  C   UNL     1      -1.211   1.789   0.815  0.00  0.00    +0.002 C 
ATOM      5  C   UNL     1      -0.542   2.721  -0.197  0.00  0.00    -0.022 C 
ENDBRANCH   3   5
ENDBRANCH   1   3
BRANCH   1   6
ATOM      6  C   UNL     1       2.840   2.691  -1.783  0.00  0.00    +0.020 C 
BRANCH   6   7
ATOM      7  C   UNL     1       2.534   1.460  -2.598  0.00  0.00    +0.201 C 
ATOM      8  O   UNL     1       1.385   1.100  -2.743  0.00  0.00    -0.278 OA
ATOM      9  N   UNL     1       3.537   0.761  -3.165  0.00  0.00    -0.286 N 
ATOM     10  H   UNL     1       4.459   0.999  -2.980  0.00  0.00    +0.155 HD
BRANCH   9  11
ATOM     11  C   UNL     1       3.247  -0.310  -4.021  0.00  0.00    +0.047 A 
ATOM     12  C   UNL     1       1.992  -0.417  -4.601  0.00  0.00    +0.024 A 
ATOM     13  C   UNL     1       1.710  -1.471  -5.450  0.00  0.00    +0.002 A 
ATOM     14  C   UNL     1       2.674  -2.427  -5.716  0.00  0.00    +0.001 A 
ATOM     15  C   UNL     1       3.925  -2.332  -5.138  0.00  0.00    +0.016 A 
ATOM     16  C   UNL     1       4.219  -1.274  -4.289  0.00  0.00    +0.029 A 
BRANCH  16  17
ATOM     17  S   UNL     1       5.814  -1.151  -3.550  0.00  0.00    -0.127 S 
ATOM     18  C   UNL     1       6.705  -2.598  -4.184  0.00  0.00    +0.090 C 
ENDBRANCH  16  17
ENDBRANCH   9  11
ENDBRANCH   6   7
ENDBRANCH   1   6
BRANCH   1  19
ATOM     19  C   UNL     1       1.819   4.590  -0.682  0.00  0.00    +0.020 C 
BRANCH  19  20
ATOM     20  C   UNL     1       1.942   5.619  -1.776  0.00  0.00    +0.201 C 
ATOM     21  O   UNL     1       1.870   5.280  -2.939  0.00  0.00    -0.278 OA
ATOM     22  N   UNL     1       2.139   6.915  -1.464  0.00  0.00    -0.286 N 
ATOM     23  H   UNL     1       2.281   7.175  -0.540  0.00  0.00    +0.155 HD
BRANCH  22  24
ATOM     24  C   UNL     1       2.137   7.887  -2.472  0.00  0.00    +0.052 A 
ATOM     25  C   UNL     1       1.556   7.611  -3.703  0.00  0.00    +0.026 A 
ATOM     26  C   UNL     1       1.556   8.570  -4.696  0.00  0.00    +0.022 A 
ATOM     27  C   UNL     1       2.133   9.807  -4.466  0.00  0.00    +0.042 A 
ATOM     28  C   UNL     1       2.713  10.085  -3.241  0.00  0.00    +0.041 A 
ATOM     29  C   UNL     1       2.711   9.131  -2.241  0.00  0.00    +0.064 A 
ATOM     30 CL   UNL     1       3.432   9.483  -0.702  0.00  0.00    -0.082 Cl
ATOM     31 CL   UNL     1       2.131  11.011  -5.717  0.00  0.00    -0.083 Cl
ENDBRANCH  22  24
ENDBRANCH  19  20
ENDBRANCH   1  19
TORSDOF 9
