REMARK  Name = ZINC38783012
REMARK  8 active torsions:
REMARK  status: ('A' for Active; 'I' for Inactive)
REMARK    1  A    between atoms: C_1  and  C_2
REMARK    2  A    between atoms: C_2  and  C_3
REMARK    3  A    between atoms: C_3  and  C_4
REMARK    4  A    between atoms: C_4  and  C_5
REMARK    5  A    between atoms: C_8  and  C_11
REMARK    6  A    between atoms: N_13  and  C_14
REMARK    7  A    between atoms: C_14  and  C_15
REMARK    8  A    between atoms: C_15  and  C_16
REMARK                            x       y       z     vdW  Elec       q    Type
REMARK                         _______ _______ _______ _____ _____    ______ ____
ROOT
ATOM      1  C   UNL     1     -10.730  -5.493  -2.535  0.00  0.00    +0.217 C 
ATOM      2  O   UNL     1     -11.291  -5.704  -1.480  0.00  0.00    -0.276 OA
ATOM      3  N   UNL     1     -11.372  -5.725  -3.697  0.00  0.00    -0.302 N 
ATOM      4  C   UNL     1     -10.704  -5.480  -4.983  0.00  0.00    +0.106 C 
ATOM      5  C   UNL     1     -10.785  -6.753  -5.830  0.00  0.00    +0.009 C 
ATOM      6  C   UNL     1     -12.245  -7.189  -5.952  0.00  0.00    -0.037 C 
ATOM      7  C   UNL     1     -12.812  -7.493  -4.565  0.00  0.00    +0.009 C 
ATOM      8  C   UNL     1     -12.750  -6.234  -3.703  0.00  0.00    +0.106 C 
ATOM      9  C   UNL     1     -12.338  -8.437  -6.832  0.00  0.00    +0.140 C 
ATOM     10  C   UNL     1     -11.878  -7.998  -8.219  0.00  0.00    +0.042 C 
ATOM     11  N   UNL     1     -10.915  -8.773  -8.534  0.00  0.00    -0.243 NA
ATOM     12  C   UNL     1     -10.596  -9.614  -7.520  0.00  0.00    +0.216 C 
ATOM     13  N   UNL     1     -11.369  -9.470  -6.464  0.00  0.00    -0.264 NA
ATOM     14  C   UNL     1     -12.461  -6.781  -8.891  0.00  0.00    +0.034 C 
ATOM     15  C   UNL     1     -12.429  -5.658  -7.837  0.00  0.00    -0.076 C 
ATOM     16  N   UNL     1     -13.029  -6.118  -6.583  0.00  0.00    +0.385 N 
ATOM     17  H   UNL     1     -13.960  -6.460  -6.771  0.00  0.00    -0.085 HD
ATOM     18  H   UNL     1     -13.091  -5.338  -5.945  0.00  0.00    -0.085 HD
ENDROOT
BRANCH   1  19
ATOM     19  C   UNL     1      -9.317  -4.971  -2.546  0.00  0.00    +0.114 C 
BRANCH  19  20
ATOM     20  C   UNL     1      -8.827  -4.795  -1.107  0.00  0.00    +0.113 C 
BRANCH  20  23
ATOM     21  C   UNL     1      -6.811  -4.056   0.045  0.00  0.00    +0.244 C 
ATOM     22  O   UNL     1      -7.373  -4.268   1.102  0.00  0.00    -0.270 OA
ATOM     23  N   UNL     1      -7.453  -4.288  -1.117  0.00  0.00    -0.311 N 
ATOM     24  H   UNL     1      -7.004  -4.119  -1.960  0.00  0.00    +0.149 HD
BRANCH  21  28
ATOM     25  C   UNL     1      -2.826  -2.585   0.015  0.00  0.00    -0.047 A 
ATOM     26  C   UNL     1      -3.463  -2.825   1.220  0.00  0.00    +0.004 A 
ATOM     27  C   UNL     1      -4.757  -3.302   1.237  0.00  0.00    +0.013 A 
ATOM     28  C   UNL     1      -5.424  -3.544   0.035  0.00  0.00    +0.037 A 
ATOM     29  C   UNL     1      -4.776  -3.300  -1.177  0.00  0.00    +0.013 A 
ATOM     30  C   UNL     1      -3.484  -2.817  -1.180  0.00  0.00    +0.004 A 
BRANCH  25  31
ATOM     31  C   UNL     1      -1.413  -2.063   0.004  0.00  0.00    +0.035 C 
BRANCH  31  32
ATOM     32  C   UNL     1      -1.433  -0.534   0.013  0.00  0.00    +0.004 C 
BRANCH  32  34
ATOM     33  C   UNL     1      -0.019   1.526   0.010  0.00  0.00    +0.004 C 
ATOM     34  C   UNL     1       0.002  -0.004   0.002  0.00  0.00    -0.003 C 
ENDBRANCH  32  34
ENDBRANCH  31  32
ENDBRANCH  25  31
ENDBRANCH  21  28
ENDBRANCH  20  23
ENDBRANCH  19  20
ENDBRANCH   1  19
TORSDOF 7
