REMARK  Name = ZINC15971531
REMARK  4 active torsions:
REMARK  status: ('A' for Active; 'I' for Inactive)
REMARK    1  A    between atoms: C_7  and  C_11
REMARK    2  A    between atoms: C_11  and  C_12
REMARK    3  A    between atoms: N_20  and  C_23
REMARK    4  A    between atoms: C_23  and  C_24
REMARK                            x       y       z     vdW  Elec       q    Type
REMARK                         _______ _______ _______ _____ _____    ______ ____
ROOT
ATOM      1  C   UNL     1       0.236  -3.589  -1.455  0.00  0.00    +0.072 C 
ATOM      2  C   UNL     1      -0.656  -4.849  -1.485  0.00  0.00    +0.107 C 
ATOM      3  C   UNL     1      -1.726  -4.552  -2.573  0.00  0.00    +0.122 C 
ATOM      4  C   UNL     1      -1.416  -5.564  -3.652  0.00  0.00    +0.228 C 
ATOM      5  O   UNL     1      -2.018  -5.680  -4.698  0.00  0.00    -0.275 OA
ATOM      6  N   UNL     1      -0.374  -6.313  -3.273  0.00  0.00    -0.239 N 
ATOM      7  C   UNL     1       0.135  -6.003  -2.058  0.00  0.00    +0.227 C 
ATOM      8  O   UNL     1       1.069  -6.550  -1.514  0.00  0.00    -0.275 OA
ATOM      9  C   UNL     1      -1.401  -3.136  -3.061  0.00  0.00    +0.136 C 
ATOM     10  N   UNL     1      -0.623  -2.498  -1.988  0.00  0.00    -0.295 NA
ATOM     11  C   UNL     1      -2.648  -2.365  -3.390  0.00  0.00    +0.005 A 
ATOM     12  C   UNL     1      -3.757  -2.001  -2.661  0.00  0.00    +0.027 A 
ATOM     13  C   UNL     1      -4.770  -1.271  -3.259  0.00  0.00    +0.041 A 
ATOM     14  C   UNL     1      -4.664  -0.909  -4.591  0.00  0.00    +0.022 A 
ATOM     15  C   UNL     1      -3.554  -1.273  -5.324  0.00  0.00    +0.025 A 
ATOM     16  C   UNL     1      -2.531  -2.008  -4.730  0.00  0.00    +0.039 A 
ATOM     17  N   UNL     1      -1.328  -2.488  -5.255  0.00  0.00    -0.283 N 
ATOM     18  C   UNL     1      -0.608  -3.163  -4.339  0.00  0.00    +0.243 C 
ATOM     19  O   UNL     1       0.472  -3.689  -4.510  0.00  0.00    -0.273 OA
ATOM     20 CL   UNL     1      -6.170  -0.811  -2.342  0.00  0.00    -0.084 Cl
ATOM     21  H   UNL     1      -1.238  -2.140  -1.273  0.00  0.00    +0.124 HD
ATOM     22  H   UNL     1      -1.045  -2.352  -6.173  0.00  0.00    +0.155 HD
ENDROOT
BRANCH   1  23
ATOM     23  C   UNL     1       0.666  -3.275  -0.021  0.00  0.00    +0.056 C 
BRANCH  23  30
ATOM     24  C   UNL     1      -0.017   1.362   0.009  0.00  0.00    +0.001 A 
ATOM     25  C   UNL     1       1.170   2.083   0.002  0.00  0.00    +0.002 A 
ATOM     26  C   UNL     1       2.386   1.436  -0.013  0.00  0.00    +0.026 A 
ATOM     27  C   UNL     1       2.428   0.046  -0.021  0.00  0.00    +0.047 A 
ATOM     28  C   UNL     1       1.223  -0.681  -0.013  0.00  0.00    +0.003 A 
ATOM     29  C   UNL     1       0.002  -0.004   0.002  0.00  0.00    +0.010 A 
ATOM     30  C   UNL     1       1.604  -2.095  -0.025  0.00  0.00    -0.021 A 
ATOM     31  C   UNL     1       2.945  -2.141  -0.038  0.00  0.00    +0.087 A 
ATOM     32  N   UNL     1       3.455  -0.871  -0.036  0.00  0.00    -0.360 N 
ATOM     33  H   UNL     1       4.399  -0.650  -0.044  0.00  0.00    +0.165 HD
ENDBRANCH  23  30
ENDBRANCH   1  23
BRANCH   6  34
ATOM     34  C   UNL     1       0.171  -7.390  -4.104  0.00  0.00    +0.148 C 
BRANCH  34  35
ATOM     35  C   UNL     1       1.261  -6.828  -5.017  0.00  0.00    +0.136 C 
ATOM     36  C   UNL     1       1.757  -7.928  -5.980  0.00  0.00    +0.035 C 
ATOM     37  C   UNL     1       3.286  -7.657  -6.030  0.00  0.00    +0.031 C 
ATOM     38  C   UNL     1       3.546  -7.167  -4.584  0.00  0.00    +0.160 C 
ATOM     39  O   UNL     1       2.380  -6.401  -4.232  0.00  0.00    -0.375 OA
ENDBRANCH  34  35
ENDBRANCH   6  34
TORSDOF 4
