REMARK  Name = ZINC09455715
REMARK  8 active torsions:
REMARK  status: ('A' for Active; 'I' for Inactive)
REMARK    1  A    between atoms: C_4  and  C_7
REMARK    2  A    between atoms: C_7  and  C_8
REMARK    3  A    between atoms: C_8  and  C_9
REMARK    4  A    between atoms: C_10  and  C_29
REMARK    5  A    between atoms: C_10  and  C_33
REMARK    6  A    between atoms: N_18  and  C_21
REMARK    7  A    between atoms: C_21  and  C_22
REMARK    8  A    between atoms: C_22  and  C_23
REMARK                            x       y       z     vdW  Elec       q    Type
REMARK                         _______ _______ _______ _____ _____    ______ ____
ROOT
ATOM      1  C   UNL     1       0.522   2.300   0.494  0.00  0.00    +0.075 C 
ATOM      2  C   UNL     1       0.002  -0.004   0.002  0.00  0.00    +0.264 C 
ATOM      3  C   UNL     1       1.355  -0.052  -0.650  0.00  0.00    +0.098 A 
ATOM      4  C   UNL     1       1.743  -1.172  -1.403  0.00  0.00    +0.262 A 
ATOM      5  O   UNL     1       0.983  -2.116  -1.538  0.00  0.00    -0.267 OA
ATOM      6  N   UNL     1       2.964  -1.195  -1.975  0.00  0.00    -0.275 N 
ATOM      7  H   UNL     1       3.244  -1.990  -2.513  0.00  0.00    +0.173 HD
ATOM      8  C   UNL     1       3.808  -0.158  -1.831  0.00  0.00    +0.331 A 
ATOM      9  O   UNL     1       4.905  -0.201  -2.354  0.00  0.00    -0.246 OA
ATOM     10  N   UNL     1       3.458   0.927  -1.115  0.00  0.00    -0.281 N 
ATOM     11  C   UNL     1       2.224   0.991  -0.519  0.00  0.00    +0.119 A 
ATOM     12  N   UNL     1       1.849   2.099   0.205  0.00  0.00    -0.290 N 
ATOM     13  H   UNL     1       2.517   2.733   0.510  0.00  0.00    +0.155 HD
ATOM     14  N   UNL     1      -0.428   1.376   0.425  0.00  0.00    -0.352 N 
ATOM     15  H   UNL     1      -1.407   1.591   0.649  0.00  0.00    +0.162 HD
ENDROOT
BRANCH   2  16
ATOM     16  C   UNL     1       0.008  -0.907   1.237  0.00  0.00    +0.426 C 
ATOM     17  F   UNL     1      -1.260  -0.898   1.828  0.00  0.00    -0.167 F 
ATOM     18  F   UNL     1       0.337  -2.213   0.859  0.00  0.00    -0.167 F 
ATOM     19  F   UNL     1       0.954  -0.435   2.155  0.00  0.00    -0.167 F 
ENDBRANCH   2  16
BRANCH   2  20
ATOM     20  C   UNL     1      -1.048  -0.514  -0.987  0.00  0.00    +0.426 C 
ATOM     21  F   UNL     1      -0.822   0.057  -2.243  0.00  0.00    -0.167 F 
ATOM     22  F   UNL     1      -0.958  -1.907  -1.085  0.00  0.00    -0.167 F 
ATOM     23  F   UNL     1      -2.324  -0.161  -0.536  0.00  0.00    -0.167 F 
ENDBRANCH   2  20
BRANCH   1  24
ATOM     24  C   UNL     1       0.066   3.669   0.928  0.00  0.00    +0.074 C 
BRANCH  24  25
ATOM     25  C   UNL     1      -1.442   3.645   1.190  0.00  0.00    +0.042 C 
BRANCH  25  29
ATOM     26  C   UNL     1      -2.735   7.527   2.420  0.00  0.00    +0.000 A 
ATOM     27  C   UNL     1      -2.729   7.193   1.078  0.00  0.00    +0.000 A 
ATOM     28  C   UNL     1      -2.311   5.937   0.680  0.00  0.00    +0.003 A 
ATOM     29  C   UNL     1      -1.898   5.015   1.624  0.00  0.00    -0.047 A 
ATOM     30  C   UNL     1      -1.909   5.347   2.966  0.00  0.00    +0.003 A 
ATOM     31  C   UNL     1      -2.322   6.605   3.363  0.00  0.00    +0.000 A 
ENDBRANCH  25  29
ENDBRANCH  24  25
ENDBRANCH   1  24
BRANCH  10  32
ATOM     32  C   UNL     1       4.396   2.043  -0.973  0.00  0.00    +0.133 C 
BRANCH  32  33
ATOM     33  C   UNL     1       4.179   3.041  -2.113  0.00  0.00    +0.057 C 
BRANCH  33  34
ATOM     34  C   UNL     1       5.145   4.188  -1.966  0.00  0.00    -0.046 A 
ATOM     35  C   UNL     1       4.784   5.306  -1.237  0.00  0.00    +0.004 A 
ATOM     36  C   UNL     1       5.672   6.357  -1.098  0.00  0.00    +0.000 A 
ATOM     37  C   UNL     1       6.916   6.295  -1.698  0.00  0.00    +0.000 A 
ATOM     38  C   UNL     1       7.274   5.179  -2.433  0.00  0.00    +0.000 A 
ATOM     39  C   UNL     1       6.388   4.126  -2.567  0.00  0.00    +0.004 A 
ENDBRANCH  33  34
ENDBRANCH  32  33
ENDBRANCH  10  32
TORSDOF 8
