REMARK  Name = ZINC20709294
REMARK  8 active torsions:
REMARK  status: ('A' for Active; 'I' for Inactive)
REMARK    1  A    between atoms: C_1  and  C_2
REMARK    2  A    between atoms: C_5  and  N_9
REMARK    3  A    between atoms: C_6  and  C_8
REMARK    4  A    between atoms: N_9  and  S_10
REMARK    5  A    between atoms: S_10  and  C_13
REMARK    6  A    between atoms: C_26  and  C_29
REMARK    7  A    between atoms: C_31  and  N_36
REMARK    8  A    between atoms: C_34  and  O_35
REMARK                            x       y       z     vdW  Elec       q    Type
REMARK                         _______ _______ _______ _____ _____    ______ ____
ROOT
ATOM      1  C   UNL     1      -2.900  -0.094   2.404  0.00  0.00    +0.109 A 
ATOM      2  C   UNL     1      -1.587  -0.369   2.741  0.00  0.00    +0.030 A 
ATOM      3  C   UNL     1      -1.194  -0.308   4.063  0.00  0.00    +0.025 A 
ATOM      4  C   UNL     1      -2.116   0.016   5.049  0.00  0.00    +0.031 A 
ATOM      5  C   UNL     1      -3.434   0.290   4.716  0.00  0.00    -0.018 A 
ATOM      6  C   UNL     1      -3.817   0.230   3.383  0.00  0.00    +0.034 A 
ATOM      7  C   UNL     1      -4.461   0.649   5.743  0.00  0.00    +0.049 C 
ATOM      8  C   UNL     1      -5.402  -0.502   6.007  0.00  0.00    -0.023 C 
ATOM      9  C   UNL     1      -5.732  -0.536   7.275  0.00  0.00    -0.030 C 
ATOM     10  C   UNL     1      -5.059   0.595   8.029  0.00  0.00    +0.033 C 
ATOM     11  C   UNL     1      -3.848   0.963   7.122  0.00  0.00    +0.029 C 
ATOM     12  C   UNL     1      -2.727  -0.033   7.433  0.00  0.00    +0.108 C 
ATOM     13  N   UNL     1      -1.704   0.061   6.385  0.00  0.00    -0.336 N 
ATOM     14  H   UNL     1      -0.644   0.164   6.660  0.00  0.00    +0.147 HD
ENDROOT
BRANCH  12  15
ATOM     15  C   UNL     1      -3.289  -1.431   7.465  0.00  0.00    +0.017 A 
ATOM     16  C   UNL     1      -3.470  -2.131   6.288  0.00  0.00    +0.041 A 
ATOM     17  C   UNL     1      -3.980  -3.416   6.318  0.00  0.00    +0.127 A 
ATOM     18  C   UNL     1      -4.321  -3.999   7.525  0.00  0.00    +0.036 A 
ATOM     19  C   UNL     1      -4.147  -3.301   8.704  0.00  0.00    +0.048 A 
ATOM     20  C   UNL     1      -3.629  -2.014   8.677  0.00  0.00    +0.122 A 
BRANCH  17  21
ATOM     21  N   UNL     1      -4.168  -4.166   5.056  0.00  0.00    +0.056 N 
ATOM     22  O   UNL     1      -4.622  -5.295   5.081  0.00  0.00    -0.126 OA
ATOM     23  O   UNL     1      -3.868  -3.653   3.993  0.00  0.00    -0.126 OA
ENDBRANCH  17  21
BRANCH  20  24
ATOM     24  O   UNL     1      -3.457  -1.325   9.836  0.00  0.00    -0.506 OA
ATOM     25  H   UNL     1      -3.728  -1.788  10.796  0.00  0.00    +0.292 HD
ENDBRANCH  20  24
ENDBRANCH  12  15
BRANCH   1  26
ATOM     26  S   UNL     1      -3.406  -0.165   0.718  0.00  0.00    +0.072 S 
ATOM     27  O   UNL     1      -4.807  -0.406   0.724  0.00  0.00    -0.150 OA
ATOM     28  O   UNL     1      -2.489  -1.023   0.054  0.00  0.00    -0.150 OA
BRANCH  26  29
ATOM     29  N   UNL     1      -3.189   1.346   0.077  0.00  0.00    -0.216 N 
ATOM     30  H   UNL     1      -4.050   1.904  -0.321  0.00  0.00    +0.174 HD
BRANCH  29  35
ATOM     31  C   UNL     1       1.990   3.649  -0.078  0.00  0.00    +0.044 C 
ATOM     32  C   UNL     1       0.614   3.037  -0.034  0.00  0.00    -0.050 A 
ATOM     33  C   UNL     1       0.460   1.673  -0.206  0.00  0.00    +0.005 A 
ATOM     34  C   UNL     1      -0.800   1.109  -0.167  0.00  0.00    +0.025 A 
ATOM     35  C   UNL     1      -1.913   1.913   0.042  0.00  0.00    +0.051 A 
ATOM     36  C   UNL     1      -1.754   3.281   0.221  0.00  0.00    -0.028 A 
ATOM     37  C   UNL     1      -0.491   3.840   0.179  0.00  0.00    +0.008 A 
ATOM     38  C   UNL     1      -2.959   4.157   0.453  0.00  0.00    +0.046 C 
ENDBRANCH  29  35
ENDBRANCH  26  29
ENDBRANCH   1  26
TORSDOF 6
