REMARK  Name = ZINC39579886
REMARK  8 active torsions:
REMARK  status: ('A' for Active; 'I' for Inactive)
REMARK    1  A    between atoms: C_1  and  C_2
REMARK    2  A    between atoms: C_7  and  C_9
REMARK    3  A    between atoms: C_7  and  C_10
REMARK    4  A    between atoms: N_13  and  C_17
REMARK    5  A    between atoms: C_17  and  C_18
REMARK    6  A    between atoms: C_18  and  O_20
REMARK    7  A    between atoms: O_20  and  C_21
REMARK    8  A    between atoms: C_21  and  C_22
REMARK                            x       y       z     vdW  Elec       q    Type
REMARK                         _______ _______ _______ _____ _____    ______ ____
ROOT
ATOM      1  C   UNL     1      -0.041   1.452  -0.154  0.00  0.00    +0.007 C 
ATOM      2  C   UNL     1       0.006  -0.076  -0.084  0.00  0.00    -0.011 C 
ATOM      3  C   UNL     1      -1.421  -0.629  -0.033  0.00  0.00    +0.038 C 
ATOM      4  C   UNL     1      -1.375  -2.150   0.057  0.00  0.00    +0.113 C 
ATOM      5  C   UNL     1      -0.604  -2.594   1.295  0.00  0.00    +0.041 C 
ATOM      6  C   UNL     1       0.820  -2.034   1.239  0.00  0.00    -0.032 C 
ATOM      7  C   UNL     1       0.764  -0.507   1.173  0.00  0.00    +0.009 C 
ATOM      8  C   UNL     1       1.587  -2.463   2.492  0.00  0.00    +0.011 C 
ATOM      9  C   UNL     1       1.531  -2.573  -0.004  0.00  0.00    +0.011 C 
ATOM     10  C   UNL     1      -2.775  -2.720   0.075  0.00  0.00    +0.247 C 
ATOM     11  O   UNL     1      -3.639  -2.520   0.901  0.00  0.00    -0.273 OA
ATOM     12  N   UNL     1      -2.860  -3.499  -1.024  0.00  0.00    -0.213 N 
ATOM     13  C   UNL     1      -1.717  -3.495  -1.721  0.00  0.00    +0.310 C 
ATOM     14  O   UNL     1      -1.551  -4.120  -2.750  0.00  0.00    -0.252 OA
ATOM     15  N   UNL     1      -0.773  -2.719  -1.155  0.00  0.00    -0.285 N 
ATOM     16  H   UNL     1       0.127  -2.567  -1.483  0.00  0.00    +0.151 HD
ENDROOT
BRANCH  12  17
ATOM     17  C   UNL     1      -4.055  -4.255  -1.407  0.00  0.00    +0.238 C 
BRANCH  17  18
ATOM     18  C   UNL     1      -4.928  -3.401  -2.290  0.00  0.00    +0.326 C 
ATOM     19  O   UNL     1      -4.587  -2.277  -2.571  0.00  0.00    -0.249 OA
BRANCH  18  20
ATOM     20  O   UNL     1      -6.085  -3.890  -2.764  0.00  0.00    -0.454 OA
BRANCH  20  21
ATOM     21  C   UNL     1      -6.862  -3.026  -3.596  0.00  0.00    +0.328 C 
BRANCH  21  22
ATOM     22  C   UNL     1      -8.116  -3.741  -4.030  0.00  0.00    +0.256 C 
ATOM     23  O   UNL     1      -8.323  -4.879  -3.664  0.00  0.00    -0.272 OA
ATOM     24  N   UNL     1      -9.006  -3.116  -4.826  0.00  0.00    -0.268 N 
ATOM     25  C   UNL     1     -10.214  -3.737  -5.142  0.00  0.00    +0.125 A 
ATOM     26  C   UNL     1     -11.080  -3.137  -6.050  0.00  0.00    +0.045 A 
ATOM     27  C   UNL     1     -12.275  -3.763  -6.355  0.00  0.00    +0.025 A 
ATOM     28  C   UNL     1     -12.566  -4.973  -5.737  0.00  0.00    +0.059 A 
ATOM     29  C   UNL     1     -11.659  -5.511  -4.844  0.00  0.00    +0.132 A 
ATOM     30  N   UNL     1     -10.524  -4.893  -4.578  0.00  0.00    -0.239 NA
ATOM     31 CL   UNL     1     -14.052  -5.800  -6.084  0.00  0.00    -0.082 Cl
ATOM     32  H   UNL     1      -8.807  -2.235  -5.179  0.00  0.00    +0.156 HD
ENDBRANCH  21  22
ENDBRANCH  20  21
ENDBRANCH  18  20
ENDBRANCH  17  18
ENDBRANCH  12  17
TORSDOF 5
