REMARK  Name = ZINC59501244
REMARK  8 active torsions:
REMARK  status: ('A' for Active; 'I' for Inactive)
REMARK    1  A    between atoms: C_4  and  C_7
REMARK    2  A    between atoms: C_7  and  C_8
REMARK    3  A    between atoms: C_7  and  N_14
REMARK    4  A    between atoms: C_15  and  C_27
REMARK    5  A    between atoms: N_16  and  N_17
REMARK    6  A    between atoms: N_17  and  C_18
REMARK    7  A    between atoms: C_21  and  N_24
REMARK    8  A    between atoms: C_27  and  C_29
REMARK                            x       y       z     vdW  Elec       q    Type
REMARK                         _______ _______ _______ _____ _____    ______ ____
ROOT
ATOM      1  N   UNL     1       3.555  -1.822  -0.963  0.00  0.00    -0.358 N 
ATOM      2  C   UNL     1       3.804  -1.687  -2.230  0.00  0.00    +0.158 C 
ATOM      3  N   UNL     1       4.086  -0.441  -2.748  0.00  0.00    -0.249 N 
ATOM      4  H   UNL     1       4.162   0.324  -2.157  0.00  0.00    +0.171 HD
ATOM      5  H   UNL     1       3.269  -2.681  -0.614  0.00  0.00    +0.162 HD
ENDROOT
BRANCH   3   6
ATOM      6  N   UNL     1       4.262  -0.280  -4.128  0.00  0.00    -0.265 N 
ATOM      7  H   UNL     1       4.265  -1.056  -4.711  0.00  0.00    +0.170 HD
BRANCH   6   8
ATOM      8  C   UNL     1       4.433   0.997  -4.666  0.00  0.00    +0.045 A 
ATOM      9  C   UNL     1       4.435   2.109  -3.833  0.00  0.00    +0.026 A 
ATOM     10  C   UNL     1       4.604   3.371  -4.368  0.00  0.00    +0.034 A 
ATOM     11  C   UNL     1       4.772   3.528  -5.732  0.00  0.00    +0.126 A 
ATOM     12  C   UNL     1       4.771   2.424  -6.564  0.00  0.00    +0.034 A 
ATOM     13  C   UNL     1       4.608   1.159  -6.035  0.00  0.00    +0.026 A 
BRANCH  11  14
ATOM     14  N   UNL     1       4.952   4.883  -6.302  0.00  0.00    +0.056 N 
ATOM     15  O   UNL     1       4.953   5.849  -5.575  0.00  0.00    -0.126 OA
ATOM     16  O   UNL     1       5.098   5.022  -7.494  0.00  0.00    -0.126 OA
ENDBRANCH  11  14
ENDBRANCH   6   8
ENDBRANCH   3   6
BRANCH   2  17
ATOM     17  C   UNL     1       3.784  -2.876  -3.122  0.00  0.00    +0.225 C 
ATOM     18  O   UNL     1       2.925  -2.982  -3.974  0.00  0.00    -0.284 OA
BRANCH  17  19
ATOM     19  C   UNL     1       4.809  -3.927  -2.973  0.00  0.00    +0.025 A 
ATOM     20  C   UNL     1       5.737  -3.861  -1.930  0.00  0.00    +0.012 A 
ATOM     21  C   UNL     1       6.691  -4.846  -1.797  0.00  0.00    +0.001 A 
ATOM     22  C   UNL     1       6.733  -5.900  -2.693  0.00  0.00    +0.000 A 
ATOM     23  C   UNL     1       5.817  -5.973  -3.729  0.00  0.00    +0.001 A 
ATOM     24  C   UNL     1       4.853  -4.998  -3.871  0.00  0.00    +0.012 A 
ENDBRANCH  17  19
ENDBRANCH   2  17
BRANCH   1  25
ATOM     25  C   UNL     1       3.705  -0.677  -0.061  0.00  0.00    +0.141 C 
BRANCH  25  29
ATOM     26  C   UNL     1       0.120   1.646  -0.102  0.00  0.00    +0.000 A 
ATOM     27  C   UNL     1       1.351   2.274  -0.073  0.00  0.00    +0.000 A 
ATOM     28  C   UNL     1       2.511   1.523  -0.060  0.00  0.00    +0.006 A 
ATOM     29  C   UNL     1       2.440   0.142  -0.074  0.00  0.00    -0.021 A 
ATOM     30  C   UNL     1       1.210  -0.487  -0.102  0.00  0.00    +0.006 A 
ATOM     31  C   UNL     1       0.050   0.265  -0.117  0.00  0.00    +0.000 A 
ENDBRANCH  25  29
BRANCH  25  32
ATOM     32  C   UNL     1       3.968  -1.172   1.338  0.00  0.00    -0.021 A 
ATOM     33  C   UNL     1       3.293  -2.278   1.819  0.00  0.00    +0.006 A 
ATOM     34  C   UNL     1       3.535  -2.731   3.102  0.00  0.00    +0.000 A 
ATOM     35  C   UNL     1       4.452  -2.078   3.905  0.00  0.00    +0.000 A 
ATOM     36  C   UNL     1       5.127  -0.973   3.424  0.00  0.00    +0.000 A 
ATOM     37  C   UNL     1       4.889  -0.522   2.139  0.00  0.00    +0.006 A 
ENDBRANCH  25  32
ENDBRANCH   1  25
TORSDOF 8
