REMARK  Name = ZINC39684171
REMARK  11 active torsions:
REMARK  status: ('A' for Active; 'I' for Inactive)
REMARK    1  A    between atoms: C_1  and  C_2
REMARK    2  A    between atoms: C_2  and  C_3
REMARK    3  A    between atoms: C_3  and  C_4
REMARK    4  A    between atoms: C_4  and  C_5
REMARK    5  A    between atoms: C_5  and  C_6
REMARK    6  A    between atoms: C_6  and  C_7
REMARK    7  A    between atoms: C_11  and  C_20
REMARK    8  A    between atoms: N_22  and  C_23
REMARK    9  A    between atoms: C_23  and  C_24
REMARK   10  A    between atoms: C_24  and  C_25
REMARK   11  A    between atoms: C_30  and  C_34
REMARK                            x       y       z     vdW  Elec       q    Type
REMARK                         _______ _______ _______ _____ _____    ______ ____
ROOT
ATOM      1  C   UNL     1       2.304  -4.596   3.841  0.00  0.00    +0.216 C 
ATOM      2  O   UNL     1       2.819  -3.829   4.627  0.00  0.00    -0.276 OA
ATOM      3  N   UNL     1       2.459  -5.926   3.997  0.00  0.00    -0.300 N 
ATOM      4  C   UNL     1       1.917  -7.010   3.143  0.00  0.00    +0.121 C 
ATOM      5  C   UNL     1       3.053  -8.055   3.071  0.00  0.00    +0.100 C 
ATOM      6  C   UNL     1       3.897  -7.805   4.333  0.00  0.00    -0.004 C 
ATOM      7  C   UNL     1       3.215  -6.635   5.057  0.00  0.00    +0.115 C 
ATOM      8  C   UNL     1       5.322  -7.420   3.948  0.00  0.00    -0.010 C 
ATOM      9  C   UNL     1       6.156  -7.233   5.218  0.00  0.00    -0.082 C 
ATOM     10  N   UNL     1       6.156  -8.479   5.994  0.00  0.00    +0.379 N 
ATOM     11  C   UNL     1       4.793  -8.792   6.439  0.00  0.00    -0.082 C 
ATOM     12  C   UNL     1       3.901  -9.046   5.220  0.00  0.00    -0.010 C 
ATOM     13  H   UNL     1       6.502  -9.232   5.418  0.00  0.00    -0.086 HD
ATOM     14  H   UNL     1       6.755  -8.373   6.799  0.00  0.00    -0.086 HD
ENDROOT
BRANCH   5  15
ATOM     15  C   UNL     1       2.484  -9.450   3.086  0.00  0.00    +0.218 C 
ATOM     16  O   UNL     1       1.448  -9.676   3.673  0.00  0.00    -0.275 OA
ATOM     17  N   UNL     1       3.127 -10.446   2.445  0.00  0.00    -0.315 N 
ATOM     18  H   UNL     1       3.956 -10.265   1.975  0.00  0.00    +0.149 HD
BRANCH  17  19
ATOM     19  C   UNL     1       2.574 -11.803   2.459  0.00  0.00    +0.109 C 
BRANCH  19  20
ATOM     20  C   UNL     1       3.491 -12.736   1.665  0.00  0.00    +0.056 C 
BRANCH  20  21
ATOM     21  C   UNL     1       2.922 -14.131   1.679  0.00  0.00    -0.021 A 
ATOM     22  C   UNL     1       1.908 -14.668   0.767  0.00  0.00    +0.003 A 
ATOM     23  C   UNL     1       1.195 -14.140  -0.310  0.00  0.00    +0.010 A 
ATOM     24  C   UNL     1       0.293 -14.923  -0.975  0.00  0.00    +0.001 A 
ATOM     25  C   UNL     1       0.081 -16.238  -0.588  0.00  0.00    +0.005 A 
ATOM     26  C   UNL     1       0.774 -16.779   0.473  0.00  0.00    -0.027 A 
ATOM     27  C   UNL     1       1.697 -16.001   1.164  0.00  0.00    +0.050 A 
ATOM     28  N   UNL     1       2.526 -16.242   2.237  0.00  0.00    -0.360 N 
ATOM     29  C   UNL     1       3.252 -15.119   2.525  0.00  0.00    +0.087 A 
ATOM     30  C   UNL     1       0.532 -18.209   0.884  0.00  0.00    +0.046 C 
ATOM     31  H   UNL     1       2.588 -17.084   2.714  0.00  0.00    +0.165 HD
ENDBRANCH  20  21
ENDBRANCH  19  20
ENDBRANCH  17  19
ENDBRANCH   5  15
BRANCH   1  32
ATOM     32  C   UNL     1       1.491  -4.062   2.689  0.00  0.00    +0.096 C 
BRANCH  32  33
ATOM     33  C   UNL     1       1.474  -2.533   2.744  0.00  0.00    +0.009 C 
BRANCH  33  34
ATOM     34  C   UNL     1       0.649  -1.991   1.575  0.00  0.00    +0.000 C 
BRANCH  34  35
ATOM     35  C   UNL     1       0.631  -0.462   1.629  0.00  0.00    -0.000 C 
BRANCH  35  37
ATOM     36  C   UNL     1      -0.211   1.609   0.514  0.00  0.00    +0.004 C 
ATOM     37  C   UNL     1      -0.194   0.081   0.460  0.00  0.00    -0.003 C 
ENDBRANCH  35  37
ENDBRANCH  34  35
ENDBRANCH  33  34
ENDBRANCH  32  33
ENDBRANCH   1  32
TORSDOF 9
