REMARK  Name = ZINC66215307
REMARK  9 active torsions:
REMARK  status: ('A' for Active; 'I' for Inactive)
REMARK    1  A    between atoms: C_1  and  C_2
REMARK    2  A    between atoms: C_2  and  C_3
REMARK    3  A    between atoms: C_3  and  C_4
REMARK    4  A    between atoms: C_4  and  N_5
REMARK    5  A    between atoms: C_6  and  C_8
REMARK    6  A    between atoms: C_11  and  N_14
REMARK    7  A    between atoms: C_15  and  C_17
REMARK    8  A    between atoms: C_17  and  N_18
REMARK    9  A    between atoms: N_18  and  C_19
REMARK                            x       y       z     vdW  Elec       q    Type
REMARK                         _______ _______ _______ _____ _____    ______ ____
ROOT
ATOM      1  N   UNL     1       4.343  -5.719   7.195  0.00  0.00    -0.284 N 
ATOM      2  C   UNL     1       4.405  -4.954   8.303  0.00  0.00    +0.234 C 
ATOM      3  O   UNL     1       3.800  -3.904   8.350  0.00  0.00    -0.274 OA
ATOM      4  H   UNL     1       4.764  -6.593   7.185  0.00  0.00    +0.155 HD
ENDROOT
BRANCH   1   8
ATOM      5  C   UNL     1       2.343  -4.332   3.815  0.00  0.00    +0.037 A 
ATOM      6  C   UNL     1       3.020  -3.435   4.645  0.00  0.00    +0.015 A 
ATOM      7  C   UNL     1       3.680  -3.897   5.762  0.00  0.00    +0.024 A 
ATOM      8  C   UNL     1       3.673  -5.255   6.064  0.00  0.00    +0.033 A 
ATOM      9  C   UNL     1       3.000  -6.151   5.239  0.00  0.00    +0.024 A 
ATOM     10  C   UNL     1       2.333  -5.695   4.124  0.00  0.00    +0.015 A 
BRANCH   5  12
ATOM     11  N   UNL     1       1.645  -2.526   2.320  0.00  0.00    -0.311 N 
ATOM     12  C   UNL     1       1.635  -3.841   2.617  0.00  0.00    +0.244 C 
ATOM     13  O   UNL     1       1.042  -4.622   1.898  0.00  0.00    -0.270 OA
ATOM     14  H   UNL     1       2.118  -1.903   2.893  0.00  0.00    +0.149 HD
BRANCH  11  15
ATOM     15  C   UNL     1       0.941  -2.038   1.131  0.00  0.00    +0.104 C 
BRANCH  15  16
ATOM     16  C   UNL     1       1.109  -0.521   1.026  0.00  0.00    +0.018 C 
BRANCH  16  18
ATOM     17  C   UNL     1       0.542   1.505  -0.321  0.00  0.00    +0.004 C 
ATOM     18  C   UNL     1       0.374  -0.012  -0.216  0.00  0.00    -0.002 C 
ENDBRANCH  16  18
ENDBRANCH  15  16
ENDBRANCH  11  15
ENDBRANCH   5  12
ENDBRANCH   1   8
BRANCH   2  19
ATOM     19  C   UNL     1       5.228  -5.402   9.483  0.00  0.00    +0.198 C 
BRANCH  19  20
ATOM     20  N   UNL     1       5.133  -4.405  10.552  0.00  0.00    -0.334 N 
ATOM     21  H   UNL     1       4.596  -3.607  10.424  0.00  0.00    +0.147 HD
BRANCH  20  22
ATOM     22  C   UNL     1       5.817  -4.602  11.755  0.00  0.00    +0.047 A 
ATOM     23  C   UNL     1       6.591  -5.741  11.937  0.00  0.00    +0.024 A 
ATOM     24  C   UNL     1       7.265  -5.934  13.126  0.00  0.00    +0.003 A 
ATOM     25  C   UNL     1       7.171  -4.995  14.137  0.00  0.00    +0.021 A 
ATOM     26  C   UNL     1       6.401  -3.859  13.961  0.00  0.00    +0.061 A 
ATOM     27  C   UNL     1       5.728  -3.657  12.769  0.00  0.00    +0.080 A 
ATOM     28 CL   UNL     1       4.768  -2.228  12.545  0.00  0.00    -0.080 Cl
ATOM     29 CL   UNL     1       6.285  -2.683  15.233  0.00  0.00    -0.082 Cl
ENDBRANCH  20  22
ENDBRANCH  19  20
ENDBRANCH   2  19
TORSDOF 8
