REMARK  Name = ZINC22920533
REMARK  10 active torsions:
REMARK  status: ('A' for Active; 'I' for Inactive)
REMARK    1  A    between atoms: C_1  and  C_2
REMARK    2  A    between atoms: C_2  and  C_3
REMARK    3  A    between atoms: C_5  and  C_34
REMARK    4  A    between atoms: C_6  and  C_11
REMARK    5  A    between atoms: C_11  and  N_12
REMARK    6  A    between atoms: N_15  and  C_18
REMARK    7  A    between atoms: C_18  and  C_19
REMARK    8  A    between atoms: C_34  and  O_36
REMARK    9  A    between atoms: O_36  and  C_37
REMARK   10  A    between atoms: C_37  and  C_38
REMARK                            x       y       z     vdW  Elec       q    Type
REMARK                         _______ _______ _______ _____ _____    ______ ____
ROOT
ATOM      1  N   UNL     1       3.014  -4.671  -2.765  0.00  0.00    -0.300 NA
ATOM      2  C   UNL     1       2.010  -4.225  -3.742  0.00  0.00    +0.066 C 
ATOM      3  C   UNL     1       2.479  -4.588  -5.153  0.00  0.00    -0.063 C 
ATOM      4  N   UNL     1       2.685  -6.040  -5.240  0.00  0.00    +0.386 N 
ATOM      5  C   UNL     1       3.689  -6.486  -4.263  0.00  0.00    -0.063 C 
ATOM      6  C   UNL     1       3.220  -6.123  -2.852  0.00  0.00    +0.066 C 
ATOM      7  H   UNL     1       1.732  -6.534  -4.997  0.00  0.00    -0.081 HD
ENDROOT
BRANCH   1   8
ATOM      8  C   UNL     1       2.636  -4.274  -1.403  0.00  0.00    +0.135 C 
BRANCH   8  11
ATOM      9  C   UNL     1       1.607  -0.585  -0.956  0.00  0.00    +0.113 C 
ATOM     10  C   UNL     1       1.526  -2.094  -1.063  0.00  0.00    +0.075 C 
ATOM     11  C   UNL     1       2.672  -2.771  -1.289  0.00  0.00    +0.038 C 
ATOM     12  N   UNL     1       3.864  -2.117  -1.416  0.00  0.00    -0.271 N 
ATOM     13  C   UNL     1       3.994  -0.787  -1.331  0.00  0.00    +0.304 C 
ATOM     14  O   UNL     1       5.098  -0.294  -1.457  0.00  0.00    -0.253 OA
ATOM     15  N   UNL     1       2.940   0.024  -1.108  0.00  0.00    -0.292 N 
ATOM     16  H   UNL     1       4.787  -2.686  -1.600  0.00  0.00    +0.156 HD
ATOM     17  H   UNL     1       3.057   1.115  -1.038  0.00  0.00    +0.151 HD
BRANCH   9  19
ATOM     18  C   UNL     1       1.007   1.347   0.509  0.00  0.00    +0.006 C 
ATOM     19  C   UNL     1       1.056  -0.179   0.412  0.00  0.00    +0.024 C 
ENDBRANCH   9  19
BRANCH  10  20
ATOM     20  C   UNL     1       0.290  -2.771  -0.932  0.00  0.00    +0.338 C 
ATOM     21  O   UNL     1      -0.490  -2.799  -1.866  0.00  0.00    -0.245 OA
BRANCH  20  22
ATOM     22  O   UNL     1      -0.023  -3.385   0.228  0.00  0.00    -0.462 OA
BRANCH  22  23
ATOM     23  C   UNL     1      -1.287  -4.049   0.290  0.00  0.00    +0.229 C 
ATOM     24  C   UNL     1      -1.463  -4.681   1.672  0.00  0.00    +0.048 C 
ENDBRANCH  22  23
ENDBRANCH  20  22
ENDBRANCH  10  20
ENDBRANCH   8  11
ENDBRANCH   1   8
BRANCH   4  25
ATOM     25  C   UNL     1       3.063  -6.437  -6.603  0.00  0.00    -0.003 C 
BRANCH  25  26
ATOM     26  C   UNL     1       3.032  -7.940  -6.715  0.00  0.00    +0.094 A 
ATOM     27  N   UNL     1       3.459  -8.532  -7.859  0.00  0.00    -0.312 N 
ATOM     28  H   UNL     1       3.820  -7.916  -8.696  0.00  0.00    +0.170 HD
ATOM     29  C   UNL     1       3.453  -9.871  -8.000  0.00  0.00    +0.260 A 
ATOM     30  O   UNL     1       3.844 -10.388  -9.032  0.00  0.00    -0.267 OA
ATOM     31  C   UNL     1       2.974 -10.678  -6.916  0.00  0.00    +0.075 A 
ATOM     32  C   UNL     1       2.872 -12.135  -6.846  0.00  0.00    -0.023 A 
ATOM     33  C   UNL     1       2.383 -12.660  -5.703  0.00  0.00    -0.004 A 
ATOM     34  S   UNL     1       2.034 -11.264  -4.668  0.00  0.00    -0.073 S 
ATOM     35  C   UNL     1       2.548  -9.977  -5.777  0.00  0.00    +0.116 A 
ATOM     36  N   UNL     1       2.589  -8.649  -5.711  0.00  0.00    -0.229 NA
ATOM     37  C   UNL     1       2.181 -14.110  -5.383  0.00  0.00    +0.043 C 
ATOM     38  C   UNL     1       2.266 -14.911  -6.691  0.00  0.00    +0.005 C 
ATOM     39  C   UNL     1       3.506 -14.456  -7.466  0.00  0.00    +0.005 C 
ATOM     40  C   UNL     1       3.294 -13.040  -8.001  0.00  0.00    +0.037 C 
ENDBRANCH  25  26
ENDBRANCH   4  25
TORSDOF 8
