REMARK  Name = ZINC38995008
REMARK  8 active torsions:
REMARK  status: ('A' for Active; 'I' for Inactive)
REMARK    1  A    between atoms: C_1  and  O_2
REMARK    2  A    between atoms: O_2  and  C_3
REMARK    3  A    between atoms: C_6  and  C_9
REMARK    4  A    between atoms: C_11  and  C_15
REMARK    5  A    between atoms: C_19  and  S_23
REMARK    6  A    between atoms: N_21  and  N_22
REMARK    7  A    between atoms: S_23  and  C_24
REMARK    8  A    between atoms: C_24  and  C_25
REMARK                            x       y       z     vdW  Elec       q    Type
REMARK                         _______ _______ _______ _____ _____    ______ ____
ROOT
ATOM      1  C   UNL     1      -7.080  -4.985   1.084  0.00  0.00    +0.244 C 
ATOM      2  N   UNL     1      -6.784  -4.228   2.307  0.00  0.00    -0.167 NA
ATOM      3  N   UNL     1      -7.803  -3.702   2.765  0.00  0.00    -0.159 NA
ATOM      4  C   UNL     1      -8.976  -4.006   1.935  0.00  0.00    +0.272 C 
ATOM      5  N   UNL     1      -8.555  -5.155   1.089  0.00  0.00    -0.183 NA
ENDROOT
BRANCH   1   8
ATOM      6  C   UNL     1      -4.890  -2.767  -0.143  0.00  0.00    +0.091 C 
ATOM      7  C   UNL     1      -5.124  -4.092  -0.206  0.00  0.00    +0.035 C 
ATOM      8  C   UNL     1      -6.638  -4.197  -0.150  0.00  0.00    +0.195 C 
ATOM      9  N   UNL     1      -7.068  -2.792  -0.056  0.00  0.00    -0.176 NA
ATOM     10  N   UNL     1      -6.061  -2.083  -0.053  0.00  0.00    -0.154 NA
BRANCH   6  14
ATOM     11  C   UNL     1      -1.031  -0.979  -0.200  0.00  0.00    +0.120 A 
ATOM     12  C   UNL     1      -2.163  -0.181  -0.105  0.00  0.00    +0.046 A 
ATOM     13  C   UNL     1      -3.415  -0.757  -0.087  0.00  0.00    +0.013 A 
ATOM     14  C   UNL     1      -3.544  -2.143  -0.163  0.00  0.00    +0.002 A 
ATOM     15  C   UNL     1      -2.406  -2.942  -0.258  0.00  0.00    +0.013 A 
ATOM     16  C   UNL     1      -1.156  -2.359  -0.281  0.00  0.00    +0.046 A 
BRANCH  11  18
ATOM     17  C   UNL     1       0.258   1.018  -0.131  0.00  0.00    +0.277 C 
ATOM     18  O   UNL     1       0.202  -0.408  -0.218  0.00  0.00    -0.495 OA
ENDBRANCH  11  18
ENDBRANCH   6  14
ENDBRANCH   1   8
BRANCH   5  19
ATOM     19  N   UNL     1      -8.932  -6.420   1.700  0.00  0.00    -0.263 NA
ATOM     20  H   UNL     1      -9.925  -6.576   1.623  0.00  0.00    +0.137 HD
ATOM     21  H   UNL     1      -8.413  -7.185   1.296  0.00  0.00    +0.137 HD
ENDBRANCH   5  19
BRANCH   4  22
ATOM     22  S   UNL     1     -10.384  -4.472   2.979  0.00  0.00    -0.107 S 
BRANCH  22  23
ATOM     23  C   UNL     1     -10.944  -2.898   3.688  0.00  0.00    +0.168 C 
BRANCH  23  24
ATOM     24  C   UNL     1     -12.046  -3.159   4.682  0.00  0.00    +0.228 C 
ATOM     25  O   UNL     1     -12.418  -4.294   4.891  0.00  0.00    -0.275 OA
ATOM     26  N   UNL     1     -12.620  -2.130   5.337  0.00  0.00    -0.270 N 
ATOM     27  C   UNL     1     -13.709  -2.359   6.177  0.00  0.00    +0.125 A 
ATOM     28  C   UNL     1     -14.364  -1.282   6.764  0.00  0.00    +0.045 A 
ATOM     29  C   UNL     1     -15.443  -1.522   7.595  0.00  0.00    +0.020 A 
ATOM     30  C   UNL     1     -15.832  -2.838   7.812  0.00  0.00    +0.036 A 
ATOM     31  C   UNL     1     -15.135  -3.859   7.196  0.00  0.00    +0.128 A 
ATOM     32  N   UNL     1     -14.113  -3.598   6.404  0.00  0.00    -0.239 NA
ATOM     33 BR   UNL     1     -17.300  -3.227   8.938  0.00  0.00    -0.049 Br
ATOM     34  H   UNL     1     -12.274  -1.230   5.225  0.00  0.00    +0.156 HD
ENDBRANCH  23  24
ENDBRANCH  22  23
ENDBRANCH   4  22
TORSDOF 7
