REMARK  Name = ZINC35476038
REMARK  8 active torsions:
REMARK  status: ('A' for Active; 'I' for Inactive)
REMARK    1  A    between atoms: C_1  and  C_2
REMARK    2  A    between atoms: C_4  and  N_14
REMARK    3  A    between atoms: C_10  and  O_12
REMARK    4  A    between atoms: O_12  and  C_13
REMARK    5  A    between atoms: N_14  and  N_15
REMARK    6  A    between atoms: N_15  and  C_16
REMARK    7  A    between atoms: N_26  and  C_29
REMARK    8  A    between atoms: C_33  and  C_35
REMARK                            x       y       z     vdW  Elec       q    Type
REMARK                         _______ _______ _______ _____ _____    ______ ____
ROOT
ATOM      1  C   UNL     1       1.411  -5.088  -3.675  0.00  0.00    +0.101 C 
ATOM      2  C   UNL     1       0.861  -6.350  -3.615  0.00  0.00    +0.060 C 
ATOM      3  C   UNL     1       0.271  -6.980  -4.814  0.00  0.00    +0.000 A 
ATOM      4  C   UNL     1       0.245  -6.333  -6.044  0.00  0.00    +0.009 A 
ATOM      5  C   UNL     1      -0.317  -6.964  -7.134  0.00  0.00    +0.001 A 
ATOM      6  C   UNL     1      -0.856  -8.236  -7.012  0.00  0.00    +0.001 A 
ATOM      7  C   UNL     1      -0.841  -8.894  -5.801  0.00  0.00    +0.014 A 
ATOM      8  C   UNL     1      -0.276  -8.274  -4.686  0.00  0.00    +0.046 A 
ATOM      9  C   UNL     1      -0.238  -8.940  -3.377  0.00  0.00    +0.258 C 
ATOM     10  O   UNL     1      -0.708 -10.056  -3.261  0.00  0.00    -0.269 OA
ATOM     11  N   UNL     1       0.307  -8.338  -2.308  0.00  0.00    -0.202 N 
ATOM     12  C   UNL     1       0.850  -7.110  -2.360  0.00  0.00    +0.259 C 
ATOM     13  O   UNL     1       1.332  -6.621  -1.355  0.00  0.00    -0.269 OA
ENDROOT
BRANCH  11  14
ATOM     14  C   UNL     1       0.315  -9.022  -1.086  0.00  0.00    +0.045 A 
ATOM     15  C   UNL     1      -0.817  -9.022  -0.281  0.00  0.00    +0.024 A 
ATOM     16  C   UNL     1      -0.806  -9.698   0.923  0.00  0.00    +0.002 A 
ATOM     17  C   UNL     1       0.330 -10.374   1.328  0.00  0.00    +0.012 A 
ATOM     18  C   UNL     1       1.459 -10.375   0.530  0.00  0.00    +0.057 A 
ATOM     19  C   UNL     1       1.452  -9.706  -0.678  0.00  0.00    +0.036 A 
BRANCH  18  20
ATOM     20  C   UNL     1       2.695 -11.112   0.976  0.00  0.00    +0.417 C 
ATOM     21  F   UNL     1       2.459 -11.711   2.218  0.00  0.00    -0.166 F 
ATOM     22  F   UNL     1       3.014 -12.099   0.036  0.00  0.00    -0.166 F 
ATOM     23  F   UNL     1       3.760 -10.212   1.087  0.00  0.00    -0.166 F 
ENDBRANCH  18  20
ENDBRANCH  11  14
BRANCH   1  24
ATOM     24  N   UNL     1       2.050  -4.574  -2.592  0.00  0.00    -0.272 N 
ATOM     25  H   UNL     1       2.198  -5.126  -1.808  0.00  0.00    +0.169 HD
BRANCH  24  26
ATOM     26  N   UNL     1       2.496  -3.246  -2.607  0.00  0.00    -0.252 N 
ATOM     27  H   UNL     1       2.348  -2.694  -3.391  0.00  0.00    +0.171 HD
BRANCH  26  31
ATOM     28  C   UNL     1       4.710   0.569  -0.467  0.00  0.00    +0.044 C 
ATOM     29  C   UNL     1       4.229  -0.859  -0.455  0.00  0.00    -0.038 A 
ATOM     30  C   UNL     1       3.587  -1.390  -1.534  0.00  0.00    +0.047 A 
ATOM     31  C   UNL     1       3.148  -2.720  -1.502  0.00  0.00    +0.113 A 
ATOM     32  N   UNL     1       3.340  -3.483  -0.445  0.00  0.00    -0.342 N 
ATOM     33  C   UNL     1       3.964  -3.017   0.644  0.00  0.00    +0.051 A 
ATOM     34  C   UNL     1       4.436  -1.682   0.670  0.00  0.00    +0.002 A 
ATOM     35  C   UNL     1       5.096  -1.198   1.812  0.00  0.00    +0.014 A 
ATOM     36  C   UNL     1       5.282  -2.015   2.883  0.00  0.00    +0.046 A 
ATOM     37  C   UNL     1       4.825  -3.336   2.865  0.00  0.00    +0.122 A 
ATOM     38  C   UNL     1       4.164  -3.837   1.766  0.00  0.00    +0.071 A 
ATOM     39  H   UNL     1       3.023  -4.400  -0.456  0.00  0.00    +0.167 HD
BRANCH  37  40
ATOM     40  O   UNL     1       5.024  -4.131   3.948  0.00  0.00    -0.495 OA
ATOM     41  C   UNL     1       5.704  -3.551   5.062  0.00  0.00    +0.277 C 
ENDBRANCH  37  40
ENDBRANCH  26  31
ENDBRANCH  24  26
ENDBRANCH   1  24
TORSDOF 6
