REMARK  Name = ZINC58452639
REMARK  6 active torsions:
REMARK  status: ('A' for Active; 'I' for Inactive)
REMARK    1  A    between atoms: C_3  and  N_18
REMARK    2  A    between atoms: C_4  and  S_10
REMARK    3  A    between atoms: C_6  and  N_7
REMARK    4  A    between atoms: S_10  and  N_13
REMARK    5  A    between atoms: C_24  and  N_28
REMARK    6  A    between atoms: C_25  and  C_26
REMARK                            x       y       z     vdW  Elec       q    Type
REMARK                         _______ _______ _______ _____ _____    ______ ____
ROOT
ATOM      1  C   UNL     1       0.275   1.401  -0.909  0.00  0.00    +0.034 A 
ATOM      2  C   UNL     1       1.434   2.094  -0.618  0.00  0.00    +0.027 A 
ATOM      3  C   UNL     1       2.566   1.407  -0.199  0.00  0.00    +0.057 A 
ATOM      4  C   UNL     1       2.528   0.023  -0.074  0.00  0.00    +0.129 A 
ATOM      5  C   UNL     1       1.367  -0.663  -0.367  0.00  0.00    +0.063 A 
ATOM      6  C   UNL     1       0.241   0.024  -0.784  0.00  0.00    +0.128 A 
ENDROOT
BRANCH   3   7
ATOM      7  N   UNL     1       3.739   2.104   0.097  0.00  0.00    -0.323 N 
ATOM      8  C   UNL     1       4.699   2.463  -0.959  0.00  0.00    +0.110 C 
ATOM      9  C   UNL     1       4.777   3.986  -1.085  0.00  0.00    +0.056 C 
ATOM     10  C   UNL     1       4.928   4.594   0.301  0.00  0.00    -0.015 A 
ATOM     11  C   UNL     1       4.596   3.908   1.416  0.00  0.00    +0.013 A 
ATOM     12  S   UNL     1       4.939   5.017   2.749  0.00  0.00    -0.076 S 
ATOM     13  C   UNL     1       5.503   6.340   1.883  0.00  0.00    +0.081 A 
ATOM     14  C   UNL     1       5.429   5.934   0.559  0.00  0.00    +0.083 A 
ATOM     15  C   UNL     1       4.058   2.514   1.479  0.00  0.00    +0.147 C 
BRANCH  13  16
ATOM     16  N   UNL     1       5.941   7.557   2.377  0.00  0.00    -0.352 N 
ATOM     17  H   UNL     1       5.944   7.719   3.333  0.00  0.00    +0.143 HD
ATOM     18  H   UNL     1       6.245   8.247   1.766  0.00  0.00    +0.143 HD
ENDBRANCH  13  16
BRANCH  14  19
ATOM     19  C   UNL     1       5.830   6.799  -0.509  0.00  0.00    +0.102 C 
ATOM     20  N   UNL     1       6.147   7.485  -1.357  0.00  0.00    -0.191 NA
ENDBRANCH  14  19
ENDBRANCH   3   7
BRANCH   6  21
ATOM     21  N   UNL     1      -1.002  -0.715  -1.098  0.00  0.00    +0.056 N 
ATOM     22  O   UNL     1      -1.986  -0.115  -1.463  0.00  0.00    -0.126 OA
ATOM     23  O   UNL     1      -1.033  -1.919  -0.989  0.00  0.00    -0.126 OA
ENDBRANCH   6  21
BRANCH   4  24
ATOM     24  S   UNL     1       3.961  -0.854   0.457  0.00  0.00    +0.063 S 
ATOM     25  O   UNL     1       5.030  -0.427  -0.376  0.00  0.00    -0.153 OA
ATOM     26  O   UNL     1       4.006  -0.739   1.873  0.00  0.00    -0.153 OA
BRANCH  24  27
ATOM     27  N   UNL     1       3.708  -2.455   0.120  0.00  0.00    -0.177 NA
ATOM     28  C   UNL     1       3.182  -3.456   1.060  0.00  0.00    +0.109 C 
ATOM     29  C   UNL     1       3.143  -4.807   0.316  0.00  0.00    +0.018 C 
ATOM     30  C   UNL     1       4.180  -4.607  -0.822  0.00  0.00    +0.018 C 
ATOM     31  C   UNL     1       3.967  -3.112  -1.174  0.00  0.00    +0.109 C 
ENDBRANCH  24  27
ENDBRANCH   4  24
TORSDOF 6
