REMARK  Name = ZINC09014225
REMARK  3 active torsions:
REMARK  status: ('A' for Active; 'I' for Inactive)
REMARK    1  A    between atoms: C_12  and  C_14
REMARK    2  A    between atoms: C_14  and  C_15
REMARK    3  A    between atoms: N_20  and  C_23
REMARK                            x       y       z     vdW  Elec       q    Type
REMARK                         _______ _______ _______ _____ _____    ______ ____
ROOT
ATOM      1  C   UNL     1      -4.582   2.914   3.134  0.00  0.00    +0.000 A 
ATOM      2  C   UNL     1      -4.800   4.255   3.388  0.00  0.00    +0.002 A 
ATOM      3  C   UNL     1      -3.755   5.154   3.332  0.00  0.00    +0.023 A 
ATOM      4  C   UNL     1      -2.471   4.717   3.018  0.00  0.00    +0.036 A 
ATOM      5  C   UNL     1      -2.263   3.365   2.762  0.00  0.00    -0.028 A 
ATOM      6  C   UNL     1      -3.309   2.471   2.820  0.00  0.00    +0.004 A 
ATOM      7  C   UNL     1      -0.798   3.224   2.460  0.00  0.00    +0.050 C 
ATOM      8  C   UNL     1      -0.114   2.258   3.435  0.00  0.00    +0.088 C 
ATOM      9  C   UNL     1      -0.043   0.910   2.664  0.00  0.00    +0.074 C 
ATOM     10  C   UNL     1      -0.706   1.197   1.301  0.00  0.00    -0.049 C 
ATOM     11  C   UNL     1       1.441   0.700   2.465  0.00  0.00    +0.228 C 
ATOM     12  O   UNL     1       1.944  -0.241   1.890  0.00  0.00    -0.275 OA
ATOM     13  N   UNL     1       2.113   1.715   3.021  0.00  0.00    -0.210 N 
ATOM     14  C   UNL     1       1.340   2.644   3.595  0.00  0.00    +0.229 C 
ATOM     15  O   UNL     1       1.743   3.640   4.157  0.00  0.00    -0.275 OA
ATOM     16  C   UNL     1      -0.239   4.615   2.579  0.00  0.00    +0.211 C 
ATOM     17  O   UNL     1       0.916   4.948   2.415  0.00  0.00    -0.277 OA
ATOM     18  N   UNL     1      -1.270   5.420   2.902  0.00  0.00    -0.286 N 
ATOM     19  H   UNL     1      -1.187   6.377   3.038  0.00  0.00    +0.155 HD
ATOM     20  N   UNL     1      -0.583   2.648   1.143  0.00  0.00    +0.394 N 
ATOM     21  H   UNL     1       0.354   2.890   0.799  0.00  0.00    -0.083 HD
ATOM     22  H   UNL     1      -1.290   2.995   0.484  0.00  0.00    -0.083 HD
ENDROOT
BRANCH  13  23
ATOM     23  C   UNL     1       3.512   1.798   3.003  0.00  0.00    +0.044 A 
ATOM     24  C   UNL     1       4.182   1.988   1.802  0.00  0.00    +0.025 A 
ATOM     25  C   UNL     1       5.560   2.075   1.787  0.00  0.00    +0.022 A 
ATOM     26  C   UNL     1       6.274   1.962   2.967  0.00  0.00    +0.041 A 
ATOM     27  C   UNL     1       5.609   1.766   4.165  0.00  0.00    +0.022 A 
ATOM     28  C   UNL     1       4.231   1.684   4.185  0.00  0.00    +0.025 A 
ATOM     29 CL   UNL     1       8.007   2.065   2.945  0.00  0.00    -0.084 Cl
ENDBRANCH  13  23
BRANCH  10  30
ATOM     30  C   UNL     1       0.027   0.450   0.185  0.00  0.00    +0.080 C 
BRANCH  30  31
ATOM     31  C   UNL     1      -0.686   0.675  -1.123  0.00  0.00    +0.209 C 
ATOM     32  O   UNL     1      -1.683   1.365  -1.159  0.00  0.00    -0.276 OA
ATOM     33  N   UNL     1      -0.217   0.110  -2.253  0.00  0.00    -0.329 N 
ATOM     34  H   UNL     1       0.580  -0.442  -2.224  0.00  0.00    +0.145 HD
ATOM     35  H   UNL     1      -0.676   0.255  -3.095  0.00  0.00    +0.145 HD
ENDBRANCH  30  31
ENDBRANCH  10  30
TORSDOF 3
