REMARK  Name = ZINC64169704
REMARK  6 active torsions:
REMARK  status: ('A' for Active; 'I' for Inactive)
REMARK    1  A    between atoms: C_7  and  C_10
REMARK    2  A    between atoms: C_10  and  C_11
REMARK    3  A    between atoms: C_11  and  C_13
REMARK    4  A    between atoms: C_11  and  N_30
REMARK    5  A    between atoms: N_15  and  N_16
REMARK    6  A    between atoms: C_17  and  C_19
REMARK                            x       y       z     vdW  Elec       q    Type
REMARK                         _______ _______ _______ _____ _____    ______ ____
ROOT
ATOM      1  C   UNL     1       0.457  -3.653  -1.462  0.00  0.00    +0.166 C 
ENDROOT
BRANCH   1   2
ATOM      2  N   UNL     1       1.712  -4.162  -2.020  0.00  0.00    -0.288 N 
ATOM      3  C   UNL     1       2.336  -5.203  -1.437  0.00  0.00    +0.298 C 
ATOM      4  O   UNL     1       1.858  -5.722  -0.446  0.00  0.00    -0.253 OA
ATOM      5  N   UNL     1       3.491  -5.671  -1.950  0.00  0.00    -0.313 N 
ATOM      6  H   UNL     1       2.094  -3.748  -2.811  0.00  0.00    +0.151 HD
ATOM      7  H   UNL     1       3.873  -5.258  -2.740  0.00  0.00    +0.146 HD
ATOM      8  H   UNL     1       3.941  -6.421  -1.530  0.00  0.00    +0.146 HD
ENDBRANCH   1   2
BRANCH   1   9
ATOM      9  C   UNL     1      -0.578  -4.750  -1.471  0.00  0.00    +0.250 C 
ATOM     10  O   UNL     1      -0.231  -5.909  -1.548  0.00  0.00    -0.272 OA
ATOM     11  N   UNL     1      -1.887  -4.441  -1.394  0.00  0.00    -0.233 N 
ATOM     12  H   UNL     1      -2.164  -3.513  -1.333  0.00  0.00    +0.173 HD
BRANCH  11  13
ATOM     13  N   UNL     1      -2.849  -5.460  -1.403  0.00  0.00    -0.231 N 
ATOM     14  C   UNL     1      -4.159  -5.152  -1.326  0.00  0.00    +0.273 C 
ATOM     15  O   UNL     1      -4.505  -3.992  -1.249  0.00  0.00    -0.270 OA
ATOM     16  H   UNL     1      -2.572  -6.388  -1.465  0.00  0.00    +0.173 HD
BRANCH  14  17
ATOM     17  C   UNL     1      -5.193  -6.248  -1.336  0.00  0.00    +0.297 C 
ATOM     18  C   UNL     1      -5.053  -7.102  -0.068  0.00  0.00    +0.283 C 
ATOM     19  O   UNL     1      -6.057  -8.122  -0.103  0.00  0.00    -0.484 OA
ATOM     20  C   UNL     1      -7.317  -7.729  -0.434  0.00  0.00    +0.162 A 
ATOM     21  C   UNL     1      -8.388  -8.560  -0.142  0.00  0.00    +0.049 A 
ATOM     22  C   UNL     1      -9.674  -8.177  -0.475  0.00  0.00    +0.004 A 
ATOM     23  C   UNL     1      -9.895  -6.964  -1.101  0.00  0.00    +0.004 A 
ATOM     24  C   UNL     1      -8.832  -6.130  -1.393  0.00  0.00    +0.049 A 
ATOM     25  C   UNL     1      -7.540  -6.509  -1.060  0.00  0.00    +0.163 A 
ATOM     26  O   UNL     1      -6.504  -5.674  -1.349  0.00  0.00    -0.472 OA
ENDBRANCH  14  17
ENDBRANCH  11  13
ENDBRANCH   1   9
BRANCH   1  27
ATOM     27  C   UNL     1       0.691  -3.186  -0.024  0.00  0.00    +0.065 C 
BRANCH  27  34
ATOM     28  C   UNL     1      -0.016   1.348   0.009  0.00  0.00    +0.001 A 
ATOM     29  C   UNL     1       1.166   2.101   0.002  0.00  0.00    +0.002 A 
ATOM     30  C   UNL     1       2.391   1.535  -0.013  0.00  0.00    +0.026 A 
ATOM     31  C   UNL     1       2.529   0.120  -0.022  0.00  0.00    +0.043 A 
ATOM     32  N   UNL     1       3.587  -0.654  -0.037  0.00  0.00    -0.380 N 
ATOM     33  C   UNL     1       3.143  -2.053  -0.041  0.00  0.00    +0.144 C 
ATOM     34  C   UNL     1       1.631  -2.008  -0.025  0.00  0.00    -0.039 C 
ATOM     35  C   UNL     1       1.295  -0.698  -0.014  0.00  0.00    -0.001 A 
ATOM     36  C   UNL     1       0.002  -0.004   0.002  0.00  0.00    +0.010 A 
ATOM     37  H   UNL     1       4.509  -0.353  -0.045  0.00  0.00    +0.160 HD
ENDBRANCH  27  34
ENDBRANCH   1  27
TORSDOF 6
