REMARK  Name = ZINC39659894
REMARK  3 active torsions:
REMARK  status: ('A' for Active; 'I' for Inactive)
REMARK    1  A    between atoms: C_9  and  C_12
REMARK    2  A    between atoms: C_16  and  C_25
REMARK    3  A    between atoms: N_27  and  C_28
REMARK                            x       y       z     vdW  Elec       q    Type
REMARK                         _______ _______ _______ _____ _____    ______ ____
ROOT
ATOM      1  C   UNL     1       4.998  -2.663  -0.159  0.00  0.00    +0.260 C 
ATOM      2  O   UNL     1       5.809  -2.094  -0.858  0.00  0.00    -0.271 OA
ATOM      3  N   UNL     1       5.249  -3.912   0.283  0.00  0.00    -0.297 N 
ATOM      4  C   UNL     1       4.344  -4.804   1.045  0.00  0.00    +0.121 C 
ATOM      5  C   UNL     1       4.591  -6.209   0.453  0.00  0.00    +0.100 C 
ATOM      6  C   UNL     1       6.002  -6.137  -0.154  0.00  0.00    -0.004 C 
ATOM      7  C   UNL     1       6.489  -4.705   0.111  0.00  0.00    +0.115 C 
ATOM      8  C   UNL     1       6.923  -7.144   0.529  0.00  0.00    -0.010 C 
ATOM      9  C   UNL     1       8.304  -7.094  -0.130  0.00  0.00    -0.082 C 
ATOM     10  N   UNL     1       8.178  -7.406  -1.559  0.00  0.00    +0.379 N 
ATOM     11  C   UNL     1       7.367  -6.380  -2.226  0.00  0.00    -0.082 C 
ATOM     12  C   UNL     1       5.946  -6.400  -1.655  0.00  0.00    -0.010 C 
ATOM     13  H   UNL     1       9.096  -7.432  -1.978  0.00  0.00    -0.086 HD
ATOM     14  H   UNL     1       7.736  -8.306  -1.668  0.00  0.00    -0.086 HD
ENDROOT
BRANCH   1  23
ATOM     15  C   UNL     1       0.267   1.569  -0.117  0.00  0.00    +0.004 A 
ATOM     16  C   UNL     1       1.484   2.224  -0.059  0.00  0.00    +0.004 A 
ATOM     17  C   UNL     1       2.661   1.500  -0.055  0.00  0.00    +0.049 A 
ATOM     18  C   UNL     1       2.625   0.115  -0.110  0.00  0.00    +0.163 A 
ATOM     19  C   UNL     1       1.403  -0.543  -0.166  0.00  0.00    +0.162 A 
ATOM     20  C   UNL     1       0.225   0.189  -0.170  0.00  0.00    +0.049 A 
ATOM     21  O   UNL     1       1.345  -1.902  -0.212  0.00  0.00    -0.484 OA
ATOM     22  C   UNL     1       2.548  -2.586  -0.581  0.00  0.00    +0.283 C 
ATOM     23  C   UNL     1       3.710  -1.976   0.215  0.00  0.00    +0.296 C 
ATOM     24  O   UNL     1       3.793  -0.584  -0.109  0.00  0.00    -0.473 OA
ENDBRANCH   1  23
BRANCH   5  25
ATOM     25  C   UNL     1       3.573  -6.514  -0.616  0.00  0.00    +0.218 C 
ATOM     26  O   UNL     1       3.136  -5.621  -1.310  0.00  0.00    -0.275 OA
ATOM     27  N   UNL     1       3.148  -7.780  -0.801  0.00  0.00    -0.312 N 
ATOM     28  H   UNL     1       3.497  -8.495  -0.245  0.00  0.00    +0.149 HD
BRANCH  27  29
ATOM     29  C   UNL     1       2.159  -8.076  -1.840  0.00  0.00    +0.073 C 
ATOM     30  C   UNL     1       0.752  -7.841  -1.286  0.00  0.00    +0.022 C 
ATOM     31  C   UNL     1      -0.244  -7.759  -2.445  0.00  0.00    +0.002 C 
ATOM     32  C   UNL     1       0.341  -6.891  -3.561  0.00  0.00    +0.000 C 
ATOM     33  C   UNL     1       0.621  -7.760  -4.788  0.00  0.00    +0.000 C 
ATOM     34  C   UNL     1       1.886  -8.587  -4.548  0.00  0.00    +0.000 C 
ATOM     35  C   UNL     1       1.566  -9.745  -3.602  0.00  0.00    +0.002 C 
ATOM     36  C   UNL     1       2.297  -9.537  -2.274  0.00  0.00    +0.022 C 
ENDBRANCH  27  29
ENDBRANCH   5  25
TORSDOF 3
