REMARK  Name = ZINC01372513
REMARK  11 active torsions:
REMARK  status: ('A' for Active; 'I' for Inactive)
REMARK    1  A    between atoms: C_1  and  C_2
REMARK    2  A    between atoms: C_2  and  O_3
REMARK    3  A    between atoms: O_3  and  C_4
REMARK    4  A    between atoms: C_9  and  N_10
REMARK    5  A    between atoms: N_10  and  C_11
REMARK    6  A    between atoms: C_11  and  C_13
REMARK    7  A    between atoms: C_11  and  C_20
REMARK    8  A    between atoms: N_22  and  C_23
REMARK    9  A    between atoms: C_23  and  C_24
REMARK   10  A    between atoms: C_30  and  C_32
REMARK   11  A    between atoms: C_32  and  N_33
REMARK                            x       y       z     vdW  Elec       q    Type
REMARK                         _______ _______ _______ _____ _____    ______ ____
ROOT
ATOM      1  N   UNL     1      -3.567  -1.139   0.215  0.00  0.00    -0.250 N 
ATOM      2  C   UNL     1      -3.976  -0.869  -1.040  0.00  0.00    +0.242 C 
ATOM      3  O   UNL     1      -5.155  -0.696  -1.270  0.00  0.00    -0.273 OA
ENDROOT
BRANCH   1   9
ATOM      4  C   UNL     1      -1.412  -0.274   0.899  0.00  0.00    +0.142 A 
ATOM      5  C   UNL     1      -0.067  -0.478   1.164  0.00  0.00    +0.047 A 
ATOM      6  C   UNL     1       0.485  -1.736   1.008  0.00  0.00    +0.004 A 
ATOM      7  C   UNL     1      -0.301  -2.793   0.588  0.00  0.00    +0.002 A 
ATOM      8  C   UNL     1      -1.643  -2.597   0.321  0.00  0.00    +0.027 A 
ATOM      9  C   UNL     1      -2.205  -1.339   0.480  0.00  0.00    +0.079 A 
BRANCH   4  10
ATOM     10  O   UNL     1      -1.956   0.963   1.052  0.00  0.00    -0.490 OA
BRANCH  10  12
ATOM     11  C   UNL     1      -1.868   3.315   1.598  0.00  0.00    +0.048 C 
ATOM     12  C   UNL     1      -1.082   2.008   1.484  0.00  0.00    +0.226 C 
ENDBRANCH  10  12
ENDBRANCH   4  10
ENDBRANCH   1   9
BRANCH   1  13
ATOM     13  C   UNL     1      -4.545  -1.224   1.302  0.00  0.00    +0.200 C 
BRANCH  13  14
ATOM     14  C   UNL     1      -5.415  -2.438   1.101  0.00  0.00    +0.017 A 
ATOM     15  C   UNL     1      -5.039  -3.417   0.200  0.00  0.00    +0.009 A 
ATOM     16  C   UNL     1      -5.837  -4.530   0.016  0.00  0.00    +0.001 A 
ATOM     17  C   UNL     1      -7.011  -4.667   0.733  0.00  0.00    +0.003 A 
ATOM     18  C   UNL     1      -7.388  -3.691   1.635  0.00  0.00    +0.039 A 
ATOM     19  C   UNL     1      -6.587  -2.577   1.824  0.00  0.00    +0.129 A 
ATOM     20  F   UNL     1      -6.952  -1.625   2.710  0.00  0.00    -0.205 F 
ENDBRANCH  13  14
BRANCH  13  21
ATOM     21  C   UNL     1      -3.822  -1.336   2.620  0.00  0.00    +0.239 C 
ATOM     22  O   UNL     1      -2.790  -1.968   2.694  0.00  0.00    -0.273 OA
ATOM     23  N   UNL     1      -4.324  -0.734   3.717  0.00  0.00    -0.309 N 
ATOM     24  H   UNL     1      -5.150  -0.229   3.658  0.00  0.00    +0.149 HD
BRANCH  23  25
ATOM     25  C   UNL     1      -3.622  -0.843   4.998  0.00  0.00    +0.139 C 
BRANCH  25  26
ATOM     26  C   UNL     1      -4.385  -0.086   6.054  0.00  0.00    -0.030 A 
ATOM     27  C   UNL     1      -4.115   1.251   6.277  0.00  0.00    +0.005 A 
ATOM     28  C   UNL     1      -4.815   1.945   7.247  0.00  0.00    +0.000 A 
ATOM     29  C   UNL     1      -5.785   1.302   7.993  0.00  0.00    +0.000 A 
ATOM     30  C   UNL     1      -6.055  -0.036   7.769  0.00  0.00    +0.000 A 
ATOM     31  C   UNL     1      -5.358  -0.728   6.797  0.00  0.00    +0.005 A 
ENDBRANCH  25  26
ENDBRANCH  23  25
ENDBRANCH  13  21
ENDBRANCH   1  13
BRANCH   2  32
ATOM     32  C   UNL     1      -2.970  -0.782  -2.159  0.00  0.00    +0.242 C 
BRANCH  32  33
ATOM     33  N   UNL     1      -3.661  -0.480  -3.415  0.00  0.00    -0.235 N 
ATOM     34  C   UNL     1      -4.175  -1.388  -4.310  0.00  0.00    +0.090 A 
ATOM     35  C   UNL     1      -4.226  -2.777  -4.356  0.00  0.00    +0.029 A 
ATOM     36  C   UNL     1      -4.824  -3.400  -5.415  0.00  0.00    +0.002 A 
ATOM     37  C   UNL     1      -5.383  -2.658  -6.448  0.00  0.00    +0.002 A 
ATOM     38  C   UNL     1      -5.346  -1.295  -6.427  0.00  0.00    +0.032 A 
ATOM     39  C   UNL     1      -4.739  -0.631  -5.352  0.00  0.00    +0.113 A 
ATOM     40  N   UNL     1      -4.552   0.671  -5.060  0.00  0.00    -0.129 NA
ATOM     41  N   UNL     1      -3.934   0.793  -3.938  0.00  0.00    -0.064 NA
ENDBRANCH  32  33
ENDBRANCH   2  32
TORSDOF 10
