REMARK  Name = ZINC60274956
REMARK  6 active torsions:
REMARK  status: ('A' for Active; 'I' for Inactive)
REMARK    1  A    between atoms: C_1  and  C_2
REMARK    2  A    between atoms: C_7  and  S_15
REMARK    3  A    between atoms: C_12  and  C_14
REMARK    4  A    between atoms: S_15  and  N_18
REMARK    5  A    between atoms: N_18  and  C_19
REMARK    6  A    between atoms: C_22  and  N_25
REMARK                            x       y       z     vdW  Elec       q    Type
REMARK                         _______ _______ _______ _____ _____    ______ ____
ROOT
ATOM      1  N   UNL     1       6.342  -3.267  -1.085  0.00  0.00    -0.216 N 
ATOM      2  H   UNL     1       6.513  -2.716  -1.865  0.00  0.00    +0.174 HD
ENDROOT
BRANCH   1   3
ATOM      3  C   UNL     1       7.099  -3.087   0.077  0.00  0.00    +0.048 A 
ATOM      4  C   UNL     1       6.470  -3.035   1.315  0.00  0.00    +0.026 A 
ATOM      5  C   UNL     1       7.217  -2.857   2.462  0.00  0.00    +0.025 A 
ATOM      6  C   UNL     1       8.597  -2.729   2.379  0.00  0.00    +0.035 A 
ATOM      7  C   UNL     1       9.226  -2.781   1.142  0.00  0.00    +0.025 A 
ATOM      8  C   UNL     1       8.480  -2.965  -0.005  0.00  0.00    +0.026 A 
BRANCH   6   9
ATOM      9  N   UNL     1       9.356  -2.548   3.544  0.00  0.00    -0.269 N 
ATOM     10  C   UNL     1       8.973  -3.135   4.695  0.00  0.00    +0.306 C 
ATOM     11  O   UNL     1       8.020  -3.891   4.705  0.00  0.00    -0.252 OA
ATOM     12  N   UNL     1       9.647  -2.886   5.835  0.00  0.00    -0.285 N 
ATOM     13  C   UNL     1      10.772  -1.978   5.791  0.00  0.00    +0.109 C 
ATOM     14  C   UNL     1      12.065  -2.769   5.476  0.00  0.00    +0.019 C 
ATOM     15  C   UNL     1      12.457  -3.591   6.631  0.00  0.00    +0.002 C 
ATOM     16  C   UNL     1      11.442  -4.663   7.013  0.00  0.00    +0.002 C 
ATOM     17  C   UNL     1      10.393  -4.061   7.915  0.00  0.00    +0.019 C 
ATOM     18  C   UNL     1       9.202  -3.545   7.079  0.00  0.00    +0.109 C 
ATOM     19  H   UNL     1      10.156  -2.000   3.522  0.00  0.00    +0.156 HD
ENDBRANCH   6   9
ENDBRANCH   1   3
BRANCH   1  20
ATOM     20  S   UNL     1       5.155  -4.421  -1.130  0.00  0.00    +0.072 S 
ATOM     21  O   UNL     1       4.646  -4.429  -2.456  0.00  0.00    -0.150 OA
ATOM     22  O   UNL     1       4.328  -4.196   0.003  0.00  0.00    -0.150 OA
BRANCH  20  28
ATOM     23  C   UNL     1       8.921  -9.924   2.055  0.00  0.00    +0.029 C 
ATOM     24  C   UNL     1       7.559  -9.830   1.364  0.00  0.00    +0.083 C 
ATOM     25  C   UNL     1       6.807  -8.575   1.836  0.00  0.00    +0.059 C 
ATOM     26  C   UNL     1       6.606  -7.757   0.580  0.00  0.00    -0.022 A 
ATOM     27  C   UNL     1       5.994  -6.533   0.384  0.00  0.00    +0.034 A 
ATOM     28  C   UNL     1       5.936  -5.981  -0.882  0.00  0.00    +0.109 A 
ATOM     29  C   UNL     1       6.491  -6.657  -1.953  0.00  0.00    +0.030 A 
ATOM     30  C   UNL     1       7.102  -7.878  -1.762  0.00  0.00    +0.026 A 
ATOM     31  C   UNL     1       7.165  -8.442  -0.486  0.00  0.00    +0.040 A 
ATOM     32  N   UNL     1       7.732  -9.656  -0.080  0.00  0.00    -0.268 N 
ATOM     33  C   UNL     1       8.347 -10.535  -0.896  0.00  0.00    +0.217 C 
ATOM     34  O   UNL     1       8.529 -10.256  -2.062  0.00  0.00    -0.276 OA
ATOM     35  C   UNL     1       8.809 -11.866  -0.359  0.00  0.00    +0.109 C 
ENDBRANCH  20  28
ENDBRANCH   1  20
TORSDOF 4
