REMARK  Name = ZINC09467932
REMARK  12 active torsions:
REMARK  status: ('A' for Active; 'I' for Inactive)
REMARK    1  A    between atoms: C_1  and  C_2
REMARK    2  A    between atoms: C_2  and  N_3
REMARK    3  A    between atoms: N_3  and  C_4
REMARK    4  A    between atoms: C_5  and  N_20
REMARK    5  A    between atoms: N_6  and  C_13
REMARK    6  A    between atoms: C_13  and  C_14
REMARK    7  A    between atoms: C_21  and  C_23
REMARK    8  A    between atoms: C_23  and  O_24
REMARK    9  A    between atoms: O_24  and  C_25
REMARK   10  A    between atoms: C_25  and  C_27
REMARK   11  A    between atoms: N_32  and  C_33
REMARK   12  A    between atoms: C_33  and  C_34
REMARK                            x       y       z     vdW  Elec       q    Type
REMARK                         _______ _______ _______ _____ _____    ______ ____
ROOT
ATOM      1  N   UNL     1       0.446  -8.253  -0.749  0.00  0.00    -0.262 N 
ATOM      2  C   UNL     1       0.214  -6.924  -0.761  0.00  0.00    +0.258 C 
ATOM      3  O   UNL     1      -0.499  -6.425   0.084  0.00  0.00    -0.272 OA
ENDROOT
BRANCH   1   4
ATOM      4  C   UNL     1      -0.062  -9.048   0.300  0.00  0.00    +0.140 A 
ATOM      5  C   UNL     1       0.361  -8.850   1.599  0.00  0.00    +0.128 A 
ATOM      6  N   UNL     1      -0.156  -9.638   2.601  0.00  0.00    -0.276 N 
ATOM      7  C   UNL     1      -1.055 -10.597   2.318  0.00  0.00    +0.331 A 
ATOM      8  O   UNL     1      -1.497 -11.286   3.217  0.00  0.00    -0.246 OA
ATOM      9  N   UNL     1      -1.475 -10.808   1.058  0.00  0.00    -0.273 N 
ATOM     10  H   UNL     1      -2.144 -11.528   0.874  0.00  0.00    +0.173 HD
ATOM     11  C   UNL     1      -1.004 -10.061   0.040  0.00  0.00    +0.277 A 
ATOM     12  O   UNL     1      -1.392 -10.261  -1.099  0.00  0.00    -0.266 OA
BRANCH   5  13
ATOM     13  N   UNL     1       1.285  -7.875   1.888  0.00  0.00    -0.343 N 
ATOM     14  H   UNL     1       1.724  -7.394   1.168  0.00  0.00    +0.144 HD
ATOM     15  H   UNL     1       1.498  -7.667   2.811  0.00  0.00    +0.144 HD
ENDBRANCH   5  13
BRANCH   6  16
ATOM     16  C   UNL     1       0.281  -9.435   3.985  0.00  0.00    +0.163 C 
BRANCH  16  17
ATOM     17  C   UNL     1       1.485 -10.296   4.263  0.00  0.00    -0.028 A 
ATOM     18  C   UNL     1       1.320 -11.578   4.753  0.00  0.00    +0.005 A 
ATOM     19  C   UNL     1       2.425 -12.370   5.004  0.00  0.00    +0.000 A 
ATOM     20  C   UNL     1       3.695 -11.877   4.775  0.00  0.00    +0.000 A 
ATOM     21  C   UNL     1       3.861 -10.593   4.290  0.00  0.00    +0.000 A 
ATOM     22  C   UNL     1       2.756  -9.803   4.034  0.00  0.00    +0.005 A 
ENDBRANCH  16  17
ENDBRANCH   6  16
ENDBRANCH   1   4
BRANCH   1  24
ATOM     23  C   UNL     1       2.701  -8.908  -1.430  0.00  0.00    +0.025 C 
ATOM     24  C   UNL     1       1.224  -8.871  -1.826  0.00  0.00    +0.110 C 
ENDBRANCH   1  24
BRANCH   2  25
ATOM     25  C   UNL     1       0.842  -6.059  -1.823  0.00  0.00    +0.328 C 
BRANCH  25  26
ATOM     26  O   UNL     1       0.443  -4.678  -1.621  0.00  0.00    -0.451 OA
BRANCH  26  27
ATOM     27  C   UNL     1       0.922  -3.768  -2.494  0.00  0.00    +0.359 C 
ATOM     28  O   UNL     1       1.653  -4.121  -3.399  0.00  0.00    -0.243 OA
BRANCH  27  29
ATOM     29  C   UNL     1       0.560  -2.351  -2.351  0.00  0.00    +0.157 A 
ATOM     30  C   UNL     1       1.042  -1.416  -3.233  0.00  0.00    +0.083 A 
ATOM     31  S   UNL     1       0.295   0.072  -2.584  0.00  0.00    -0.060 S 
ATOM     32  C   UNL     1      -0.575  -0.686  -1.220  0.00  0.00    +0.159 A 
ATOM     33  N   UNL     1      -0.237  -1.952  -1.357  0.00  0.00    -0.218 NA
ATOM     34  N   UNL     1      -1.386  -0.096  -0.265  0.00  0.00    -0.320 N 
ATOM     35  H   UNL     1      -1.796  -0.640   0.426  0.00  0.00    +0.148 HD
BRANCH  34  36
ATOM     36  C   UNL     1      -1.624   1.349  -0.297  0.00  0.00    +0.130 C 
BRANCH  36  37
ATOM     37  C   UNL     1      -2.533   1.734   0.842  0.00  0.00    -0.016 C 
ATOM     38  C   UNL     1      -2.162   2.657   1.693  0.00  0.00    +0.005 C 
ENDBRANCH  36  37
ENDBRANCH  34  36
ENDBRANCH  27  29
ENDBRANCH  26  27
ENDBRANCH  25  26
ENDBRANCH   2  25
TORSDOF 11
