REMARK  Name = ZINC16611406
REMARK  27 active torsions:
REMARK  status: ('A' for Active; 'I' for Inactive)
REMARK    1  A    between atoms: C_1  and  C_2
REMARK    2  A    between atoms: C_2  and  C_3
REMARK    3  A    between atoms: C_3  and  C_4
REMARK    4  A    between atoms: C_3  and  C_19
REMARK    5  A    between atoms: C_3  and  O_38
REMARK    6  A    between atoms: C_6  and  C_15
REMARK    7  A    between atoms: C_7  and  O_14
REMARK    8  A    between atoms: C_8  and  C_10
REMARK    9  A    between atoms: C_10  and  C_11
REMARK   10  A    between atoms: C_10  and  C_12
REMARK   11  A    between atoms: C_10  and  C_13
REMARK   12  A    between atoms: C_15  and  C_16
REMARK   13  A    between atoms: C_15  and  C_17
REMARK   14  A    between atoms: C_15  and  C_18
REMARK   15  A    between atoms: C_19  and  C_20
REMARK   16  A    between atoms: C_19  and  C_22
REMARK   17  A    between atoms: C_19  and  O_37
REMARK   18  A    between atoms: C_20  and  C_21
REMARK   19  A    between atoms: C_24  and  C_33
REMARK   20  A    between atoms: C_25  and  O_32
REMARK   21  A    between atoms: C_26  and  C_28
REMARK   22  A    between atoms: C_28  and  C_29
REMARK   23  A    between atoms: C_28  and  C_30
REMARK   24  A    between atoms: C_28  and  C_31
REMARK   25  A    between atoms: C_33  and  C_34
REMARK   26  A    between atoms: C_33  and  C_35
REMARK   27  A    between atoms: C_33  and  C_36
REMARK                            x       y       z     vdW  Elec       q    Type
REMARK                         _______ _______ _______ _____ _____    ______ ____
ROOT
ATOM      1  C   UNL     1      -3.815  -1.137  -0.857  0.00  0.00    +0.123 C 
ENDROOT
BRANCH   1   2
ATOM      2  C   UNL     1      -4.466  -0.178  -1.820  0.00  0.00    -0.012 A 
ATOM      3  C   UNL     1      -5.771  -0.387  -2.226  0.00  0.00    +0.014 A 
ATOM      4  C   UNL     1      -6.371   0.491  -3.108  0.00  0.00    +0.000 A 
ATOM      5  C   UNL     1      -5.663   1.586  -3.582  0.00  0.00    +0.124 A 
ATOM      6  C   UNL     1      -4.352   1.791  -3.178  0.00  0.00    +0.000 A 
ATOM      7  C   UNL     1      -3.758   0.910  -2.295  0.00  0.00    +0.014 A 
BRANCH   6   8
ATOM      8  C   UNL     1      -3.579   2.976  -3.696  0.00  0.00    -0.009 C 
ATOM      9  C   UNL     1      -2.173   2.971  -3.093  0.00  0.00    +0.015 C 
ATOM     10  C   UNL     1      -4.299   4.267  -3.300  0.00  0.00    +0.015 C 
ATOM     11  C   UNL     1      -3.482   2.895  -5.220  0.00  0.00    +0.015 C 
ENDBRANCH   6   8
BRANCH   4  12
ATOM     12  C   UNL     1      -7.793   0.263  -3.549  0.00  0.00    -0.009 C 
ATOM     13  C   UNL     1      -8.372  -0.941  -2.803  0.00  0.00    +0.015 C 
ATOM     14  C   UNL     1      -8.629   1.506  -3.238  0.00  0.00    +0.015 C 
ATOM     15  C   UNL     1      -7.823  -0.008  -5.055  0.00  0.00    +0.015 C 
ENDBRANCH   4  12
BRANCH   5  16
ATOM     16  O   UNL     1      -6.253   2.455  -4.446  0.00  0.00    -0.506 OA
ATOM     17  H   UNL     1      -6.138   2.222  -5.377  0.00  0.00    +0.292 HD
ENDBRANCH   5  16
ENDBRANCH   1   2
BRANCH   1  19
ATOM     18  C   UNL     1      -2.600  -3.313  -0.667  0.00  0.00    +0.007 C 
ATOM     19  C   UNL     1      -3.118  -2.252  -1.641  0.00  0.00    +0.039 C 
ENDBRANCH   1  19
BRANCH   1  20
ATOM     20  O   UNL     1      -2.852  -0.438  -0.066  0.00  0.00    -0.381 OA
ATOM     21  H   UNL     1      -3.234   0.232   0.517  0.00  0.00    +0.211 HD
ENDBRANCH   1  20
BRANCH   1  22
ATOM     22  C   UNL     1      -4.881  -1.746   0.056  0.00  0.00    +0.123 C 
BRANCH  22  23
ATOM     23  C   UNL     1      -5.532  -2.913  -0.640  0.00  0.00    -0.012 A 
ATOM     24  C   UNL     1      -5.604  -2.941  -2.020  0.00  0.00    +0.014 A 
ATOM     25  C   UNL     1      -6.196  -4.012  -2.661  0.00  0.00    +0.000 A 
ATOM     26  C   UNL     1      -6.729  -5.055  -1.917  0.00  0.00    +0.124 A 
ATOM     27  C   UNL     1      -6.660  -5.022  -0.532  0.00  0.00    +0.000 A 
ATOM     28  C   UNL     1      -6.062  -3.951   0.104  0.00  0.00    +0.014 A 
BRANCH  27  29
ATOM     29  C   UNL     1      -7.238  -6.154   0.279  0.00  0.00    -0.009 C 
ATOM     30  C   UNL     1      -7.032  -5.871   1.768  0.00  0.00    +0.015 C 
ATOM     31  C   UNL     1      -8.735  -6.278  -0.014  0.00  0.00    +0.015 C 
ATOM     32  C   UNL     1      -6.535  -7.460  -0.094  0.00  0.00    +0.015 C 
ENDBRANCH  27  29
BRANCH  25  33
ATOM     33  C   UNL     1      -6.270  -4.044  -4.165  0.00  0.00    -0.009 C 
ATOM     34  C   UNL     1      -5.519  -2.840  -4.739  0.00  0.00    +0.015 C 
ATOM     35  C   UNL     1      -5.630  -5.336  -4.680  0.00  0.00    +0.015 C 
ATOM     36  C   UNL     1      -7.734  -3.990  -4.606  0.00  0.00    +0.015 C 
ENDBRANCH  25  33
BRANCH  26  37
ATOM     37  O   UNL     1      -7.317  -6.107  -2.545  0.00  0.00    -0.506 OA
ATOM     38  H   UNL     1      -8.265  -5.994  -2.697  0.00  0.00    +0.292 HD
ENDBRANCH  26  37
ENDBRANCH  22  23
BRANCH  22  39
ATOM     39  C   UNL     1      -5.939  -0.689   0.379  0.00  0.00    +0.039 C 
ATOM     40  C   UNL     1      -5.258   0.561   0.940  0.00  0.00    +0.007 C 
ENDBRANCH  22  39
BRANCH  22  41
ATOM     41  O   UNL     1      -4.271  -2.194   1.268  0.00  0.00    -0.381 OA
ATOM     42  H   UNL     1      -3.521  -2.789   1.134  0.00  0.00    +0.211 HD
ENDBRANCH  22  41
ENDBRANCH   1  22
TORSDOF 13
