REMARK  Name = ZINC49063277
REMARK  6 active torsions:
REMARK  status: ('A' for Active; 'I' for Inactive)
REMARK    1  A    between atoms: C_3  and  N_21
REMARK    2  A    between atoms: C_6  and  C_7
REMARK    3  A    between atoms: N_12  and  S_13
REMARK    4  A    between atoms: S_13  and  C_16
REMARK    5  A    between atoms: C_16  and  C_17
REMARK    6  A    between atoms: C_17  and  C_18
REMARK                            x       y       z     vdW  Elec       q    Type
REMARK                         _______ _______ _______ _____ _____    ______ ____
ROOT
ATOM      1  C   UNL     1      -1.268  -0.762   0.011  0.00  0.00    +0.055 A 
ATOM      2  C   UNL     1      -2.446  -0.110   0.020  0.00  0.00    +0.075 A 
ATOM      3  S   UNL     1      -3.621  -1.454   0.027  0.00  0.00    -0.056 S 
ATOM      4  C   UNL     1      -2.454  -2.805   0.016  0.00  0.00    +0.191 A 
ATOM      5  N   UNL     1      -1.252  -2.133   0.003  0.00  0.00    -0.332 N 
ATOM      6  N   UNL     1      -2.681  -4.095   0.016  0.00  0.00    -0.108 NA
ATOM      7  H   UNL     1      -0.412  -2.618  -0.008  0.00  0.00    +0.168 HD
ENDROOT
BRANCH   1  13
ATOM      8  C   UNL     1      -0.017   1.392   0.010  0.00  0.00    +0.012 A 
ATOM      9  C   UNL     1       1.168   2.096   0.002  0.00  0.00    +0.023 A 
ATOM     10  C   UNL     1       2.381   1.417  -0.013  0.00  0.00    +0.025 A 
ATOM     11  C   UNL     1       2.404   0.027  -0.021  0.00  0.00    +0.023 A 
ATOM     12  C   UNL     1       1.222  -0.682  -0.014  0.00  0.00    +0.012 A 
ATOM     13  C   UNL     1       0.002  -0.004   0.002  0.00  0.00    -0.001 A 
BRANCH  10  14
ATOM     14  N   UNL     1       3.581   2.133  -0.021  0.00  0.00    -0.358 N 
ATOM     15  H   UNL     1       3.566   3.103  -0.015  0.00  0.00    +0.142 HD
ATOM     16  H   UNL     1       4.428   1.661  -0.031  0.00  0.00    +0.142 HD
ENDBRANCH  10  14
ENDBRANCH   1  13
BRANCH   6  17
ATOM     17  S   UNL     1      -4.237  -4.662   0.027  0.00  0.00    +0.072 S 
ATOM     18  O   UNL     1      -4.775  -4.221   1.266  0.00  0.00    -0.151 OA
ATOM     19  O   UNL     1      -4.793  -4.218  -1.203  0.00  0.00    -0.151 OA
BRANCH  17  20
ATOM     20  C   UNL     1      -4.075  -6.469   0.024  0.00  0.00    +0.204 C 
BRANCH  20  21
ATOM     21  C   UNL     1      -5.466  -7.106   0.033  0.00  0.00    +0.150 C 
BRANCH  21  22
ATOM     22  C   UNL     1      -5.331  -8.607   0.031  0.00  0.00    +0.358 C 
ATOM     23  O   UNL     1      -4.225  -9.119   0.022  0.00  0.00    -0.246 OA
ATOM     24  O   UNL     1      -6.328  -9.308   0.037  0.00  0.00    -0.246 OA
ENDBRANCH  21  22
ENDBRANCH  20  21
ENDBRANCH  17  20
ENDBRANCH   6  17
TORSDOF 6
