REMARK  Name = ZINC09781872
REMARK  7 active torsions:
REMARK  status: ('A' for Active; 'I' for Inactive)
REMARK    1  A    between atoms: C_1  and  C_2
REMARK    2  A    between atoms: C_3  and  C_29
REMARK    3  A    between atoms: C_7  and  S_12
REMARK    4  A    between atoms: C_9  and  C_11
REMARK    5  A    between atoms: S_12  and  C_13
REMARK    6  A    between atoms: C_13  and  C_14
REMARK    7  A    between atoms: N_20  and  C_21
REMARK                            x       y       z     vdW  Elec       q    Type
REMARK                         _______ _______ _______ _____ _____    ______ ____
ROOT
ATOM      1  C   UNL     1       4.859  -3.904  -0.068  0.00  0.00    +0.146 A 
ATOM      2  N   UNL     1       5.471  -3.787  -1.233  0.00  0.00    -0.199 NA
ATOM      3  C   UNL     1       6.758  -4.104  -1.346  0.00  0.00    +0.217 A 
ATOM      4  N   UNL     1       7.426  -4.549  -0.286  0.00  0.00    -0.181 NA
ATOM      5  C   UNL     1       6.806  -4.670   0.882  0.00  0.00    +0.224 A 
ATOM      6  N   UNL     1       5.519  -4.346   0.988  0.00  0.00    -0.198 NA
ATOM      7  N   UNL     1       7.496  -5.131   1.986  0.00  0.00    -0.284 N 
ATOM      8  N   UNL     1       7.398  -3.976  -2.562  0.00  0.00    -0.327 N 
ATOM      9  H   UNL     1       7.067  -5.143   2.856  0.00  0.00    +0.155 HD
ATOM     10  H   UNL     1       8.335  -4.211  -2.644  0.00  0.00    +0.145 HD
ATOM     11  H   UNL     1       6.910  -3.652  -3.335  0.00  0.00    +0.145 HD
ENDROOT
BRANCH   7  12
ATOM     12  C   UNL     1       8.814  -5.581   1.850  0.00  0.00    +0.034 A 
ATOM     13  C   UNL     1       9.216  -6.212   0.680  0.00  0.00    +0.026 A 
ATOM     14  C   UNL     1      10.519  -6.650   0.546  0.00  0.00    +0.040 A 
ATOM     15  C   UNL     1      11.421  -6.472   1.581  0.00  0.00    +0.124 A 
ATOM     16  C   UNL     1      11.021  -5.849   2.751  0.00  0.00    +0.040 A 
ATOM     17  C   UNL     1       9.720  -5.403   2.887  0.00  0.00    +0.026 A 
ATOM     18  F   UNL     1      12.693  -6.907   1.450  0.00  0.00    -0.205 F 
ENDBRANCH   7  12
BRANCH   1  19
ATOM     19  C   UNL     1       3.402  -3.538   0.056  0.00  0.00    +0.152 C 
BRANCH  19  20
ATOM     20  S   UNL     1       3.255  -1.791   0.503  0.00  0.00    -0.097 S 
BRANCH  20  27
ATOM     21  C   UNL     1       3.015   1.023   1.223  0.00  0.00    +0.045 C 
ATOM     22  C   UNL     1       1.515   0.882   1.218  0.00  0.00    -0.029 A 
ATOM     23  C   UNL     1       0.734   1.935   1.502  0.00  0.00    -0.008 A 
ATOM     24  S   UNL     1      -0.918   1.276   1.369  0.00  0.00    -0.074 S 
ATOM     25  C   UNL     1      -0.514  -0.395   0.937  0.00  0.00    +0.113 A 
ATOM     26  C   UNL     1       0.897  -0.395   0.908  0.00  0.00    +0.043 A 
ATOM     27  C   UNL     1       1.500  -1.641   0.579  0.00  0.00    +0.109 A 
ATOM     28  N   UNL     1       0.727  -2.686   0.330  0.00  0.00    -0.225 NA
ATOM     29  C   UNL     1      -0.591  -2.613   0.376  0.00  0.00    +0.128 A 
ATOM     30  N   UNL     1      -1.207  -1.486   0.675  0.00  0.00    -0.225 NA
ATOM     31  C   UNL     1      -1.408  -3.844   0.080  0.00  0.00    +0.088 C 
ATOM     32  C   UNL     1       1.152   3.341   1.849  0.00  0.00    +0.052 C 
ENDBRANCH  20  27
ENDBRANCH  19  20
ENDBRANCH   1  19
TORSDOF 4
