REMARK  Name = ZINC08982372
REMARK  10 active torsions:
REMARK  status: ('A' for Active; 'I' for Inactive)
REMARK    1  A    between atoms: C_1  and  C_2
REMARK    2  A    between atoms: C_5  and  N_9
REMARK    3  A    between atoms: C_6  and  C_8
REMARK    4  A    between atoms: C_10  and  C_12
REMARK    5  A    between atoms: C_13  and  C_32
REMARK    6  A    between atoms: C_19  and  C_23
REMARK    7  A    between atoms: C_23  and  N_55
REMARK    8  A    between atoms: C_24  and  N_55
REMARK    9  A    between atoms: C_25  and  C_26
REMARK   10  A    between atoms: C_25  and  N_55
REMARK                            x       y       z     vdW  Elec       q    Type
REMARK                         _______ _______ _______ _____ _____    ______ ____
ROOT
ATOM      1  C   UNL     1      -3.923   3.759   4.199  0.00  0.00    +0.080 A 
ATOM      2  C   UNL     1      -2.832   3.004   4.514  0.00  0.00    -0.017 A 
ATOM      3  C   UNL     1      -2.050   2.452   3.497  0.00  0.00    +0.076 A 
ATOM      4  C   UNL     1      -0.837   1.609   3.601  0.00  0.00    +0.260 A 
ATOM      5  O   UNL     1      -0.381   1.302   4.688  0.00  0.00    -0.267 OA
ATOM      6  N   UNL     1      -0.253   1.189   2.462  0.00  0.00    -0.312 N 
ATOM      7  H   UNL     1       0.541   0.634   2.513  0.00  0.00    +0.170 HD
ATOM      8  C   UNL     1      -0.749   1.529   1.247  0.00  0.00    +0.094 A 
ATOM      9  N   UNL     1      -1.816   2.269   1.120  0.00  0.00    -0.229 NA
ATOM     10  C   UNL     1      -2.471   2.732   2.176  0.00  0.00    +0.116 A 
ATOM     11  S   UNL     1      -3.915   3.738   2.414  0.00  0.00    -0.064 S 
ATOM     12  C   UNL     1      -2.470   2.766   5.958  0.00  0.00    +0.046 C 
ENDROOT
BRANCH   1  14
ATOM     13  N   UNL     1      -5.896   5.134   4.596  0.00  0.00    -0.281 N 
ATOM     14  C   UNL     1      -4.868   4.424   5.101  0.00  0.00    +0.255 C 
ATOM     15  O   UNL     1      -4.724   4.334   6.306  0.00  0.00    -0.269 OA
ATOM     16  H   UNL     1      -5.966   5.273   3.639  0.00  0.00    +0.155 HD
BRANCH  13  21
ATOM     17  C   UNL     1      -9.814   7.313   8.071  0.00  0.00    +0.044 C 
ATOM     18  C   UNL     1      -8.774   6.734   7.148  0.00  0.00    -0.050 A 
ATOM     19  C   UNL     1      -8.045   5.625   7.538  0.00  0.00    +0.005 A 
ATOM     20  C   UNL     1      -7.090   5.092   6.695  0.00  0.00    +0.024 A 
ATOM     21  C   UNL     1      -6.863   5.671   5.452  0.00  0.00    +0.037 A 
ATOM     22  C   UNL     1      -7.593   6.787   5.065  0.00  0.00    -0.029 A 
ATOM     23  C   UNL     1      -8.550   7.312   5.912  0.00  0.00    +0.008 A 
ATOM     24  C   UNL     1      -7.346   7.421   3.721  0.00  0.00    +0.045 C 
ENDBRANCH  13  21
ENDBRANCH   1  14
BRANCH   8  25
ATOM     25  C   UNL     1      -0.050   1.033   0.007  0.00  0.00    -0.003 C 
BRANCH  25  27
ATOM     26  C   UNL     1      -2.102   0.920  -1.274  0.00  0.00    -0.095 C 
ATOM     27  N   UNL     1      -0.766   1.545  -1.181  0.00  0.00    +0.386 N 
ATOM     28  H   UNL     1      -0.879   2.562  -1.089  0.00  0.00    -0.081 HD
BRANCH  27  29
ATOM     29  C   UNL     1       0.013   1.257  -2.403  0.00  0.00    -0.035 C 
BRANCH  29  30
ATOM     30  C   UNL     1      -0.623   1.977  -3.565  0.00  0.00    -0.025 A 
ATOM     31  C   UNL     1      -0.387   3.230  -4.024  0.00  0.00    +0.011 A 
ATOM     32  C   UNL     1      -1.097   3.687  -5.120  0.00  0.00    +0.028 A 
ATOM     33  C   UNL     1      -2.007   2.867  -5.702  0.00  0.00    +0.078 A 
ATOM     34  S   UNL     1      -1.875   1.397  -4.698  0.00  0.00    -0.084 S 
ATOM     35 CL   UNL     1      -3.030   3.166  -7.072  0.00  0.00    -0.076 Cl
ENDBRANCH  29  30
ENDBRANCH  27  29
ENDBRANCH  25  27
ENDBRANCH   8  25
TORSDOF 6
