REMARK  Name = ZINC08987624
REMARK  5 active torsions:
REMARK  status: ('A' for Active; 'I' for Inactive)
REMARK    1  A    between atoms: C_6  and  S_7
REMARK    2  A    between atoms: S_7  and  N_10
REMARK    3  A    between atoms: N_10  and  C_11
REMARK    4  A    between atoms: C_11  and  C_12
REMARK    5  A    between atoms: C_12  and  N_55
REMARK                            x       y       z     vdW  Elec       q    Type
REMARK                         _______ _______ _______ _____ _____    ______ ____
ROOT
ATOM      1  S   UNL     1       0.919   5.204   0.899  0.00  0.00    +0.058 S 
ATOM      2  O   UNL     1       2.324   5.391   0.998  0.00  0.00    -0.153 OA
ATOM      3  O   UNL     1       0.194   5.488  -0.290  0.00  0.00    -0.153 OA
ENDROOT
BRANCH   1   9
ATOM      4  C   UNL     1       0.932   6.509   3.297  0.00  0.00    +0.030 A 
ATOM      5  C   UNL     1       0.370   7.271   4.301  0.00  0.00    +0.030 A 
ATOM      6  C   UNL     1      -0.946   7.706   4.191  0.00  0.00    +0.066 A 
ATOM      7  C   UNL     1      -1.693   7.370   3.061  0.00  0.00    +0.068 A 
ATOM      8  C   UNL     1      -1.115   6.607   2.053  0.00  0.00    +0.056 A 
ATOM      9  C   UNL     1       0.191   6.176   2.176  0.00  0.00    +0.107 A 
ATOM     10  N   UNL     1      -3.012   7.797   2.931  0.00  0.00    -0.316 N 
ATOM     11  H   UNL     1      -3.523   7.559   2.142  0.00  0.00    +0.169 HD
ATOM     12  C   UNL     1      -3.580   8.541   3.902  0.00  0.00    +0.314 A 
ATOM     13  O   UNL     1      -4.730   8.916   3.794  0.00  0.00    -0.262 OA
ATOM     14  C   UNL     1      -2.781   8.900   5.109  0.00  0.00    +0.314 A 
ATOM     15  O   UNL     1      -3.275   9.569   5.995  0.00  0.00    -0.262 OA
ATOM     16  N   UNL     1      -1.506   8.473   5.208  0.00  0.00    -0.316 N 
ATOM     17  H   UNL     1      -0.978   8.701   5.990  0.00  0.00    +0.169 HD
ENDBRANCH   1   9
BRANCH   1  18
ATOM     18  N   UNL     1       0.625   3.616   1.265  0.00  0.00    -0.191 NA
ATOM     19  H   UNL     1       1.363   3.022   1.472  0.00  0.00    +0.148 HD
BRANCH  18  20
ATOM     20  C   UNL     1      -0.750   3.109   1.275  0.00  0.00    +0.094 C 
BRANCH  20  21
ATOM     21  C   UNL     1      -0.729   1.579   1.267  0.00  0.00    -0.051 C 
ATOM     22  C   UNL     1      -0.013   1.086   0.008  0.00  0.00    -0.011 C 
ATOM     23  C   UNL     1      -0.753   1.593  -1.232  0.00  0.00    -0.001 C 
ATOM     24  C   UNL     1      -2.188   1.063  -1.221  0.00  0.00    -0.000 C 
ATOM     25  C   UNL     1      -2.904   1.556   0.038  0.00  0.00    -0.001 C 
ATOM     26  C   UNL     1      -2.164   1.050   1.278  0.00  0.00    -0.011 C 
BRANCH  21  32
ATOM     27  C   UNL     1       0.097  -0.373   2.439  0.00  0.00    -0.049 C 
ATOM     28  C   UNL     1       0.894  -0.832   3.663  0.00  0.00    +0.141 C 
ATOM     29  O   UNL     1       0.253  -0.353   4.849  0.00  0.00    -0.383 OA
ATOM     30  C   UNL     1       0.125   1.070   4.900  0.00  0.00    +0.141 C 
ATOM     31  C   UNL     1      -0.680   1.548   3.688  0.00  0.00    -0.049 C 
ATOM     32  N   UNL     1       0.007   1.102   2.458  0.00  0.00    +0.387 N 
ATOM     33  H   UNL     1       0.956   1.495   2.443  0.00  0.00    -0.081 HD
ENDBRANCH  21  32
ENDBRANCH  20  21
ENDBRANCH  18  20
ENDBRANCH   1  18
TORSDOF 5
