REMARK  Name = ZINC22830524
REMARK  6 active torsions:
REMARK  status: ('A' for Active; 'I' for Inactive)
REMARK    1  A    between atoms: C_1  and  C_2
REMARK    2  A    between atoms: C_9  and  C_16
REMARK    3  A    between atoms: C_11  and  O_12
REMARK    4  A    between atoms: C_16  and  S_17
REMARK    5  A    between atoms: S_17  and  C_18
REMARK    6  A    between atoms: N_30  and  C_31
REMARK                            x       y       z     vdW  Elec       q    Type
REMARK                         _______ _______ _______ _____ _____    ______ ____
ROOT
ATOM      1  C   UNL     1       4.412  12.256  -6.051  0.00  0.00    +0.109 C 
ATOM      2  C   UNL     1       4.295  11.428  -4.798  0.00  0.00    +0.214 C 
ATOM      3  O   UNL     1       4.938  11.723  -3.813  0.00  0.00    -0.276 OA
ATOM      4  N   UNL     1       3.476  10.358  -4.772  0.00  0.00    -0.286 N 
ATOM      5  C   UNL     1       3.283   9.656  -3.581  0.00  0.00    +0.037 A 
ATOM      6  C   UNL     1       3.078   8.277  -3.616  0.00  0.00    +0.024 A 
ATOM      7  C   UNL     1       2.888   7.577  -2.461  0.00  0.00    +0.013 A 
ATOM      8  C   UNL     1       2.903   8.246  -1.231  0.00  0.00    +0.022 A 
ATOM      9  C   UNL     1       2.696   7.521   0.024  0.00  0.00    -0.020 A 
ATOM     10  C   UNL     1       2.716   8.228   1.184  0.00  0.00    +0.092 A 
ATOM     11  C   UNL     1       2.929   9.621   1.153  0.00  0.00    +0.285 A 
ATOM     12  O   UNL     1       3.113  10.281  -0.001  0.00  0.00    -0.425 OA
ATOM     13  C   UNL     1       3.104   9.639  -1.189  0.00  0.00    +0.141 A 
ATOM     14  C   UNL     1       3.296  10.335  -2.373  0.00  0.00    +0.070 A 
ATOM     15  H   UNL     1       2.959  10.038  -5.689  0.00  0.00    +0.155 HD
ENDROOT
BRANCH  11  16
ATOM     16  O   UNL     1       2.944  10.242   2.200  0.00  0.00    -0.480 OA
ATOM     17  H   UNL     1       3.109  11.330   2.192  0.00  0.00    +0.295 HD
ENDBRANCH  11  16
BRANCH   9  18
ATOM     18  C   UNL     1       2.471   6.031   0.029  0.00  0.00    +0.113 C 
BRANCH  18  19
ATOM     19  S   UNL     1       0.698   5.688  -0.093  0.00  0.00    -0.083 S 
BRANCH  19  20
ATOM     20  C   UNL     1       0.725   3.926  -0.066  0.00  0.00    +0.173 A 
ATOM     21  N   UNL     1       1.879   3.296   0.025  0.00  0.00    -0.216 NA
ATOM     22  C   UNL     1       1.927   1.968   0.047  0.00  0.00    +0.117 A 
ATOM     23  C   UNL     1       0.770   1.179  -0.025  0.00  0.00    +0.076 A 
ATOM     24  C   UNL     1       0.979  -0.278   0.011  0.00  0.00    -0.023 A 
ATOM     25  C   UNL     1       2.248  -0.707   0.105  0.00  0.00    -0.004 A 
ATOM     26  S   UNL     1       3.232   0.772   0.156  0.00  0.00    -0.073 S 
ATOM     27  C   UNL     1       2.339  -2.209   0.130  0.00  0.00    +0.043 C 
ATOM     28  C   UNL     1       0.968  -2.690  -0.397  0.00  0.00    +0.010 C 
ATOM     29  C   UNL     1       0.059  -1.501  -0.030  0.00  0.00    +0.037 C 
ATOM     30  C   UNL     1      -0.468   1.888  -0.129  0.00  0.00    +0.263 A 
ATOM     31  O   UNL     1      -1.523   1.283  -0.202  0.00  0.00    -0.267 OA
ATOM     32  N   UNL     1      -0.449   3.234  -0.141  0.00  0.00    -0.290 N 
ATOM     33  C   UNL     1      -1.712   3.970  -0.242  0.00  0.00    +0.154 C 
ENDBRANCH  19  20
ENDBRANCH  18  19
ENDBRANCH   9  18
TORSDOF 4
