REMARK  Name = ZINC14159196
REMARK  13 active torsions:
REMARK  status: ('A' for Active; 'I' for Inactive)
REMARK    1  A    between atoms: C_1  and  C_2
REMARK    2  A    between atoms: C_5  and  N_9
REMARK    3  A    between atoms: C_7  and  C_8
REMARK    4  A    between atoms: N_9  and  C_10
REMARK    5  A    between atoms: C_10  and  N_12
REMARK    6  A    between atoms: N_14  and  C_15
REMARK    7  A    between atoms: C_15  and  C_16
REMARK    8  A    between atoms: C_16  and  S_17
REMARK    9  A    between atoms: S_17  and  C_18
REMARK   10  A    between atoms: C_18  and  C_19
REMARK   11  A    between atoms: C_20  and  C_25
REMARK   12  A    between atoms: C_29  and  C_34
REMARK   13  A    between atoms: C_31  and  C_33
REMARK                            x       y       z     vdW  Elec       q    Type
REMARK                         _______ _______ _______ _____ _____    ______ ____
ROOT
ATOM      1  N   UNL     1      -0.001  -6.035  -1.028  0.00  0.00    -0.159 NA
ATOM      2  C   UNL     1       0.017  -6.826  -2.087  0.00  0.00    +0.195 C 
ATOM      3  N   UNL     1      -0.039  -6.289  -3.341  0.00  0.00    -0.357 N 
ATOM      4  N   UNL     1       0.090  -8.183  -1.926  0.00  0.00    -0.297 N 
ATOM      5  C   UNL     1       0.031  -8.736  -0.653  0.00  0.00    +0.231 A 
ATOM      6  N   UNL     1      -0.209  -7.947   0.383  0.00  0.00    -0.217 NA
ATOM      7  C   UNL     1      -0.273  -8.441   1.608  0.00  0.00    +0.044 A 
ATOM      8  C   UNL     1      -0.084  -9.801   1.800  0.00  0.00    +0.046 A 
ATOM      9  C   UNL     1       0.166 -10.597   0.693  0.00  0.00    +0.044 A 
ATOM     10  N   UNL     1       0.210 -10.040  -0.506  0.00  0.00    -0.217 NA
ATOM     11  C   UNL     1       0.378 -12.080   0.853  0.00  0.00    +0.066 C 
ATOM     12  C   UNL     1      -0.546  -7.536   2.782  0.00  0.00    +0.066 C 
ATOM     13  H   UNL     1      -0.013  -5.327  -3.458  0.00  0.00    +0.162 HD
ATOM     14  H   UNL     1       0.184  -8.759  -2.701  0.00  0.00    +0.171 HD
ENDROOT
BRANCH   1  15
ATOM     15  C   UNL     1      -0.022  -4.704  -1.186  0.00  0.00    +0.161 C 
ATOM     16  S   UNL     1      -1.376  -3.950  -1.914  0.00  0.00    -0.016 S 
BRANCH  15  17
ATOM     17  N   UNL     1       1.022  -3.959  -0.772  0.00  0.00    -0.295 N 
ATOM     18  H   UNL     1       1.823  -4.391  -0.436  0.00  0.00    +0.154 HD
BRANCH  17  23
ATOM     19  C   UNL     1       0.734   1.702  -0.994  0.00  0.00    +0.044 C 
ATOM     20  C   UNL     1       0.811   0.198  -0.935  0.00  0.00    -0.047 A 
ATOM     21  C   UNL     1      -0.290  -0.533  -0.527  0.00  0.00    +0.005 A 
ATOM     22  C   UNL     1      -0.223  -1.912  -0.472  0.00  0.00    +0.023 A 
ATOM     23  C   UNL     1       0.951  -2.563  -0.827  0.00  0.00    +0.033 A 
ATOM     24  C   UNL     1       2.054  -1.826  -1.236  0.00  0.00    +0.027 A 
ATOM     25  C   UNL     1       1.980  -0.448  -1.294  0.00  0.00    -0.046 A 
ATOM     26  C   UNL     1       3.175   0.353  -1.743  0.00  0.00    +0.044 C 
ENDBRANCH  17  23
ENDBRANCH  15  17
ENDBRANCH   1  15
BRANCH   3  27
ATOM     27  C   UNL     1      -0.137  -7.167  -4.509  0.00  0.00    +0.126 C 
BRANCH  27  28
ATOM     28  C   UNL     1      -0.065  -6.327  -5.786  0.00  0.00    +0.090 C 
BRANCH  28  29
ATOM     29  S   UNL     1      -0.333  -7.394  -7.228  0.00  0.00    -0.153 S 
BRANCH  29  30
ATOM     30  C   UNL     1      -0.218  -6.261  -8.640  0.00  0.00    +0.126 C 
BRANCH  30  31
ATOM     31  C   UNL     1      -0.424  -7.030  -9.919  0.00  0.00    +0.072 A 
ATOM     32  C   UNL     1       0.538  -7.624 -10.650  0.00  0.00    +0.036 A 
ATOM     33  N   UNL     1      -0.081  -8.206 -11.723  0.00  0.00    -0.348 N 
ATOM     34  H   UNL     1       0.348  -8.710 -12.432  0.00  0.00    +0.166 HD
ATOM     35  C   UNL     1      -1.402  -7.947 -11.611  0.00  0.00    +0.197 A 
ATOM     36  N   UNL     1      -1.600  -7.248 -10.527  0.00  0.00    -0.240 NA
ATOM     37  C   UNL     1       2.014  -7.643 -10.345  0.00  0.00    +0.065 C 
ENDBRANCH  30  31
ENDBRANCH  29  30
ENDBRANCH  28  29
ENDBRANCH  27  28
ENDBRANCH   3  27
TORSDOF 8
