REMARK  Name = ZINC39469634
REMARK  7 active torsions:
REMARK  status: ('A' for Active; 'I' for Inactive)
REMARK    1  A    between atoms: C_1  and  O_2
REMARK    2  A    between atoms: O_2  and  C_3
REMARK    3  A    between atoms: P_12  and  S_28
REMARK    4  A    between atoms: C_20  and  C_21
REMARK    5  A    between atoms: C_26  and  O_27
REMARK    6  A    between atoms: S_28  and  O_31
REMARK    7  A    between atoms: O_31  and  C_32
REMARK                            x       y       z     vdW  Elec       q    Type
REMARK                         _______ _______ _______ _____ _____    ______ ____
ROOT
ATOM      1  C   UNL     1       0.626  -0.618   1.041  0.00  0.00    +0.124 C 
ATOM      2  C   UNL     1       1.182   0.104   2.015  0.00  0.00    +0.023 C 
ATOM      3  C   UNL     1       1.878  -0.593   3.153  0.00  0.00    +0.019 C 
ATOM      4  C   UNL     1       2.888   0.337   3.814  0.00  0.00    -0.002 C 
ATOM      5  C   UNL     1       4.018   0.692   2.840  0.00  0.00    -0.020 C 
ATOM      6  C   UNL     1       4.995   1.600   3.597  0.00  0.00    +0.158 C 
ATOM      7  O   UNL     1       6.057   2.006   2.715  0.00  0.00    -0.301 OA
ATOM      8  P   UNL     1       6.826   0.845   1.874  0.00  0.00    +0.431 P 
ATOM      9  O   UNL     1       7.834   0.176   2.727  0.00  0.00    -0.246 OA
ATOM     10  N   UNL     1       5.647  -0.224   1.436  0.00  0.00    -0.271 NA
ATOM     11  N   UNL     1       4.679  -0.528   2.370  0.00  0.00    +0.398 N 
ATOM     12  C   UNL     1       3.715  -1.401   1.682  0.00  0.00    -0.046 C 
ATOM     13  C   UNL     1       2.615  -1.827   2.626  0.00  0.00    +0.005 C 
ATOM     14  C   UNL     1       1.641  -2.684   1.852  0.00  0.00    -0.013 C 
ATOM     15  C   UNL     1       0.690  -2.097   1.107  0.00  0.00    +0.023 C 
ATOM     16  H   UNL     1       5.638  -0.625   0.553  0.00  0.00    +0.113 HD
ATOM     17  H   UNL     1       5.096  -1.012   3.151  0.00  0.00    -0.055 HD
ENDROOT
BRANCH  15  18
ATOM     18  C   UNL     1      -0.286  -2.921   0.353  0.00  0.00    +0.027 A 
ATOM     19  C   UNL     1      -1.332  -3.554   1.021  0.00  0.00    +0.012 A 
ATOM     20  C   UNL     1      -2.237  -4.319   0.315  0.00  0.00    +0.001 A 
ATOM     21  C   UNL     1      -2.111  -4.460  -1.056  0.00  0.00    +0.004 A 
ATOM     22  C   UNL     1      -1.077  -3.837  -1.729  0.00  0.00    +0.046 A 
ATOM     23  C   UNL     1      -0.164  -3.060  -1.033  0.00  0.00    +0.125 A 
BRANCH  23  24
ATOM     24  O   UNL     1       0.849  -2.443  -1.694  0.00  0.00    -0.506 OA
ATOM     25  H   UNL     1       1.653  -2.975  -1.768  0.00  0.00    +0.292 HD
ENDBRANCH  23  24
ENDBRANCH  15  18
BRANCH   8  26
ATOM     26  S   UNL     1       7.751   1.672   0.155  0.00  0.00    +0.209 S 
ATOM     27  O   UNL     1       8.513   0.629  -0.437  0.00  0.00    -0.126 OA
ATOM     28  O   UNL     1       6.738   2.372  -0.554  0.00  0.00    -0.126 OA
BRANCH  26  29
ATOM     29  O   UNL     1       8.746   2.717   0.638  0.00  0.00    -0.339 OA
BRANCH  29  30
ATOM     30  C   UNL     1       9.880   2.194   1.174  0.00  0.00    +0.157 A 
ATOM     31  C   UNL     1       9.942   1.912   2.531  0.00  0.00    +0.048 A 
ATOM     32  C   UNL     1      11.096   1.381   3.073  0.00  0.00    +0.004 A 
ATOM     33  C   UNL     1      12.189   1.130   2.265  0.00  0.00    +0.000 A 
ATOM     34  C   UNL     1      12.130   1.411   0.912  0.00  0.00    +0.004 A 
ATOM     35  C   UNL     1      10.976   1.937   0.364  0.00  0.00    +0.048 A 
ENDBRANCH  29  30
ENDBRANCH  26  29
ENDBRANCH   8  26
BRANCH   1  37
ATOM     36  C   UNL     1      -0.017   1.425   0.010  0.00  0.00    +0.277 C 
ATOM     37  O   UNL     1       0.002  -0.004   0.002  0.00  0.00    -0.495 OA
ENDBRANCH   1  37
TORSDOF 6
