REMARK  Name = ZINC14656398
REMARK  10 active torsions:
REMARK  status: ('A' for Active; 'I' for Inactive)
REMARK    1  A    between atoms: C_1  and  C_2
REMARK    2  A    between atoms: C_2  and  C_3
REMARK    3  A    between atoms: C_3  and  C_4
REMARK    4  A    between atoms: C_4  and  N_5
REMARK    5  A    between atoms: C_6  and  N_34
REMARK    6  A    between atoms: C_7  and  N_14
REMARK    7  A    between atoms: N_14  and  C_15
REMARK    8  A    between atoms: C_16  and  C_18
REMARK    9  A    between atoms: C_22  and  S_24
REMARK   10  A    between atoms: S_24  and  N_27
REMARK                            x       y       z     vdW  Elec       q    Type
REMARK                         _______ _______ _______ _____ _____    ______ ____
ROOT
ATOM      1  N   UNL     1       2.205   2.592  -0.698  0.00  0.00    -0.263 N 
ATOM      2  C   UNL     1       1.088   1.653  -0.833  0.00  0.00    +0.139 C 
ATOM      3  C   UNL     1       3.460   2.128  -0.538  0.00  0.00    +0.251 C 
ATOM      4  O   UNL     1       3.675   0.931  -0.575  0.00  0.00    -0.270 OA
ENDROOT
BRANCH   1   7
ATOM      5  N   UNL     1       0.886   5.927   0.098  0.00  0.00    -0.280 N 
ATOM      6  C   UNL     1       1.099   4.569   0.161  0.00  0.00    +0.127 A 
ATOM      7  C   UNL     1       1.966   3.981  -0.737  0.00  0.00    +0.140 A 
ATOM      8  C   UNL     1       2.608   4.792  -1.692  0.00  0.00    +0.277 A 
ATOM      9  O   UNL     1       3.378   4.298  -2.498  0.00  0.00    -0.266 OA
ATOM     10  N   UNL     1       2.364   6.117  -1.711  0.00  0.00    -0.273 N 
ATOM     11  H   UNL     1       2.817   6.693  -2.392  0.00  0.00    +0.173 HD
ATOM     12  C   UNL     1       1.520   6.673  -0.825  0.00  0.00    +0.331 A 
ATOM     13  O   UNL     1       1.322   7.873  -0.861  0.00  0.00    -0.246 OA
BRANCH   6  14
ATOM     14  N   UNL     1       0.455   3.808   1.107  0.00  0.00    -0.343 N 
ATOM     15  H   UNL     1       0.670   2.867   1.201  0.00  0.00    +0.144 HD
ATOM     16  H   UNL     1      -0.215   4.212   1.681  0.00  0.00    +0.144 HD
ENDBRANCH   6  14
BRANCH   5  17
ATOM     17  C   UNL     1      -0.031   6.565   1.046  0.00  0.00    +0.128 C 
BRANCH  17  18
ATOM     18  C   UNL     1       0.744   7.001   2.291  0.00  0.00    +0.021 C 
BRANCH  18  20
ATOM     19  C   UNL     1       0.560   8.103   4.526  0.00  0.00    +0.004 C 
ATOM     20  C   UNL     1      -0.215   7.667   3.280  0.00  0.00    -0.002 C 
ENDBRANCH  18  20
ENDBRANCH  17  18
ENDBRANCH   5  17
ENDBRANCH   1   7
BRANCH   3  21
ATOM     21  C   UNL     1       4.574   3.073  -0.317  0.00  0.00    +0.039 A 
ATOM     22  C   UNL     1       4.317   4.361   0.157  0.00  0.00    +0.014 A 
ATOM     23  C   UNL     1       5.362   5.236   0.367  0.00  0.00    +0.023 A 
ATOM     24  C   UNL     1       6.663   4.844   0.097  0.00  0.00    +0.067 A 
ATOM     25  C   UNL     1       6.923   3.569  -0.379  0.00  0.00    +0.124 A 
ATOM     26  C   UNL     1       5.887   2.683  -0.588  0.00  0.00    +0.043 A 
ATOM     27 CL   UNL     1       7.972   5.954   0.356  0.00  0.00    -0.082 Cl
BRANCH  25  28
ATOM     28  S   UNL     1       8.581   3.079  -0.720  0.00  0.00    +0.062 S 
ATOM     29  O   UNL     1       8.518   1.749  -1.215  0.00  0.00    -0.153 OA
ATOM     30  O   UNL     1       9.175   4.139  -1.456  0.00  0.00    -0.153 OA
BRANCH  28  31
ATOM     31  N   UNL     1       9.378   3.007   0.731  0.00  0.00    -0.177 NA
ATOM     32  C   UNL     1      10.213   4.128   1.182  0.00  0.00    +0.109 C 
ATOM     33  C   UNL     1       9.754   4.544   2.588  0.00  0.00    +0.017 C 
ATOM     34  C   UNL     1       9.787   3.324   3.511  0.00  0.00    +0.003 C 
ATOM     35  C   UNL     1       8.823   2.258   2.986  0.00  0.00    +0.017 C 
ATOM     36  C   UNL     1       9.267   1.819   1.587  0.00  0.00    +0.109 C 
ENDBRANCH  28  31
ENDBRANCH  25  28
ENDBRANCH   3  21
TORSDOF 8
