REMARK  Name = ZINC36304969
REMARK  19 active torsions:
REMARK  status: ('A' for Active; 'I' for Inactive)
REMARK    1  A    between atoms: C_1  and  C_2
REMARK    2  A    between atoms: C_2  and  C_3
REMARK    3  A    between atoms: C_2  and  C_4
REMARK    4  A    between atoms: C_2  and  O_5
REMARK    5  A    between atoms: O_5  and  C_6
REMARK    6  A    between atoms: C_6  and  C_7
REMARK    7  A    between atoms: C_7  and  C_9
REMARK    8  A    between atoms: C_7  and  O_36
REMARK    9  A    between atoms: C_9  and  N_10
REMARK   10  A    between atoms: N_10  and  C_11
REMARK   11  A    between atoms: N_10  and  C_15
REMARK   12  A    between atoms: C_11  and  C_12
REMARK   13  A    between atoms: C_12  and  O_13
REMARK   14  A    between atoms: O_13  and  C_14
REMARK   15  A    between atoms: C_15  and  C_16
REMARK   16  A    between atoms: C_17  and  C_30
REMARK   17  A    between atoms: N_19  and  C_29
REMARK   18  A    between atoms: C_20  and  O_21
REMARK   19  A    between atoms: O_21  and  C_22
REMARK                            x       y       z     vdW  Elec       q    Type
REMARK                         _______ _______ _______ _____ _____    ______ ____
ROOT
ATOM      1  C   UNL     1       7.122  -1.243  -2.415  0.00  0.00    +0.025 A 
ATOM      2  C   UNL     1       7.574  -0.987  -1.107  0.00  0.00    +0.098 A 
ATOM      3  N   UNL     1       8.184  -2.067  -0.666  0.00  0.00    -0.168 NA
ATOM      4  N   UNL     1       8.142  -3.038  -1.674  0.00  0.00    -0.235 N 
ATOM      5  C   UNL     1       7.480  -2.513  -2.737  0.00  0.00    +0.221 A 
ATOM      6  C   UNL     1       8.707  -4.388  -1.593  0.00  0.00    +0.176 C 
ENDROOT
BRANCH   2   7
ATOM      7  C   UNL     1       7.393   0.280  -0.355  0.00  0.00    +0.002 A 
ATOM      8  C   UNL     1       7.591   1.504  -0.990  0.00  0.00    +0.010 A 
ATOM      9  C   UNL     1       7.422   2.679  -0.286  0.00  0.00    +0.001 A 
ATOM     10  C   UNL     1       7.057   2.643   1.047  0.00  0.00    +0.000 A 
ATOM     11  C   UNL     1       6.859   1.430   1.683  0.00  0.00    +0.001 A 
ATOM     12  C   UNL     1       7.020   0.249   0.987  0.00  0.00    +0.010 A 
ENDBRANCH   2   7
BRANCH   1  13
ATOM     13  C   UNL     1       6.370  -0.282  -3.299  0.00  0.00    -0.035 C 
BRANCH  13  14
ATOM     14  N   UNL     1       4.929  -0.548  -3.198  0.00  0.00    +0.386 N 
ATOM     15  H   UNL     1       4.748  -1.511  -3.438  0.00  0.00    -0.081 HD
BRANCH  14  16
ATOM     16  C   UNL     1       4.479  -0.293  -1.823  0.00  0.00    -0.044 C 
BRANCH  16  17
ATOM     17  C   UNL     1       3.008  -0.690  -1.687  0.00  0.00    +0.124 C 
BRANCH  17  18
ATOM     18  O   UNL     1       2.875  -2.100  -1.873  0.00  0.00    -0.391 OA
ATOM     19  H   UNL     1       3.373  -2.630  -1.235  0.00  0.00    +0.210 HD
ENDBRANCH  17  18
BRANCH  17  20
ATOM     20  C   UNL     1       2.504  -0.309  -0.293  0.00  0.00    +0.189 C 
BRANCH  20  21
ATOM     21  O   UNL     1       1.103  -0.572  -0.204  0.00  0.00    -0.372 OA
BRANCH  21  23
ATOM     22  C   UNL     1       0.729   1.240   1.350  0.00  0.00    +0.041 C 
ATOM     23  C   UNL     1       0.530  -0.249   1.065  0.00  0.00    +0.061 C 
ATOM     24  C   UNL     1       1.213  -1.074   2.157  0.00  0.00    +0.041 C 
ATOM     25  C   UNL     1      -0.966  -0.570   1.045  0.00  0.00    +0.041 C 
ENDBRANCH  21  23
ENDBRANCH  20  21
ENDBRANCH  17  20
ENDBRANCH  16  17
ENDBRANCH  14  16
BRANCH  14  26
ATOM     26  C   UNL     1       4.202   0.332  -4.122  0.00  0.00    -0.050 C 
BRANCH  26  27
ATOM     27  C   UNL     1       4.570  -0.027  -5.564  0.00  0.00    +0.141 C 
BRANCH  27  28
ATOM     28  O   UNL     1       4.122  -1.353  -5.853  0.00  0.00    -0.385 OA
ATOM     29  C   UNL     1       4.417  -1.788  -7.182  0.00  0.00    +0.193 C 
ENDBRANCH  27  28
ENDBRANCH  26  27
ENDBRANCH  14  26
ENDBRANCH  13  14
ENDBRANCH   1  13
BRANCH   5  30
ATOM     30  O   UNL     1       7.224  -3.143  -3.912  0.00  0.00    -0.437 OA
BRANCH  30  31
ATOM     31  C   UNL     1       8.180  -3.104  -4.877  0.00  0.00    +0.149 A 
ATOM     32  C   UNL     1       9.379  -2.447  -4.643  0.00  0.00    +0.048 A 
ATOM     33  C   UNL     1      10.349  -2.409  -5.625  0.00  0.00    +0.004 A 
ATOM     34  C   UNL     1      10.126  -3.026  -6.843  0.00  0.00    +0.002 A 
ATOM     35  C   UNL     1       8.933  -3.682  -7.080  0.00  0.00    +0.024 A 
ATOM     36  C   UNL     1       7.961  -3.728  -6.098  0.00  0.00    +0.083 A 
ATOM     37 CL   UNL     1       6.465  -4.559  -6.394  0.00  0.00    -0.080 Cl
ENDBRANCH  30  31
ENDBRANCH   5  30
TORSDOF 14
