REMARK  Name = ZINC36202914
REMARK  13 active torsions:
REMARK  status: ('A' for Active; 'I' for Inactive)
REMARK    1  A    between atoms: C_1  and  O_2
REMARK    2  A    between atoms: O_2  and  C_3
REMARK    3  A    between atoms: C_3  and  C_4
REMARK    4  A    between atoms: C_4  and  C_5
REMARK    5  A    between atoms: C_5  and  N_6
REMARK    6  A    between atoms: N_6  and  C_7
REMARK    7  A    between atoms: N_6  and  C_13
REMARK    8  A    between atoms: C_7  and  C_8
REMARK    9  A    between atoms: C_13  and  C_14
REMARK   10  A    between atoms: C_17  and  C_19
REMARK   11  A    between atoms: C_19  and  C_20
REMARK   12  A    between atoms: C_19  and  C_27
REMARK   13  A    between atoms: C_19  and  O_34
REMARK                            x       y       z     vdW  Elec       q    Type
REMARK                         _______ _______ _______ _____ _____    ______ ____
ROOT
ATOM      1  C   UNL     1       1.929  -8.010   3.164  0.00  0.00    +0.089 A 
ATOM      2  C   UNL     1       2.551  -9.030   2.545  0.00  0.00    +0.043 A 
ATOM      3  C   UNL     1       1.655 -10.123   2.556  0.00  0.00    +0.048 A 
ATOM      4  C   UNL     1       0.539  -9.706   3.180  0.00  0.00    +0.146 A 
ATOM      5  O   UNL     1       0.713  -8.427   3.552  0.00  0.00    -0.463 OA
ENDROOT
BRANCH   1   6
ATOM      6  C   UNL     1       2.503  -6.635   3.390  0.00  0.00    -0.003 C 
BRANCH   6   7
ATOM      7  N   UNL     1       2.161  -5.769   2.253  0.00  0.00    +0.387 N 
ATOM      8  H   UNL     1       2.474  -6.200   1.396  0.00  0.00    -0.081 HD
BRANCH   7   9
ATOM      9  C   UNL     1       2.819  -4.466   2.415  0.00  0.00    -0.076 C 
BRANCH   9  10
ATOM     10  C   UNL     1       2.584  -3.617   1.164  0.00  0.00    +0.009 C 
BRANCH  10  11
ATOM     11  C   UNL     1       3.216  -2.237   1.358  0.00  0.00    +0.157 C 
BRANCH  11  13
ATOM     12  C   UNL     1       3.551  -0.130   0.267  0.00  0.00    +0.193 C 
ATOM     13  O   UNL     1       2.997  -1.445   0.189  0.00  0.00    -0.383 OA
ENDBRANCH  11  13
ENDBRANCH  10  11
ENDBRANCH   9  10
ENDBRANCH   7   9
BRANCH   7  14
ATOM     14  C   UNL     1       0.705  -5.580   2.203  0.00  0.00    -0.042 C 
BRANCH  14  15
ATOM     15  C   UNL     1       0.255  -4.820   3.424  0.00  0.00    -0.057 A 
ATOM     16  C   UNL     1      -0.006  -5.484   4.608  0.00  0.00    +0.009 A 
ATOM     17  C   UNL     1      -0.409  -4.771   5.688  0.00  0.00    +0.045 A 
ATOM     18  S   UNL     1      -0.429  -3.106   5.043  0.00  0.00    -0.105 S 
ATOM     19  C   UNL     1       0.106  -3.473   3.380  0.00  0.00    +0.047 A 
ENDBRANCH  14  15
ENDBRANCH   7  14
ENDBRANCH   6   7
ENDBRANCH   1   6
BRANCH   4  20
ATOM     20  C   UNL     1      -0.696 -10.535   3.426  0.00  0.00    +0.174 C 
BRANCH  20  21
ATOM     21  C   UNL     1      -1.371 -10.067   4.690  0.00  0.00    -0.002 A 
ATOM     22  C   UNL     1      -1.962  -8.819   4.736  0.00  0.00    +0.007 A 
ATOM     23  C   UNL     1      -2.582  -8.388   5.894  0.00  0.00    +0.003 A 
ATOM     24  C   UNL     1      -2.611  -9.206   7.008  0.00  0.00    +0.038 A 
ATOM     25  C   UNL     1      -2.018 -10.457   6.963  0.00  0.00    +0.124 A 
ATOM     26  C   UNL     1      -1.403 -10.889   5.800  0.00  0.00    +0.045 A 
ATOM     27  F   UNL     1      -2.045 -11.257   8.052  0.00  0.00    -0.205 F 
ENDBRANCH  20  21
BRANCH  20  28
ATOM     28  C   UNL     1      -1.643 -10.383   2.265  0.00  0.00    -0.002 A 
ATOM     29  C   UNL     1      -1.749  -9.167   1.615  0.00  0.00    +0.007 A 
ATOM     30  C   UNL     1      -2.618  -9.025   0.549  0.00  0.00    +0.003 A 
ATOM     31  C   UNL     1      -3.382 -10.099   0.132  0.00  0.00    +0.038 A 
ATOM     32  C   UNL     1      -3.276 -11.317   0.782  0.00  0.00    +0.124 A 
ATOM     33  C   UNL     1      -2.401 -11.459   1.846  0.00  0.00    +0.045 A 
ATOM     34  F   UNL     1      -4.022 -12.367   0.375  0.00  0.00    -0.205 F 
ENDBRANCH  20  28
BRANCH  20  35
ATOM     35  O   UNL     1      -0.327 -11.909   3.564  0.00  0.00    -0.372 OA
ATOM     36  H   UNL     1       0.113 -12.277   2.786  0.00  0.00    +0.212 HD
ENDBRANCH  20  35
ENDBRANCH   4  20
TORSDOF 12
