REMARK  Name = ZINC63746701
REMARK  8 active torsions:
REMARK  status: ('A' for Active; 'I' for Inactive)
REMARK    1  A    between atoms: C_1  and  C_2
REMARK    2  A    between atoms: C_5  and  C_28
REMARK    3  A    between atoms: C_6  and  C_20
REMARK    4  A    between atoms: C_10  and  N_12
REMARK    5  A    between atoms: N_15  and  C_16
REMARK    6  A    between atoms: C_16  and  C_17
REMARK    7  A    between atoms: C_17  and  C_18
REMARK    8  A    between atoms: C_17  and  C_19
REMARK                            x       y       z     vdW  Elec       q    Type
REMARK                         _______ _______ _______ _____ _____    ______ ____
ROOT
ATOM      1  C   UNL     1      -0.608   0.899   1.313  0.00  0.00    +0.044 C 
ATOM      2  C   UNL     1      -0.433  -0.545   0.922  0.00  0.00    -0.048 A 
ATOM      3  C   UNL     1      -0.380  -0.862  -0.392  0.00  0.00    +0.013 A 
ATOM      4  C   UNL     1      -0.216  -2.210  -0.798  0.00  0.00    +0.006 A 
ATOM      5  C   UNL     1      -0.131  -2.811  -2.041  0.00  0.00    -0.000 C 
ATOM      6  C   UNL     1       0.040  -4.289  -1.770  0.00  0.00    +0.198 C 
ATOM      7  N   UNL     1       0.040  -4.435  -0.311  0.00  0.00    -0.368 N 
ATOM      8  C   UNL     1      -0.105  -3.254   0.239  0.00  0.00    +0.065 A 
ATOM      9  C   UNL     1      -0.172  -2.829   1.646  0.00  0.00    +0.059 A 
ATOM     10  C   UNL     1      -0.326  -1.508   1.930  0.00  0.00    +0.028 A 
ATOM     11  H   UNL     1       0.133  -5.272   0.170  0.00  0.00    +0.161 HD
ENDROOT
BRANCH   6  12
ATOM     12  C   UNL     1       1.347  -4.774  -2.342  0.00  0.00    +0.243 C 
ATOM     13  O   UNL     1       2.347  -4.772  -1.656  0.00  0.00    -0.273 OA
ATOM     14  N   UNL     1       1.405  -5.210  -3.616  0.00  0.00    -0.295 N 
ATOM     15  C   UNL     1       0.238  -5.104  -4.506  0.00  0.00    +0.136 C 
ATOM     16  C   UNL     1       0.686  -4.441  -5.814  0.00  0.00    +0.179 C 
ATOM     17  O   UNL     1       1.819  -5.141  -6.333  0.00  0.00    -0.377 OA
ATOM     18  C   UNL     1       2.968  -5.107  -5.483  0.00  0.00    +0.179 C 
ATOM     19  C   UNL     1       2.639  -5.799  -4.160  0.00  0.00    +0.136 C 
ENDBRANCH   6  12
BRANCH   9  20
ATOM     20  N   UNL     1      -0.074  -3.769   2.677  0.00  0.00    -0.268 N 
ATOM     21  C   UNL     1       0.359  -3.390   3.896  0.00  0.00    +0.304 C 
ATOM     22  O   UNL     1       0.760  -2.256   4.073  0.00  0.00    -0.253 OA
ATOM     23  N   UNL     1       0.348  -4.269   4.918  0.00  0.00    -0.299 N 
ATOM     24  H   UNL     1      -0.318  -4.694   2.514  0.00  0.00    +0.156 HD
ATOM     25  H   UNL     1       0.028  -5.174   4.776  0.00  0.00    +0.150 HD
BRANCH  23  26
ATOM     26  C   UNL     1       0.819  -3.857   6.242  0.00  0.00    +0.108 C 
BRANCH  26  27
ATOM     27  C   UNL     1       0.701  -5.034   7.214  0.00  0.00    -0.000 C 
ATOM     28  C   UNL     1       1.307  -4.643   8.563  0.00  0.00    +0.009 C 
ATOM     29  C   UNL     1      -0.774  -5.394   7.402  0.00  0.00    +0.009 C 
ENDBRANCH  26  27
ENDBRANCH  23  26
ENDBRANCH   9  20
BRANCH   5  30
ATOM     30  C   UNL     1      -0.194  -2.152  -3.348  0.00  0.00    -0.019 A 
ATOM     31  C   UNL     1      -1.237  -2.447  -4.237  0.00  0.00    +0.008 A 
ATOM     32  C   UNL     1      -1.287  -1.823  -5.464  0.00  0.00    +0.001 A 
ATOM     33  C   UNL     1      -0.312  -0.907  -5.821  0.00  0.00    +0.000 A 
ATOM     34  C   UNL     1       0.722  -0.609  -4.949  0.00  0.00    +0.001 A 
ATOM     35  C   UNL     1       0.786  -1.219  -3.715  0.00  0.00    +0.008 A 
ENDBRANCH   5  30
TORSDOF 5
