REMARK  Name = ZINC62833550
REMARK  7 active torsions:
REMARK  status: ('A' for Active; 'I' for Inactive)
REMARK    1  A    between atoms: C_1  and  N_2
REMARK    2  A    between atoms: N_2  and  C_3
REMARK    3  A    between atoms: N_2  and  C_12
REMARK    4  A    between atoms: C_3  and  C_4
REMARK    5  A    between atoms: N_6  and  C_7
REMARK    6  A    between atoms: C_15  and  C_19
REMARK    7  A    between atoms: C_17  and  N_18
REMARK                            x       y       z     vdW  Elec       q    Type
REMARK                         _______ _______ _______ _____ _____    ______ ____
ROOT
ATOM      1  C   UNL     1      -0.025   1.455  -0.024  0.00  0.00    +0.130 C 
ATOM      2  N   UNL     1       0.020  -0.009   0.008  0.00  0.00    -0.323 N 
ENDROOT
BRANCH   2   3
ATOM      3  C   UNL     1       0.026  -0.731  -1.182  0.00  0.00    +0.051 A 
ATOM      4  C   UNL     1      -1.175  -1.036  -1.814  0.00  0.00    +0.026 A 
ATOM      5  C   UNL     1      -1.175  -1.751  -2.991  0.00  0.00    +0.017 A 
ATOM      6  C   UNL     1       0.035  -2.172  -3.554  0.00  0.00    +0.065 A 
ATOM      7  C   UNL     1       1.244  -1.866  -2.919  0.00  0.00    +0.039 A 
ATOM      8  C   UNL     1       1.239  -1.144  -1.742  0.00  0.00    +0.047 A 
BRANCH   8   9
ATOM      9  N   UNL     1       2.446  -0.831  -1.106  0.00  0.00    -0.357 N 
ATOM     10  H   UNL     1       2.447  -0.266  -0.318  0.00  0.00    +0.142 HD
ATOM     11  H   UNL     1       3.282  -1.179  -1.454  0.00  0.00    +0.142 HD
ENDBRANCH   8   9
BRANCH   6  12
ATOM     12  C   UNL     1       0.035  -2.937  -4.811  0.00  0.00    +0.387 C 
ATOM     13  O   UNL     1      -1.022  -3.204  -5.365  0.00  0.00    -0.241 OA
ATOM     14  O   UNL     1       1.094  -3.305  -5.303  0.00  0.00    -0.241 OA
ENDBRANCH   6  12
ENDBRANCH   2   3
BRANCH   2  15
ATOM     15  C   UNL     1       0.059  -0.712   1.292  0.00  0.00    +0.200 C 
BRANCH  15  16
ATOM     16  C   UNL     1      -1.344  -0.880   1.816  0.00  0.00    +0.231 C 
ATOM     17  O   UNL     1      -2.289  -0.534   1.140  0.00  0.00    -0.274 OA
ATOM     18  N   UNL     1      -1.548  -1.414   3.037  0.00  0.00    -0.311 N 
ATOM     19  H   UNL     1      -0.792  -1.690   3.578  0.00  0.00    +0.149 HD
BRANCH  18  20
ATOM     20  C   UNL     1      -2.912  -1.577   3.546  0.00  0.00    +0.073 C 
ATOM     21  C   UNL     1      -3.362  -0.292   4.272  0.00  0.00    +0.022 C 
ATOM     22  C   UNL     1      -4.202  -0.806   5.468  0.00  0.00    +0.002 C 
ATOM     23  C   UNL     1      -3.428  -2.072   5.911  0.00  0.00    +0.002 C 
ATOM     24  C   UNL     1      -2.954  -2.708   4.588  0.00  0.00    +0.022 C 
ENDBRANCH  18  20
ENDBRANCH  15  16
ENDBRANCH   2  15
TORSDOF 6
