REMARK  Name = ZINC39676991
REMARK  10 active torsions:
REMARK  status: ('A' for Active; 'I' for Inactive)
REMARK    1  A    between atoms: C_1  and  C_2
REMARK    2  A    between atoms: C_5  and  C_35
REMARK    3  A    between atoms: C_6  and  C_8
REMARK    4  A    between atoms: C_8  and  C_9
REMARK    5  A    between atoms: C_9  and  N_10
REMARK    6  A    between atoms: C_11  and  C_13
REMARK    7  A    between atoms: C_24  and  C_26
REMARK    8  A    between atoms: C_30  and  N_32
REMARK    9  A    between atoms: N_32  and  C_33
REMARK   10  A    between atoms: N_32  and  C_34
REMARK                            x       y       z     vdW  Elec       q    Type
REMARK                         _______ _______ _______ _____ _____    ______ ____
ROOT
ATOM      1  C   UNL     1       2.450  -5.396   6.522  0.00  0.00    +0.100 C 
ATOM      2  C   UNL     1       1.640  -6.626   6.053  0.00  0.00    +0.121 C 
ATOM      3  N   UNL     1       2.664  -7.625   5.670  0.00  0.00    -0.296 N 
ATOM      4  C   UNL     1       3.723  -7.480   6.697  0.00  0.00    +0.115 C 
ATOM      5  C   UNL     1       3.815  -5.962   6.947  0.00  0.00    -0.004 C 
ATOM      6  C   UNL     1       4.927  -5.354   6.096  0.00  0.00    -0.010 C 
ATOM      7  C   UNL     1       6.279  -5.889   6.575  0.00  0.00    -0.082 C 
ATOM      8  N   UNL     1       6.472  -5.542   7.988  0.00  0.00    +0.379 N 
ATOM      9  C   UNL     1       5.453  -6.205   8.810  0.00  0.00    -0.082 C 
ATOM     10  C   UNL     1       4.066  -5.684   8.426  0.00  0.00    -0.010 C 
ATOM     11  C   UNL     1       2.639  -8.474   4.623  0.00  0.00    +0.247 C 
ATOM     12  O   UNL     1       1.757  -8.388   3.792  0.00  0.00    -0.270 OA
ATOM     13  H   UNL     1       7.389  -5.841   8.284  0.00  0.00    -0.086 HD
ATOM     14  H   UNL     1       6.395  -4.542   8.101  0.00  0.00    -0.086 HD
ENDROOT
BRANCH  11  15
ATOM     15  C   UNL     1       3.685  -9.511   4.487  0.00  0.00    +0.039 A 
ATOM     16  C   UNL     1       4.424  -9.911   5.602  0.00  0.00    +0.013 A 
ATOM     17  C   UNL     1       5.399 -10.879   5.472  0.00  0.00    +0.003 A 
ATOM     18  C   UNL     1       5.649 -11.454   4.240  0.00  0.00    +0.023 A 
ATOM     19  C   UNL     1       4.920 -11.062   3.124  0.00  0.00    +0.030 A 
ATOM     20  C   UNL     1       3.933 -10.095   3.245  0.00  0.00    +0.036 A 
BRANCH  19  21
ATOM     21  N   UNL     1       5.177 -11.646   1.881  0.00  0.00    -0.336 N 
ATOM     22  C   UNL     1       6.215 -12.672   1.754  0.00  0.00    +0.129 C 
ATOM     23  C   UNL     1       4.407 -11.233   0.705  0.00  0.00    +0.129 C 
ENDBRANCH  19  21
ENDBRANCH  11  15
BRANCH   1  25
ATOM     24  N   UNL     1       2.849  -3.114   5.654  0.00  0.00    -0.315 N 
ATOM     25  C   UNL     1       2.617  -4.415   5.390  0.00  0.00    +0.218 C 
ATOM     26  O   UNL     1       2.544  -4.797   4.241  0.00  0.00    -0.275 OA
ATOM     27  H   UNL     1       2.908  -2.809   6.573  0.00  0.00    +0.149 HD
BRANCH  24  28
ATOM     28  C   UNL     1       3.012  -2.161   4.554  0.00  0.00    +0.109 C 
BRANCH  28  29
ATOM     29  C   UNL     1       3.262  -0.763   5.123  0.00  0.00    +0.054 C 
BRANCH  29  35
ATOM     30  C   UNL     1       6.228   1.787   2.001  0.00  0.00    +0.044 C 
ATOM     31  C   UNL     1       4.848   1.438   2.498  0.00  0.00    -0.050 A 
ATOM     32  C   UNL     1       3.737   2.018   1.916  0.00  0.00    +0.003 A 
ATOM     33  C   UNL     1       2.472   1.698   2.372  0.00  0.00    +0.004 A 
ATOM     34  C   UNL     1       2.318   0.798   3.410  0.00  0.00    -0.047 A 
ATOM     35  C   UNL     1       3.429   0.218   3.991  0.00  0.00    -0.043 A 
ATOM     36  C   UNL     1       4.694   0.534   3.533  0.00  0.00    +0.007 A 
ATOM     37  C   UNL     1       0.939   0.450   3.908  0.00  0.00    +0.044 C 
ENDBRANCH  29  35
ENDBRANCH  28  29
ENDBRANCH  24  28
ENDBRANCH   1  25
TORSDOF 6
