REMARK  Name = ZINC09541958
REMARK  9 active torsions:
REMARK  status: ('A' for Active; 'I' for Inactive)
REMARK    1  A    between atoms: C_1  and  O_2
REMARK    2  A    between atoms: O_2  and  C_3
REMARK    3  A    between atoms: C_7  and  C_9
REMARK    4  A    between atoms: C_11  and  C_24
REMARK    5  A    between atoms: C_13  and  C_16
REMARK    6  A    between atoms: C_21  and  O_22
REMARK    7  A    between atoms: C_27  and  C_30
REMARK    8  A    between atoms: C_30  and  O_32
REMARK    9  A    between atoms: O_32  and  C_33
REMARK                            x       y       z     vdW  Elec       q    Type
REMARK                         _______ _______ _______ _____ _____    ______ ____
ROOT
ATOM      1  C   UNL     1      -2.755   5.390   1.914  0.00  0.00    +0.040 C 
ATOM      2  N   UNL     1      -2.383   5.149   0.714  0.00  0.00    -0.299 NA
ATOM      3  C   UNL     1      -2.554   3.865   0.046  0.00  0.00    +0.081 C 
ATOM      4  C   UNL     1      -3.234   2.973   2.181  0.00  0.00    -0.028 C 
ATOM      5  C   UNL     1      -3.429   4.367   2.786  0.00  0.00    +0.044 C 
ATOM      6  N   UNL     1      -3.556   3.044   0.743  0.00  0.00    +0.401 N 
ATOM      7  H   UNL     1      -3.555   2.097   0.346  0.00  0.00    -0.081 HD
ATOM      8  H   UNL     1      -4.485   3.465   0.622  0.00  0.00    -0.081 HD
ENDROOT
BRANCH   4   9
ATOM      9  C   UNL     1      -4.158   1.992   2.857  0.00  0.00    -0.019 A 
ATOM     10  C   UNL     1      -5.355   1.646   2.260  0.00  0.00    +0.007 A 
ATOM     11  C   UNL     1      -6.201   0.743   2.876  0.00  0.00    +0.020 A 
ATOM     12  C   UNL     1      -5.856   0.192   4.098  0.00  0.00    +0.044 A 
ATOM     13  C   UNL     1      -4.662   0.539   4.702  0.00  0.00    +0.065 A 
ATOM     14  C   UNL     1      -3.810   1.441   4.081  0.00  0.00    +0.120 A 
ATOM     15 CL   UNL     1      -6.924  -0.936   4.873  0.00  0.00    -0.083 Cl
BRANCH  14  16
ATOM     16  O   UNL     1      -2.635   1.784   4.672  0.00  0.00    -0.507 OA
ATOM     17  H   UNL     1      -2.699   2.551   5.258  0.00  0.00    +0.292 HD
ENDBRANCH  14  16
ENDBRANCH   4   9
BRANCH   1  22
ATOM     18  C   UNL     1      -1.660   8.971   2.220  0.00  0.00    +0.121 A 
ATOM     19  C   UNL     1      -2.052   9.261   3.520  0.00  0.00    +0.045 A 
ATOM     20  C   UNL     1      -2.670   8.295   4.292  0.00  0.00    +0.004 A 
ATOM     21  C   UNL     1      -2.905   7.037   3.774  0.00  0.00    +0.010 A 
ATOM     22  C   UNL     1      -2.509   6.735   2.470  0.00  0.00    -0.001 A 
ATOM     23  C   UNL     1      -1.886   7.712   1.692  0.00  0.00    +0.055 A 
BRANCH  18  25
ATOM     24  C   UNL     1      -0.851  11.202   2.073  0.00  0.00    +0.277 C 
ATOM     25  O   UNL     1      -1.053   9.925   1.465  0.00  0.00    -0.495 OA
ENDBRANCH  18  25
ENDBRANCH   1  22
BRANCH   3  26
ATOM     26  C   UNL     1      -1.236   3.134   0.030  0.00  0.00    -0.040 A 
ATOM     27  C   UNL     1      -1.216   1.751   0.017  0.00  0.00    +0.004 A 
ATOM     28  C   UNL     1      -0.013   1.076   0.008  0.00  0.00    +0.015 A 
ATOM     29  C   UNL     1       1.186   1.792   0.000  0.00  0.00    +0.059 A 
ATOM     30  C   UNL     1       1.158   3.188   0.008  0.00  0.00    +0.015 A 
ATOM     31  C   UNL     1      -0.052   3.850   0.022  0.00  0.00    +0.004 A 
BRANCH  29  32
ATOM     32  C   UNL     1       2.478   1.076  -0.015  0.00  0.00    +0.339 C 
ATOM     33  O   UNL     1       2.499  -0.139  -0.021  0.00  0.00    -0.245 OA
BRANCH  32  34
ATOM     34  O   UNL     1       3.633   1.770  -0.022  0.00  0.00    -0.464 OA
ATOM     35  C   UNL     1       4.864   1.000  -0.037  0.00  0.00    +0.280 C 
ENDBRANCH  32  34
ENDBRANCH  29  32
ENDBRANCH   3  26
TORSDOF 7
