REMARK  Name = ZINC44021182
REMARK  9 active torsions:
REMARK  status: ('A' for Active; 'I' for Inactive)
REMARK    1  A    between atoms: C_1  and  C_2
REMARK    2  A    between atoms: C_2  and  C_4
REMARK    3  A    between atoms: C_2  and  C_9
REMARK    4  A    between atoms: C_4  and  C_5
REMARK    5  A    between atoms: C_5  and  C_6
REMARK    6  A    between atoms: C_15  and  C_37
REMARK    7  A    between atoms: C_16  and  O_36
REMARK    8  A    between atoms: C_23  and  O_35
REMARK    9  A    between atoms: C_28  and  C_34
REMARK                            x       y       z     vdW  Elec       q    Type
REMARK                         _______ _______ _______ _____ _____    ______ ____
ROOT
ATOM      1  C   UNL     1       0.668  -0.647  -1.295  0.00  0.00    +0.001 C 
ATOM      2  C   UNL     1      -0.103  -0.183  -2.545  0.00  0.00    +0.005 C 
ATOM      3  C   UNL     1      -0.733  -1.449  -3.170  0.00  0.00    +0.005 C 
ATOM      4  C   UNL     1      -0.809  -2.433  -1.988  0.00  0.00    +0.003 C 
ATOM      5  C   UNL     1       0.510  -2.190  -1.232  0.00  0.00    +0.000 C 
ATOM      6  C   UNL     1       1.693  -2.785  -1.999  0.00  0.00    +0.121 C 
ATOM      7  C   UNL     1       1.453  -4.262  -2.301  0.00  0.00    +0.036 C 
ATOM      8  C   UNL     1       0.219  -4.382  -3.201  0.00  0.00    +0.003 C 
ATOM      9  C   UNL     1      -0.979  -3.865  -2.435  0.00  0.00    +0.025 C 
ATOM     10  C   UNL     1      -2.217  -4.004  -3.324  0.00  0.00    +0.118 C 
ATOM     11  C   UNL     1      -2.419  -5.476  -3.682  0.00  0.00    +0.036 C 
ATOM     12  C   UNL     1      -1.194  -5.997  -4.439  0.00  0.00    +0.005 C 
ATOM     13  C   UNL     1       0.018  -5.851  -3.584  0.00  0.00    -0.025 C 
ATOM     14  C   UNL     1       1.244  -6.328  -4.368  0.00  0.00    +0.015 C 
ATOM     15  C   UNL     1       1.104  -7.819  -4.685  0.00  0.00    +0.075 C 
ATOM     16  C   UNL     1      -0.208  -8.030  -5.408  0.00  0.00    +0.134 C 
ATOM     17  O   UNL     1      -0.251  -8.627  -6.456  0.00  0.00    -0.297 OA
ATOM     18  C   UNL     1      -1.413  -7.480  -4.764  0.00  0.00    +0.078 C 
ATOM     19  C   UNL     1      -0.136  -6.693  -2.316  0.00  0.00    +0.012 C 
ATOM     20  C   UNL     1       0.437  -2.694   0.211  0.00  0.00    +0.014 C 
ENDROOT
BRANCH   1  22
ATOM     21  C   UNL     1      -1.447  -0.196  -0.044  0.00  0.00    +0.008 C 
ATOM     22  C   UNL     1       0.071  -0.006  -0.041  0.00  0.00    -0.010 C 
BRANCH  22  23
ATOM     23  C   UNL     1       0.397   1.489  -0.028  0.00  0.00    +0.015 C 
BRANCH  23  24
ATOM     24  C   UNL     1      -0.104   2.109   1.278  0.00  0.00    +0.125 C 
BRANCH  24  25
ATOM     25  C   UNL     1       0.218   3.582   1.290  0.00  0.00    +0.356 C 
ATOM     26  O   UNL     1       0.794   4.088   0.343  0.00  0.00    -0.246 OA
ATOM     27  O   UNL     1      -0.099   4.266   2.248  0.00  0.00    -0.246 OA
ENDBRANCH  24  25
ENDBRANCH  23  24
ENDBRANCH  22  23
ENDBRANCH   1  22
BRANCH  10  28
ATOM     28  O   UNL     1      -3.365  -3.522  -2.622  0.00  0.00    -0.391 OA
ATOM     29  H   UNL     1      -4.188  -3.579  -3.126  0.00  0.00    +0.210 HD
ENDBRANCH  10  28
BRANCH   6  30
ATOM     30  O   UNL     1       2.879  -2.653  -1.212  0.00  0.00    -0.391 OA
ATOM     31  H   UNL     1       3.673  -3.009  -1.635  0.00  0.00    +0.210 HD
ENDBRANCH   6  30
TORSDOF 6
