REMARK  Name = ZINC11349184
REMARK  10 active torsions:
REMARK  status: ('A' for Active; 'I' for Inactive)
REMARK    1  A    between atoms: C_1  and  C_2
REMARK    2  A    between atoms: C_2  and  C_3
REMARK    3  A    between atoms: C_3  and  N_4
REMARK    4  A    between atoms: N_4  and  C_5
REMARK    5  A    between atoms: N_4  and  C_19
REMARK    6  A    between atoms: C_5  and  C_6
REMARK    7  A    between atoms: C_15  and  C_17
REMARK    8  A    between atoms: C_20  and  N_35
REMARK    9  A    between atoms: N_21  and  C_28
REMARK   10  A    between atoms: C_28  and  C_29
REMARK                            x       y       z     vdW  Elec       q    Type
REMARK                         _______ _______ _______ _____ _____    ______ ____
ROOT
ATOM      1  C   UNL     1      -2.709  -2.072   1.184  0.00  0.00    +0.134 A 
ATOM      2  C   UNL     1      -3.769  -1.835   2.017  0.00  0.00    +0.127 A 
ATOM      3  N   UNL     1      -4.941  -2.533   1.834  0.00  0.00    -0.276 N 
ATOM      4  C   UNL     1      -5.042  -3.447   0.851  0.00  0.00    +0.331 A 
ATOM      5  O   UNL     1      -6.084  -4.057   0.707  0.00  0.00    -0.246 OA
ATOM      6  N   UNL     1      -4.009  -3.696   0.027  0.00  0.00    -0.273 N 
ATOM      7  H   UNL     1      -4.106  -4.380  -0.697  0.00  0.00    +0.173 HD
ATOM      8  C   UNL     1      -2.844  -3.033   0.166  0.00  0.00    +0.277 A 
ATOM      9  O   UNL     1      -1.912  -3.265  -0.586  0.00  0.00    -0.266 OA
ENDROOT
BRANCH   2  10
ATOM     10  N   UNL     1      -3.665  -0.904   3.025  0.00  0.00    -0.343 N 
ATOM     11  H   UNL     1      -2.838  -0.412   3.148  0.00  0.00    +0.144 HD
ATOM     12  H   UNL     1      -4.419  -0.739   3.613  0.00  0.00    +0.144 HD
ENDBRANCH   2  10
BRANCH   1  13
ATOM     13  N   UNL     1      -1.495  -1.365   1.347  0.00  0.00    -0.319 N 
BRANCH  13  14
ATOM     14  C   UNL     1      -0.402  -2.275   1.714  0.00  0.00    +0.105 C 
BRANCH  14  16
ATOM     15  C   UNL     1       0.544  -3.697   3.538  0.00  0.00    +0.005 C 
ATOM     16  C   UNL     1      -0.595  -2.750   3.156  0.00  0.00    +0.015 C 
ENDBRANCH  14  16
ENDBRANCH  13  14
BRANCH  13  17
ATOM     17  C   UNL     1      -1.162  -0.603   0.136  0.00  0.00    +0.141 C 
BRANCH  17  18
ATOM     18  C   UNL     1      -0.107   0.422   0.462  0.00  0.00    -0.013 A 
ATOM     19  C   UNL     1       1.179   0.248   0.068  0.00  0.00    +0.097 A 
ATOM     20  C   UNL     1       2.148   1.225   0.386  0.00  0.00    +0.338 A 
ATOM     21  O   UNL     1       3.300   1.056   0.026  0.00  0.00    -0.245 OA
ATOM     22  O   UNL     1       1.834   2.332   1.074  0.00  0.00    -0.422 OA
ATOM     23  C   UNL     1       0.572   2.566   1.496  0.00  0.00    +0.140 A 
ATOM     24  C   UNL     1      -0.443   1.636   1.214  0.00  0.00    +0.024 A 
ATOM     25  C   UNL     1      -1.750   1.874   1.649  0.00  0.00    +0.032 A 
ATOM     26  C   UNL     1      -2.033   3.024   2.354  0.00  0.00    +0.045 A 
ATOM     27  C   UNL     1      -1.028   3.942   2.631  0.00  0.00    -0.029 A 
ATOM     28  C   UNL     1       0.265   3.718   2.207  0.00  0.00    +0.051 A 
ATOM     29  C   UNL     1      -1.354   5.194   3.404  0.00  0.00    +0.045 C 
ATOM     30 CL   UNL     1      -3.654   3.327   2.898  0.00  0.00    -0.083 Cl
ENDBRANCH  17  18
ENDBRANCH  13  17
ENDBRANCH   1  13
BRANCH   3  31
ATOM     31  C   UNL     1      -6.083  -2.283   2.717  0.00  0.00    +0.163 C 
BRANCH  31  32
ATOM     32  C   UNL     1      -6.008  -3.203   3.907  0.00  0.00    -0.028 A 
ATOM     33  C   UNL     1      -6.617  -4.444   3.862  0.00  0.00    +0.005 A 
ATOM     34  C   UNL     1      -6.544  -5.290   4.952  0.00  0.00    +0.000 A 
ATOM     35  C   UNL     1      -5.871  -4.892   6.092  0.00  0.00    +0.000 A 
ATOM     36  C   UNL     1      -5.267  -3.649   6.140  0.00  0.00    +0.000 A 
ATOM     37  C   UNL     1      -5.335  -2.805   5.047  0.00  0.00    +0.005 A 
ENDBRANCH  31  32
ENDBRANCH   3  31
TORSDOF 8
