REMARK  Name = ZINC23642102
REMARK  14 active torsions:
REMARK  status: ('A' for Active; 'I' for Inactive)
REMARK    1  A    between atoms: C_1  and  C_2
REMARK    2  A    between atoms: C_2  and  C_3
REMARK    3  A    between atoms: C_5  and  C_29
REMARK    4  A    between atoms: C_6  and  N_8
REMARK    5  A    between atoms: C_9  and  C_11
REMARK    6  A    between atoms: C_11  and  O_12
REMARK    7  A    between atoms: O_12  and  C_13
REMARK    8  A    between atoms: C_13  and  C_15
REMARK    9  A    between atoms: C_15  and  C_16
REMARK   10  A    between atoms: C_16  and  C_18
REMARK   11  A    between atoms: C_16  and  N_25
REMARK   12  A    between atoms: C_29  and  O_31
REMARK   13  A    between atoms: O_31  and  C_32
REMARK   14  A    between atoms: C_32  and  C_33
REMARK                            x       y       z     vdW  Elec       q    Type
REMARK                         _______ _______ _______ _____ _____    ______ ____
ROOT
ATOM      1  O   UNL     1       2.431   0.899   0.118  0.00  0.00    -0.455 OA
ENDROOT
BRANCH   1   2
ATOM      2  C   UNL     1       3.640   1.480   0.068  0.00  0.00    +0.310 C 
ATOM      3  O   UNL     1       3.734   2.684   0.081  0.00  0.00    -0.251 OA
BRANCH   2   4
ATOM      4  C   UNL     1       4.882   0.628  -0.004  0.00  0.00    +0.147 C 
BRANCH   4   5
ATOM      5  C   UNL     1       6.117   1.531  -0.051  0.00  0.00    +0.115 C 
BRANCH   5   6
ATOM      6  C   UNL     1       7.349   0.686  -0.247  0.00  0.00    -0.027 A 
ATOM      7  C   UNL     1       8.593   1.190   0.085  0.00  0.00    +0.007 A 
ATOM      8  C   UNL     1       9.723   0.414  -0.089  0.00  0.00    +0.020 A 
ATOM      9  C   UNL     1       9.610  -0.865  -0.606  0.00  0.00    +0.041 A 
ATOM     10  C   UNL     1       8.366  -1.367  -0.943  0.00  0.00    +0.020 A 
ATOM     11  C   UNL     1       7.236  -0.592  -0.764  0.00  0.00    +0.007 A 
ATOM     12 CL   UNL     1      11.030  -1.838  -0.833  0.00  0.00    -0.084 Cl
ENDBRANCH   5   6
BRANCH   5  13
ATOM     13  N   UNL     1       6.228   2.272   1.208  0.00  0.00    -0.292 N 
ATOM     14  C   UNL     1       6.399   1.607   2.368  0.00  0.00    +0.298 C 
ATOM     15  O   UNL     1       6.546   0.401   2.361  0.00  0.00    -0.253 OA
ATOM     16  N   UNL     1       6.408   2.281   3.535  0.00  0.00    -0.313 N 
ATOM     17  H   UNL     1       6.171   3.370   1.206  0.00  0.00    +0.151 HD
ATOM     18  H   UNL     1       6.548   1.739   4.482  0.00  0.00    +0.146 HD
ATOM     19  H   UNL     1       6.275   3.373   3.541  0.00  0.00    +0.146 HD
ENDBRANCH   5  13
ENDBRANCH   4   5
ENDBRANCH   2   4
ENDBRANCH   1   2
BRANCH   1  20
ATOM     20  C   UNL     1       1.279   1.781   0.186  0.00  0.00    +0.328 C 
BRANCH  20  22
ATOM     21  N   UNL     1      -1.182   1.566   0.297  0.00  0.00    -0.277 N 
ATOM     22  C   UNL     1       0.018   0.957   0.235  0.00  0.00    +0.255 C 
ATOM     23  O   UNL     1       0.084  -0.254   0.215  0.00  0.00    -0.272 OA
ATOM     24  H   UNL     1      -1.242   2.664   0.316  0.00  0.00    +0.155 HD
BRANCH  21  28
ATOM     25  C   UNL     1      -4.277  -1.050   0.393  0.00  0.00    -0.008 A 
ATOM     26  C   UNL     1      -4.684   0.231   0.429  0.00  0.00    +0.028 A 
ATOM     27  C   UNL     1      -3.660   1.249   0.406  0.00  0.00    +0.088 A 
ATOM     28  C   UNL     1      -2.342   0.809   0.336  0.00  0.00    +0.086 A 
ATOM     29  S   UNL     1      -2.502  -0.915   0.318  0.00  0.00    -0.078 S 
BRANCH  25  31
ATOM     30  C   UNL     1      -5.466  -2.701  -1.025  0.00  0.00    +0.009 C 
ATOM     31  C   UNL     1      -5.119  -2.300   0.410  0.00  0.00    +0.039 C 
ENDBRANCH  25  31
BRANCH  27  32
ATOM     32  C   UNL     1      -3.993   2.674   0.448  0.00  0.00    +0.342 C 
ATOM     33  O   UNL     1      -3.106   3.507   0.423  0.00  0.00    -0.245 OA
BRANCH  32  34
ATOM     34  O   UNL     1      -5.282   3.064   0.516  0.00  0.00    -0.461 OA
BRANCH  34  35
ATOM     35  C   UNL     1      -5.538   4.493   0.555  0.00  0.00    +0.229 C 
ATOM     36  C   UNL     1      -7.046   4.739   0.629  0.00  0.00    +0.048 C 
ENDBRANCH  34  35
ENDBRANCH  32  34
ENDBRANCH  27  32
ENDBRANCH  21  28
ENDBRANCH  20  22
ENDBRANCH   1  20
TORSDOF 12
