REMARK  Name = ZINC04387376
REMARK  8 active torsions:
REMARK  status: ('A' for Active; 'I' for Inactive)
REMARK    1  A    between atoms: C_1  and  C_2
REMARK    2  A    between atoms: C_2  and  O_3
REMARK    3  A    between atoms: O_3  and  C_4
REMARK    4  A    between atoms: C_4  and  C_6
REMARK    5  A    between atoms: C_8  and  C_20
REMARK    6  A    between atoms: C_14  and  C_15
REMARK    7  A    between atoms: C_14  and  O_19
REMARK    8  A    between atoms: C_23  and  N_26
REMARK                            x       y       z     vdW  Elec       q    Type
REMARK                         _______ _______ _______ _____ _____    ______ ____
ROOT
ATOM      1  C   UNL     1       2.343   1.303  -0.708  0.00  0.00    +0.181 C 
ATOM      2  C   UNL     1       2.489  -0.041   0.015  0.00  0.00    +0.123 C 
ATOM      3  N   UNL     1       1.194  -0.722   0.029  0.00  0.00    -0.292 N 
ATOM      4  C   UNL     1       0.043  -0.033   0.023  0.00  0.00    +0.302 C 
ATOM      5  O   UNL     1      -1.006  -0.648   0.046  0.00  0.00    -0.253 OA
ATOM      6  N   UNL     1       0.003   1.308  -0.008  0.00  0.00    -0.264 N 
ATOM      7  C   UNL     1       1.230   2.105  -0.025  0.00  0.00    +0.246 C 
ATOM      8  H   UNL     1       1.167  -1.692   0.043  0.00  0.00    +0.151 HD
ATOM      9  H   UNL     1      -0.856   1.757  -0.024  0.00  0.00    +0.153 HD
ENDROOT
BRANCH   2  10
ATOM     10  C   UNL     1       3.499  -0.895  -0.707  0.00  0.00    -0.026 A 
ATOM     11  C   UNL     1       3.107  -1.668  -1.784  0.00  0.00    +0.008 A 
ATOM     12  C   UNL     1       4.035  -2.448  -2.448  0.00  0.00    +0.033 A 
ATOM     13  C   UNL     1       5.353  -2.462  -2.030  0.00  0.00    +0.126 A 
ATOM     14  C   UNL     1       5.743  -1.693  -0.951  0.00  0.00    +0.033 A 
ATOM     15  C   UNL     1       4.817  -0.910  -0.288  0.00  0.00    +0.008 A 
BRANCH  13  16
ATOM     16  N   UNL     1       6.345  -3.301  -2.739  0.00  0.00    +0.056 N 
ATOM     17  O   UNL     1       7.506  -3.314  -2.371  0.00  0.00    -0.126 OA
ATOM     18  O   UNL     1       6.000  -3.979  -3.691  0.00  0.00    -0.126 OA
ENDBRANCH  13  16
ENDBRANCH   2  10
BRANCH   7  19
ATOM     19  C   UNL     1       0.987   3.402  -0.798  0.00  0.00    +0.436 C 
ATOM     20  F   UNL     1       0.060   4.191  -0.108  0.00  0.00    -0.166 F 
ATOM     21  F   UNL     1       2.191   4.103  -0.926  0.00  0.00    -0.166 F 
ATOM     22  F   UNL     1       0.486   3.100  -2.069  0.00  0.00    -0.166 F 
ENDBRANCH   7  19
BRANCH   1  23
ATOM     23  C   UNL     1       1.981   1.064  -2.151  0.00  0.00    +0.317 C 
ATOM     24  O   UNL     1       0.924   0.551  -2.432  0.00  0.00    -0.250 OA
BRANCH  23  25
ATOM     25  O   UNL     1       2.834   1.421  -3.124  0.00  0.00    -0.465 OA
BRANCH  25  27
ATOM     26  C   UNL     1       3.513   1.633  -5.453  0.00  0.00    +0.048 C 
ATOM     27  C   UNL     1       2.420   1.162  -4.492  0.00  0.00    +0.229 C 
ENDBRANCH  25  27
ENDBRANCH  23  25
ENDBRANCH   1  23
BRANCH   7  28
ATOM     28  O   UNL     1       1.618   2.413   1.316  0.00  0.00    -0.364 OA
ATOM     29  H   UNL     1       0.957   2.917   1.810  0.00  0.00    +0.212 HD
ENDBRANCH   7  28
TORSDOF 7
