REMARK  Name = ZINC59170908
REMARK  3 active torsions:
REMARK  status: ('A' for Active; 'I' for Inactive)
REMARK    1  A    between atoms: C_12  and  C_23
REMARK    2  A    between atoms: N_14  and  C_15
REMARK    3  A    between atoms: C_23  and  N_25
REMARK                            x       y       z     vdW  Elec       q    Type
REMARK                         _______ _______ _______ _____ _____    ______ ____
ROOT
ATOM      1  C   UNL     1       0.698   2.350   0.159  0.00  0.00    +0.001 A 
ATOM      2  C   UNL     1       2.004   2.812   0.287  0.00  0.00    +0.001 A 
ATOM      3  C   UNL     1       3.060   1.948   0.245  0.00  0.00    +0.009 A 
ATOM      4  C   UNL     1       2.827   0.581   0.072  0.00  0.00    -0.007 A 
ATOM      5  C   UNL     1       1.500   0.106  -0.056  0.00  0.00    -0.017 A 
ATOM      6  C   UNL     1       0.437   1.023  -0.011  0.00  0.00    +0.008 A 
ATOM      7  C   UNL     1       1.268  -1.272  -0.226  0.00  0.00    +0.012 A 
ATOM      8  C   UNL     1       2.297  -2.157  -0.260  0.00  0.00    +0.047 A 
ATOM      9  C   UNL     1       3.626  -1.744  -0.137  0.00  0.00    +0.138 A 
ATOM     10  C   UNL     1       3.927  -0.384   0.017  0.00  0.00    +0.026 A 
ATOM     11  C   UNL     1       5.269   0.041   0.119  0.00  0.00    +0.027 A 
ATOM     12  C   UNL     1       6.272  -0.883  -0.152  0.00  0.00    +0.064 A 
ATOM     13  C   UNL     1       5.847  -2.236  -0.561  0.00  0.00    +0.209 A 
ATOM     14  N   UNL     1       6.623  -3.002  -1.298  0.00  0.00    -0.325 N 
ATOM     15  O   UNL     1       4.625  -2.661  -0.151  0.00  0.00    -0.439 OA
ATOM     16  H   UNL     1       7.451  -2.649  -1.659  0.00  0.00    +0.169 HD
ENDROOT
BRANCH  14  17
ATOM     17  C   UNL     1       6.263  -4.297  -1.553  0.00  0.00    +0.042 A 
ATOM     18  C   UNL     1       5.776  -5.106  -0.523  0.00  0.00    +0.027 A 
ATOM     19  C   UNL     1       5.414  -6.410  -0.788  0.00  0.00    +0.022 A 
ATOM     20  C   UNL     1       5.533  -6.918  -2.071  0.00  0.00    +0.041 A 
ATOM     21  C   UNL     1       6.016  -6.122  -3.096  0.00  0.00    +0.022 A 
ATOM     22  C   UNL     1       6.376  -4.814  -2.846  0.00  0.00    +0.027 A 
ATOM     23 CL   UNL     1       5.076  -8.561  -2.395  0.00  0.00    -0.084 Cl
ENDBRANCH  14  17
BRANCH  12  24
ATOM     24  C   UNL     1       7.694  -0.528  -0.036  0.00  0.00    +0.082 C 
ATOM     25  S   UNL     1       8.895  -1.733  -0.226  0.00  0.00    -0.035 S 
BRANCH  24  26
ATOM     26  N   UNL     1       8.052   0.746   0.218  0.00  0.00    -0.352 N 
ATOM     27  H   UNL     1       7.371   1.429   0.326  0.00  0.00    +0.143 HD
ATOM     28  H   UNL     1       8.990   0.980   0.295  0.00  0.00    +0.143 HD
ENDBRANCH  24  26
ENDBRANCH  12  24
TORSDOF 3
