REMARK  Name = ZINC03271181
REMARK  14 active torsions:
REMARK  status: ('A' for Active; 'I' for Inactive)
REMARK    1  A    between atoms: C_1  and  C_2
REMARK    2  A    between atoms: C_2  and  N_3
REMARK    3  A    between atoms: N_3  and  C_4
REMARK    4  A    between atoms: N_3  and  S_6
REMARK    5  A    between atoms: C_4  and  C_5
REMARK    6  A    between atoms: S_6  and  C_9
REMARK    7  A    between atoms: C_12  and  C_15
REMARK    8  A    between atoms: C_16  and  C_17
REMARK    9  A    between atoms: C_17  and  O_19
REMARK   10  A    between atoms: O_19  and  C_20
REMARK   11  A    between atoms: C_20  and  C_21
REMARK   12  A    between atoms: N_23  and  C_24
REMARK   13  A    between atoms: C_27  and  S_30
REMARK   14  A    between atoms: S_30  and  N_33
REMARK                            x       y       z     vdW  Elec       q    Type
REMARK                         _______ _______ _______ _____ _____    ______ ____
ROOT
ATOM      1  C   UNL     1      -6.791   5.436   3.712  0.00  0.00    +0.332 C 
ATOM      2  O   UNL     1      -6.194   6.201   4.444  0.00  0.00    -0.246 OA
ENDROOT
BRANCH   1   4
ATOM      3  C   UNL     1      -4.841   3.987   3.542  0.00  0.00    +0.015 C 
ATOM      4  C   UNL     1      -6.121   4.240   3.201  0.00  0.00    +0.092 C 
BRANCH   3   8
ATOM      5  C   UNL     1      -2.898   0.519   2.061  0.00  0.00    +0.106 A 
ATOM      6  C   UNL     1      -2.215   1.388   2.894  0.00  0.00    +0.029 A 
ATOM      7  C   UNL     1      -2.839   2.517   3.379  0.00  0.00    +0.010 A 
ATOM      8  C   UNL     1      -4.167   2.784   3.028  0.00  0.00    -0.025 A 
ATOM      9  C   UNL     1      -4.850   1.901   2.186  0.00  0.00    +0.010 A 
ATOM     10  C   UNL     1      -4.210   0.778   1.704  0.00  0.00    +0.029 A 
BRANCH   5  11
ATOM     11  S   UNL     1      -2.091  -0.922   1.446  0.00  0.00    +0.061 S 
ATOM     12  O   UNL     1      -3.114  -1.853   1.123  0.00  0.00    -0.153 OA
ATOM     13  O   UNL     1      -1.047  -1.224   2.362  0.00  0.00    -0.153 OA
BRANCH  11  14
ATOM     14  N   UNL     1      -1.363  -0.504   0.019  0.00  0.00    -0.177 NA
BRANCH  14  16
ATOM     15  C   UNL     1      -0.007   1.531   0.035  0.00  0.00    +0.022 C 
ATOM     16  C   UNL     1       0.012   0.001   0.018  0.00  0.00    +0.106 C 
ENDBRANCH  14  16
BRANCH  14  17
ATOM     17  C   UNL     1      -2.094  -0.640  -1.243  0.00  0.00    +0.106 C 
ATOM     18  C   UNL     1      -1.756  -1.986  -1.887  0.00  0.00    +0.022 C 
ENDBRANCH  14  17
ENDBRANCH  11  14
ENDBRANCH   5  11
ENDBRANCH   3   8
ENDBRANCH   1   4
BRANCH   1  19
ATOM     19  O   UNL     1      -8.071   5.689   3.371  0.00  0.00    -0.452 OA
BRANCH  19  20
ATOM     20  C   UNL     1      -8.663   6.875   3.906  0.00  0.00    +0.328 C 
BRANCH  20  21
ATOM     21  C   UNL     1     -10.085   6.990   3.420  0.00  0.00    +0.255 C 
ATOM     22  O   UNL     1     -10.546   6.141   2.687  0.00  0.00    -0.272 OA
ATOM     23  N   UNL     1     -10.843   8.038   3.800  0.00  0.00    -0.283 N 
ATOM     24  H   UNL     1     -10.498   8.681   4.438  0.00  0.00    +0.155 HD
BRANCH  23  25
ATOM     25  C   UNL     1     -12.130   8.197   3.272  0.00  0.00    +0.034 A 
ATOM     26  C   UNL     1     -12.625   9.470   3.020  0.00  0.00    +0.025 A 
ATOM     27  C   UNL     1     -13.895   9.624   2.500  0.00  0.00    +0.030 A 
ATOM     28  C   UNL     1     -14.673   8.512   2.230  0.00  0.00    +0.105 A 
ATOM     29  C   UNL     1     -14.182   7.244   2.480  0.00  0.00    +0.030 A 
ATOM     30  C   UNL     1     -12.911   7.083   2.995  0.00  0.00    +0.025 A 
BRANCH  28  31
ATOM     31  S   UNL     1     -16.293   8.713   1.566  0.00  0.00    +0.056 S 
ATOM     32  O   UNL     1     -17.022   7.544   1.913  0.00  0.00    -0.153 OA
ATOM     33  O   UNL     1     -16.724  10.017   1.933  0.00  0.00    -0.153 OA
BRANCH  31  34
ATOM     34  N   UNL     1     -16.150   8.710  -0.084  0.00  0.00    -0.204 NA
ATOM     35  H   UNL     1     -15.277   8.608  -0.495  0.00  0.00    +0.144 HD
ATOM     36  H   UNL     1     -16.939   8.810  -0.639  0.00  0.00    +0.144 HD
ENDBRANCH  31  34
ENDBRANCH  28  31
ENDBRANCH  23  25
ENDBRANCH  20  21
ENDBRANCH  19  20
ENDBRANCH   1  19
TORSDOF 12
