REMARK  Name = ZINC02151356
REMARK  9 active torsions:
REMARK  status: ('A' for Active; 'I' for Inactive)
REMARK    1  A    between atoms: C_1  and  C_2
REMARK    2  A    between atoms: C_2  and  C_38
REMARK    3  A    between atoms: C_6  and  C_27
REMARK    4  A    between atoms: C_8  and  C_19
REMARK    5  A    between atoms: C_9  and  N_18
REMARK    6  A    between atoms: N_10  and  C_11
REMARK    7  A    between atoms: C_19  and  C_21
REMARK    8  A    between atoms: C_30  and  O_33
REMARK    9  A    between atoms: O_33  and  C_34
REMARK                            x       y       z     vdW  Elec       q    Type
REMARK                         _______ _______ _______ _____ _____    ______ ____
ROOT
ATOM      1  C   UNL     1       3.504   4.000   1.567  0.00  0.00    +0.011 C 
ATOM      2  C   UNL     1       3.875   4.005   0.082  0.00  0.00    -0.023 C 
ATOM      3  C   UNL     1       3.015   2.984  -0.666  0.00  0.00    +0.058 C 
ATOM      4  C   UNL     1       3.280   1.602  -0.125  0.00  0.00    +0.025 C 
ATOM      5  C   UNL     1       4.488   1.272   0.380  0.00  0.00    +0.025 C 
ATOM      6  C   UNL     1       4.756  -0.111   0.918  0.00  0.00    +0.091 C 
ATOM      7  C   UNL     1       3.726  -1.090   0.437  0.00  0.00    +0.048 C 
ATOM      8  C   UNL     1       2.524  -0.658  -0.071  0.00  0.00    +0.100 C 
ATOM      9  N   UNL     1       2.259   0.687  -0.150  0.00  0.00    -0.261 N 
ATOM     10  C   UNL     1       5.538   2.208   0.416  0.00  0.00    +0.162 C 
ATOM     11  O   UNL     1       6.619   1.875   0.859  0.00  0.00    -0.292 OA
ATOM     12  C   UNL     1       5.347   3.614  -0.083  0.00  0.00    +0.086 C 
ATOM     13  C   UNL     1       3.645   5.402  -0.500  0.00  0.00    +0.011 C 
ENDROOT
BRANCH   9  14
ATOM     14  C   UNL     1       0.934   1.128  -0.262  0.00  0.00    +0.040 A 
ATOM     15  C   UNL     1       0.330   1.203  -1.510  0.00  0.00    +0.025 A 
ATOM     16  C   UNL     1      -0.975   1.643  -1.618  0.00  0.00    +0.022 A 
ATOM     17  C   UNL     1      -1.683   1.998  -0.484  0.00  0.00    +0.041 A 
ATOM     18  C   UNL     1      -1.083   1.923   0.761  0.00  0.00    +0.022 A 
ATOM     19  C   UNL     1       0.223   1.490   0.875  0.00  0.00    +0.025 A 
ATOM     20 CL   UNL     1      -3.325   2.544  -0.623  0.00  0.00    -0.084 Cl
ENDBRANCH   9  14
BRANCH   6  21
ATOM     21  C   UNL     1       4.730  -0.068   2.425  0.00  0.00    -0.035 A 
ATOM     22  C   UNL     1       3.606   0.395   3.083  0.00  0.00    +0.008 A 
ATOM     23  C   UNL     1       3.577   0.430   4.463  0.00  0.00    +0.046 A 
ATOM     24  C   UNL     1       4.683   0.012   5.189  0.00  0.00    +0.120 A 
ATOM     25  C   UNL     1       5.812  -0.447   4.527  0.00  0.00    +0.046 A 
ATOM     26  C   UNL     1       5.833  -0.486   3.146  0.00  0.00    +0.008 A 
BRANCH  24  27
ATOM     27  O   UNL     1       4.660   0.052   6.548  0.00  0.00    -0.495 OA
ATOM     28  C   UNL     1       3.464   0.535   7.162  0.00  0.00    +0.277 C 
ENDBRANCH  24  27
ENDBRANCH   6  21
BRANCH   8  29
ATOM     29  N   UNL     1       1.593  -1.568  -0.497  0.00  0.00    -0.346 N 
ATOM     30  H   UNL     1       0.790  -1.264  -0.950  0.00  0.00    +0.143 HD
ATOM     31  H   UNL     1       1.736  -2.515  -0.348  0.00  0.00    +0.143 HD
ENDBRANCH   8  29
BRANCH   7  32
ATOM     32  C   UNL     1       3.994  -2.465   0.505  0.00  0.00    +0.193 C 
ATOM     33  O   UNL     1       3.309  -3.185   1.212  0.00  0.00    -0.287 OA
BRANCH  32  34
ATOM     34  C   UNL     1       5.108  -3.042  -0.281  0.00  0.00    +0.022 A 
ATOM     35  C   UNL     1       5.832  -2.240  -1.163  0.00  0.00    +0.012 A 
ATOM     36  C   UNL     1       6.873  -2.783  -1.889  0.00  0.00    +0.001 A 
ATOM     37  C   UNL     1       7.191  -4.122  -1.751  0.00  0.00    +0.000 A 
ATOM     38  C   UNL     1       6.473  -4.924  -0.882  0.00  0.00    +0.001 A 
ATOM     39  C   UNL     1       5.434  -4.392  -0.147  0.00  0.00    +0.012 A 
ENDBRANCH  32  34
ENDBRANCH   7  32
TORSDOF 6
