REMARK  Name = ZINC38684694
REMARK  12 active torsions:
REMARK  status: ('A' for Active; 'I' for Inactive)
REMARK    1  A    between atoms: C_1  and  C_2
REMARK    2  A    between atoms: C_2  and  C_3
REMARK    3  A    between atoms: C_2  and  C_4
REMARK    4  A    between atoms: C_4  and  C_5
REMARK    5  A    between atoms: C_5  and  O_6
REMARK    6  A    between atoms: O_6  and  C_7
REMARK    7  A    between atoms: C_11  and  C_13
REMARK    8  A    between atoms: C_18  and  O_27
REMARK    9  A    between atoms: C_22  and  N_26
REMARK   10  A    between atoms: C_23  and  C_24
REMARK   11  A    between atoms: O_27  and  C_28
REMARK   12  A    between atoms: C_28  and  C_30
REMARK                            x       y       z     vdW  Elec       q    Type
REMARK                         _______ _______ _______ _____ _____    ______ ____
ROOT
ATOM      1  C   UNL     1      -5.755  -6.405  -0.343  0.00  0.00    +0.098 C 
ATOM      2  C   UNL     1      -5.971  -7.146  -1.636  0.00  0.00    +0.008 A 
ATOM      3  C   UNL     1      -6.301  -6.438  -2.778  0.00  0.00    +0.012 A 
ATOM      4  C   UNL     1      -6.503  -7.100  -3.973  0.00  0.00    +0.047 A 
ATOM      5  C   UNL     1      -6.375  -8.481  -4.031  0.00  0.00    +0.135 A 
ATOM      6  C   UNL     1      -6.043  -9.193  -2.889  0.00  0.00    +0.093 A 
ATOM      7  C   UNL     1      -5.841  -8.525  -1.688  0.00  0.00    +0.138 A 
ATOM      8  O   UNL     1      -5.518  -9.236  -0.580  0.00  0.00    -0.441 OA
ATOM      9  C   UNL     1      -5.695  -8.695   0.638  0.00  0.00    +0.199 C 
ATOM     10  C   UNL     1      -5.813  -7.361   0.816  0.00  0.00    +0.098 C 
ENDROOT
BRANCH   1  15
ATOM     11  C   UNL     1      -3.072  -3.745  -0.279  0.00  0.00    +0.121 A 
ATOM     12  C   UNL     1      -1.924  -4.511  -0.421  0.00  0.00    +0.045 A 
ATOM     13  C   UNL     1      -2.020  -5.884  -0.537  0.00  0.00    +0.004 A 
ATOM     14  C   UNL     1      -3.260  -6.496  -0.511  0.00  0.00    +0.005 A 
ATOM     15  C   UNL     1      -4.406  -5.735  -0.370  0.00  0.00    -0.031 A 
ATOM     16  C   UNL     1      -4.314  -4.362  -0.248  0.00  0.00    +0.050 A 
BRANCH  11  17
ATOM     17  O   UNL     1      -2.980  -2.394  -0.165  0.00  0.00    -0.492 OA
BRANCH  17  18
ATOM     18  C   UNL     1      -1.669  -1.828  -0.205  0.00  0.00    +0.229 C 
BRANCH  18  19
ATOM     19  C   UNL     1      -1.766  -0.307  -0.063  0.00  0.00    +0.044 C 
BRANCH  19  21
ATOM     20  C   UNL     1      -0.465   1.825  -0.089  0.00  0.00    +0.007 C 
ATOM     21  C   UNL     1      -0.362   0.299  -0.106  0.00  0.00    -0.014 C 
ATOM     22  C   UNL     1       0.435  -0.172   1.113  0.00  0.00    +0.007 C 
ENDBRANCH  19  21
ENDBRANCH  18  19
ENDBRANCH  17  18
ENDBRANCH  11  17
ENDBRANCH   1  15
BRANCH   9  23
ATOM     23  N   UNL     1      -5.756  -9.523   1.731  0.00  0.00    -0.328 N 
ATOM     24  H   UNL     1      -5.672 -10.482   1.618  0.00  0.00    +0.145 HD
ATOM     25  H   UNL     1      -5.883  -9.148   2.617  0.00  0.00    +0.145 HD
ENDBRANCH   9  23
BRANCH  10  26
ATOM     26  C   UNL     1      -5.999  -6.849   2.140  0.00  0.00    +0.101 C 
ATOM     27  N   UNL     1      -6.146  -6.442   3.190  0.00  0.00    -0.191 NA
ENDBRANCH  10  26
BRANCH   5  28
ATOM     28  O   UNL     1      -6.574  -9.135  -5.206  0.00  0.00    -0.422 OA
BRANCH  28  29
ATOM     29  C   UNL     1      -5.692  -8.925  -6.204  0.00  0.00    +0.345 C 
ATOM     30  O   UNL     1      -4.701  -8.249  -6.007  0.00  0.00    -0.245 OA
BRANCH  29  31
ATOM     31  C   UNL     1      -5.929  -9.517  -7.532  0.00  0.00    +0.067 A 
ATOM     32  C   UNL     1      -7.115 -10.184  -7.810  0.00  0.00    +0.015 A 
ATOM     33  C   UNL     1      -7.336 -10.740  -9.063  0.00  0.00    +0.001 A 
ATOM     34  C   UNL     1      -6.412 -10.656 -10.059  0.00  0.00    +0.008 A 
ATOM     35  C   UNL     1      -5.189  -9.995  -9.848  0.00  0.00    -0.017 A 
ATOM     36  C   UNL     1      -4.923  -9.408  -8.587  0.00  0.00    -0.004 A 
ATOM     37  C   UNL     1      -3.709  -8.745  -8.375  0.00  0.00    +0.009 A 
ATOM     38  C   UNL     1      -2.798  -8.668  -9.386  0.00  0.00    +0.001 A 
ATOM     39  C   UNL     1      -3.059  -9.239 -10.629  0.00  0.00    +0.001 A 
ATOM     40  C   UNL     1      -4.225  -9.900 -10.866  0.00  0.00    +0.008 A 
ENDBRANCH  29  31
ENDBRANCH  28  29
ENDBRANCH   5  28
TORSDOF 10
