REMARK  Name = ZINC00931426
REMARK  11 active torsions:
REMARK  status: ('A' for Active; 'I' for Inactive)
REMARK    1  A    between atoms: C_1  and  C_2
REMARK    2  A    between atoms: C_6  and  C_8
REMARK    3  A    between atoms: C_8  and  C_9
REMARK    4  A    between atoms: C_9  and  N_10
REMARK    5  A    between atoms: N_10  and  C_11
REMARK    6  A    between atoms: C_11  and  C_13
REMARK    7  A    between atoms: C_11  and  C_20
REMARK    8  A    between atoms: N_15  and  C_19
REMARK    9  A    between atoms: C_17  and  C_18
REMARK   10  A    between atoms: N_22  and  C_23
REMARK   11  A    between atoms: C_29  and  C_31
REMARK                            x       y       z     vdW  Elec       q    Type
REMARK                         _______ _______ _______ _____ _____    ______ ____
ROOT
ATOM      1  N   UNL     1      -0.342   1.211   2.399  0.00  0.00    -0.282 N 
ATOM      2  C   UNL     1      -0.732   1.857   1.283  0.00  0.00    +0.261 C 
ATOM      3  O   UNL     1      -1.747   2.521   1.289  0.00  0.00    -0.271 OA
ENDROOT
BRANCH   2   4
ATOM      4  C   UNL     1       0.093   1.756   0.026  0.00  0.00    +0.296 C 
ATOM      5  C   UNL     1       1.363   2.605   0.170  0.00  0.00    +0.283 C 
ATOM      6  O   UNL     1       2.116   2.496  -1.043  0.00  0.00    -0.484 OA
ATOM      7  C   UNL     1       1.423   2.632  -2.207  0.00  0.00    +0.162 A 
ATOM      8  C   UNL     1       2.111   2.896  -3.382  0.00  0.00    +0.049 A 
ATOM      9  C   UNL     1       1.422   3.033  -4.572  0.00  0.00    +0.004 A 
ATOM     10  C   UNL     1       0.045   2.908  -4.595  0.00  0.00    +0.004 A 
ATOM     11  C   UNL     1      -0.646   2.645  -3.427  0.00  0.00    +0.049 A 
ATOM     12  C   UNL     1       0.039   2.507  -2.229  0.00  0.00    +0.163 A 
ATOM     13  O   UNL     1      -0.656   2.255  -1.087  0.00  0.00    -0.473 OA
ENDBRANCH   2   4
BRANCH   1  14
ATOM     14  C   UNL     1       0.911   0.453   2.407  0.00  0.00    +0.113 C 
BRANCH  14  15
ATOM     15  C   UNL     1       0.727  -0.847   1.620  0.00  0.00    +0.054 C 
BRANCH  15  21
ATOM     16  C   UNL     1       3.258  -4.396   4.077  0.00  0.00    +0.044 C 
ATOM     17  C   UNL     1       3.167  -3.403   2.947  0.00  0.00    -0.050 A 
ATOM     18  C   UNL     1       4.211  -3.280   2.049  0.00  0.00    +0.003 A 
ATOM     19  C   UNL     1       4.128  -2.369   1.013  0.00  0.00    +0.001 A 
ATOM     20  C   UNL     1       2.998  -1.585   0.871  0.00  0.00    +0.004 A 
ATOM     21  C   UNL     1       1.956  -1.705   1.772  0.00  0.00    -0.046 A 
ATOM     22  C   UNL     1       2.040  -2.616   2.808  0.00  0.00    +0.007 A 
ENDBRANCH  15  21
ENDBRANCH  14  15
ENDBRANCH   1  14
BRANCH   1  23
ATOM     23  C   UNL     1      -1.172   1.266   3.605  0.00  0.00    +0.195 C 
BRANCH  23  24
ATOM     24  C   UNL     1      -0.444   2.027   4.682  0.00  0.00    +0.022 A 
ATOM     25  C   UNL     1       0.897   2.188   4.776  0.00  0.00    +0.114 A 
ATOM     26  N   UNL     1       1.146   2.932   5.874  0.00  0.00    -0.274 N 
ATOM     27  N   UNL     1      -0.081   3.231   6.480  0.00  0.00    -0.176 NA
ATOM     28  C   UNL     1      -1.033   2.689   5.764  0.00  0.00    +0.065 A 
ATOM     29  C   UNL     1      -2.510   2.763   6.057  0.00  0.00    +0.068 C 
ATOM     30  C   UNL     1       2.467   3.348   6.351  0.00  0.00    +0.172 C 
ENDBRANCH  23  24
BRANCH  23  31
ATOM     31  C   UNL     1      -1.456  -0.135   4.084  0.00  0.00    +0.238 C 
ATOM     32  O   UNL     1      -1.008  -1.085   3.478  0.00  0.00    -0.273 OA
ATOM     33  N   UNL     1      -2.206  -0.331   5.186  0.00  0.00    -0.311 N 
ATOM     34  H   UNL     1      -2.564   0.429   5.671  0.00  0.00    +0.149 HD
BRANCH  33  35
ATOM     35  C   UNL     1      -2.482  -1.692   5.652  0.00  0.00    +0.073 C 
ATOM     36  C   UNL     1      -3.694  -2.251   4.905  0.00  0.00    +0.022 C 
ATOM     37  C   UNL     1      -3.982  -3.673   5.392  0.00  0.00    +0.002 C 
ATOM     38  C   UNL     1      -4.274  -3.649   6.894  0.00  0.00    +0.000 C 
ATOM     39  C   UNL     1      -3.061  -3.090   7.640  0.00  0.00    +0.002 C 
ATOM     40  C   UNL     1      -2.774  -1.668   7.154  0.00  0.00    +0.022 C 
ENDBRANCH  33  35
ENDBRANCH  23  31
ENDBRANCH   1  23
TORSDOF 8
