REMARK  Name = ZINC16635768
REMARK  12 active torsions:
REMARK  status: ('A' for Active; 'I' for Inactive)
REMARK    1  A    between atoms: C_1  and  C_2
REMARK    2  A    between atoms: C_2  and  O_3
REMARK    3  A    between atoms: O_3  and  C_4
REMARK    4  A    between atoms: C_4  and  C_6
REMARK    5  A    between atoms: C_7  and  C_14
REMARK    6  A    between atoms: C_8  and  C_12
REMARK    7  A    between atoms: C_9  and  N_11
REMARK    8  A    between atoms: C_14  and  N_46
REMARK    9  A    between atoms: C_15  and  N_46
REMARK   10  A    between atoms: C_16  and  C_17
REMARK   11  A    between atoms: C_16  and  N_46
REMARK   12  A    between atoms: N_19  and  C_20
REMARK                            x       y       z     vdW  Elec       q    Type
REMARK                         _______ _______ _______ _____ _____    ______ ____
ROOT
ATOM      1  C   UNL     1      -2.586   3.337  -2.791  0.00  0.00    -0.040 C 
ENDROOT
BRANCH   1   3
ATOM      2  C   UNL     1      -2.427   4.469  -5.034  0.00  0.00    +0.100 A 
ATOM      3  C   UNL     1      -2.926   3.444  -4.255  0.00  0.00    -0.024 A 
ATOM      4  C   UNL     1      -3.757   2.523  -4.870  0.00  0.00    +0.082 A 
ATOM      5  C   UNL     1      -4.024   2.691  -6.233  0.00  0.00    +0.081 A 
ATOM      6  S   UNL     1      -3.126   4.117  -6.636  0.00  0.00    -0.066 S 
BRANCH   5   7
ATOM      7  N   UNL     1      -4.810   1.914  -7.054  0.00  0.00    -0.352 N 
ATOM      8  H   UNL     1      -5.263   1.134  -6.696  0.00  0.00    +0.143 HD
ATOM      9  H   UNL     1      -4.912   2.146  -7.990  0.00  0.00    +0.143 HD
ENDBRANCH   5   7
BRANCH   2  10
ATOM     10  C   UNL     1      -1.571   5.534  -4.655  0.00  0.00    +0.346 C 
ATOM     11  O   UNL     1      -1.182   5.622  -3.506  0.00  0.00    -0.244 OA
BRANCH  10  12
ATOM     12  O   UNL     1      -1.187   6.449  -5.570  0.00  0.00    -0.461 OA
BRANCH  12  14
ATOM     13  C   UNL     1       0.002   8.427  -6.287  0.00  0.00    +0.048 C 
ATOM     14  C   UNL     1      -0.323   7.494  -5.119  0.00  0.00    +0.229 C 
ENDBRANCH  12  14
ENDBRANCH  10  12
ENDBRANCH   2  10
BRANCH   4  15
ATOM     15  C   UNL     1      -4.323   1.432  -4.135  0.00  0.00    +0.102 C 
ATOM     16  N   UNL     1      -4.773   0.567  -3.551  0.00  0.00    -0.191 NA
ENDBRANCH   4  15
ENDBRANCH   1   3
BRANCH   1  18
ATOM     17  C   UNL     1      -1.620   1.130  -3.033  0.00  0.00    -0.095 C 
ATOM     18  N   UNL     1      -1.355   2.532  -2.645  0.00  0.00    +0.386 N 
ATOM     19  H   UNL     1      -0.630   2.917  -3.261  0.00  0.00    -0.081 HD
BRANCH  18  20
ATOM     20  C   UNL     1      -0.877   2.588  -1.247  0.00  0.00    +0.019 C 
BRANCH  20  21
ATOM     21  C   UNL     1       0.485   1.948  -1.174  0.00  0.00    +0.201 C 
ATOM     22  O   UNL     1       0.992   1.483  -2.173  0.00  0.00    -0.278 OA
ATOM     23  N   UNL     1       1.143   1.898   0.001  0.00  0.00    -0.285 N 
ATOM     24  H   UNL     1       0.772   2.334   0.784  0.00  0.00    +0.155 HD
BRANCH  23  25
ATOM     25  C   UNL     1       2.364   1.218   0.092  0.00  0.00    +0.070 A 
ATOM     26  C   UNL     1       2.385  -0.136   0.402  0.00  0.00    +0.064 A 
ATOM     27  C   UNL     1       3.592  -0.805   0.486  0.00  0.00    +0.022 A 
ATOM     28  C   UNL     1       4.777  -0.126   0.271  0.00  0.00    +0.003 A 
ATOM     29  C   UNL     1       4.760   1.223  -0.033  0.00  0.00    +0.022 A 
ATOM     30  C   UNL     1       3.557   1.897  -0.123  0.00  0.00    +0.064 A 
ATOM     31 CL   UNL     1       3.537   3.591  -0.504  0.00  0.00    -0.082 Cl
ATOM     32 CL   UNL     1       0.898  -0.988   0.678  0.00  0.00    -0.082 Cl
ENDBRANCH  23  25
ENDBRANCH  20  21
ENDBRANCH  18  20
ENDBRANCH   1  18
TORSDOF 10
