REMARK  Name = ZINC08623790
REMARK  6 active torsions:
REMARK  status: ('A' for Active; 'I' for Inactive)
REMARK    1  A    between atoms: C_1  and  C_2
REMARK    2  A    between atoms: C_7  and  N_8
REMARK    3  A    between atoms: C_9  and  C_11
REMARK    4  A    between atoms: C_11  and  N_12
REMARK    5  A    between atoms: C_13  and  C_15
REMARK    6  A    between atoms: C_15  and  N_16
REMARK                            x       y       z     vdW  Elec       q    Type
REMARK                         _______ _______ _______ _____ _____    ______ ____
ROOT
ATOM      1  C   UNL     1       3.577   1.002  -0.029  0.00  0.00    +0.213 C 
ENDROOT
BRANCH   1   2
ATOM      2  N   UNL     1       2.118   0.874  -0.016  0.00  0.00    -0.215 N 
ATOM      3  C   UNL     1       1.461  -0.304  -0.018  0.00  0.00    +0.251 C 
ATOM      4  O   UNL     1       1.947  -1.415  -0.030  0.00  0.00    -0.272 OA
ATOM      5  C   UNL     1      -0.009   0.052  -0.000  0.00  0.00    +0.138 C 
ATOM      6  C   UNL     1      -0.695  -0.475  -1.255  0.00  0.00    +0.040 C 
ATOM      7  C   UNL     1      -2.206  -0.261  -1.109  0.00  0.00    +0.008 C 
ATOM      8  C   UNL     1      -2.725  -1.198  -0.020  0.00  0.00    +0.035 C 
ATOM      9  C   UNL     1      -1.911  -1.052   1.239  0.00  0.00    -0.042 A 
ATOM     10  C   UNL     1      -0.656  -0.483   1.246  0.00  0.00    -0.012 A 
ATOM     11  C   UNL     1       0.049  -0.389   2.439  0.00  0.00    +0.006 A 
ATOM     12  C   UNL     1      -0.498  -0.859   3.615  0.00  0.00    +0.000 A 
ATOM     13  C   UNL     1      -1.758  -1.427   3.609  0.00  0.00    +0.000 A 
ATOM     14  C   UNL     1      -2.460  -1.522   2.425  0.00  0.00    +0.004 A 
ATOM     15  N   UNL     1      -0.017   1.521   0.010  0.00  0.00    -0.281 N 
ATOM     16  C   UNL     1       1.272   1.910   0.001  0.00  0.00    +0.310 C 
ATOM     17  O   UNL     1       1.627   3.073   0.007  0.00  0.00    -0.252 OA
ATOM     18  H   UNL     1      -0.798   2.097   0.018  0.00  0.00    +0.152 HD
ENDBRANCH   1   2
BRANCH   1  20
ATOM     19  N   UNL     1       5.381   1.175  -1.713  0.00  0.00    -0.305 N 
ATOM     20  C   UNL     1       4.064   1.057  -1.455  0.00  0.00    +0.231 C 
ATOM     21  O   UNL     1       3.269   0.994  -2.369  0.00  0.00    -0.274 OA
ATOM     22  H   UNL     1       6.016   1.225  -0.982  0.00  0.00    +0.149 HD
BRANCH  19  23
ATOM     23  C   UNL     1       5.854   1.228  -3.099  0.00  0.00    +0.200 C 
BRANCH  23  25
ATOM     24  N   UNL     1       8.014   1.428  -4.286  0.00  0.00    -0.284 N 
ATOM     25  C   UNL     1       7.355   1.360  -3.113  0.00  0.00    +0.234 C 
ATOM     26  O   UNL     1       7.969   1.406  -2.068  0.00  0.00    -0.274 OA
ATOM     27  H   UNL     1       7.533   1.311  -5.120  0.00  0.00    +0.155 HD
BRANCH  24  34
ATOM     28  C   UNL     1       9.512   0.517  -6.528  0.00  0.00    +0.046 C 
ATOM     29  C   UNL     1      10.162   1.239  -5.376  0.00  0.00    -0.028 A 
ATOM     30  C   UNL     1      11.522   1.480  -5.390  0.00  0.00    +0.020 A 
ATOM     31  C   UNL     1      12.120   2.138  -4.330  0.00  0.00    +0.018 A 
ATOM     32  C   UNL     1      11.357   2.561  -3.256  0.00  0.00    +0.017 A 
ATOM     33  C   UNL     1       9.997   2.327  -3.238  0.00  0.00    +0.024 A 
ATOM     34  C   UNL     1       9.393   1.667  -4.301  0.00  0.00    +0.036 A 
ATOM     35 BR   UNL     1      13.983   2.460  -4.350  0.00  0.00    -0.050 Br
ENDBRANCH  24  34
ENDBRANCH  23  25
ENDBRANCH  19  23
ENDBRANCH   1  20
TORSDOF 5
