REMARK  Name = ZINC44714104
REMARK  10 active torsions:
REMARK  status: ('A' for Active; 'I' for Inactive)
REMARK    1  A    between atoms: C_1  and  C_2
REMARK    2  A    between atoms: C_4  and  C_7
REMARK    3  A    between atoms: C_8  and  C_13
REMARK    4  A    between atoms: C_9  and  C_12
REMARK    5  A    between atoms: C_17  and  C_26
REMARK    6  A    between atoms: N_28  and  C_29
REMARK    7  A    between atoms: C_29  and  C_31
REMARK    8  A    between atoms: C_29  and  C_32
REMARK    9  A    between atoms: C_33  and  C_39
REMARK   10  A    between atoms: C_37  and  C_38
REMARK                            x       y       z     vdW  Elec       q    Type
REMARK                         _______ _______ _______ _____ _____    ______ ____
ROOT
ATOM      1  C   UNL     1       0.326  -5.166  -0.068  0.00  0.00    +0.252 C 
ATOM      2  O   UNL     1       0.909  -5.376   0.979  0.00  0.00    -0.270 OA
ATOM      3  N   UNL     1       0.959  -5.363  -1.242  0.00  0.00    -0.296 N 
ATOM      4  C   UNL     1       0.423  -5.157  -2.608  0.00  0.00    +0.121 C 
ATOM      5  C   UNL     1       1.599  -4.545  -3.401  0.00  0.00    +0.100 C 
ATOM      6  C   UNL     1       2.859  -4.995  -2.643  0.00  0.00    -0.004 C 
ATOM      7  C   UNL     1       2.350  -5.828  -1.458  0.00  0.00    +0.115 C 
ATOM      8  C   UNL     1       3.630  -3.781  -2.133  0.00  0.00    -0.010 C 
ATOM      9  C   UNL     1       4.908  -4.251  -1.432  0.00  0.00    -0.082 C 
ATOM     10  N   UNL     1       5.731  -5.018  -2.375  0.00  0.00    +0.379 N 
ATOM     11  C   UNL     1       5.019  -6.233  -2.789  0.00  0.00    -0.082 C 
ATOM     12  C   UNL     1       3.745  -5.846  -3.547  0.00  0.00    -0.010 C 
ATOM     13  H   UNL     1       5.927  -4.452  -3.187  0.00  0.00    -0.086 HD
ATOM     14  H   UNL     1       6.599  -5.275  -1.929  0.00  0.00    -0.086 HD
ENDROOT
BRANCH   1  16
ATOM     15  C   UNL     1      -1.493  -3.376  -0.031  0.00  0.00    +0.201 A 
ATOM     16  C   UNL     1      -1.069  -4.697  -0.053  0.00  0.00    +0.108 A 
ATOM     17  C   UNL     1      -2.230  -5.510  -0.060  0.00  0.00    +0.093 A 
ATOM     18  N   UNL     1      -3.270  -4.732  -0.043  0.00  0.00    -0.082 NA
ATOM     19  O   UNL     1      -2.835  -3.386  -0.019  0.00  0.00    -0.352 OA
ATOM     20  C   UNL     1      -2.253  -7.017  -0.084  0.00  0.00    +0.070 C 
BRANCH  15  24
ATOM     21  C   UNL     1       0.020   1.467   0.046  0.00  0.00    +0.089 C 
ATOM     22  C   UNL     1       0.024  -0.040   0.018  0.00  0.00    +0.135 A 
ATOM     23  C   UNL     1      -1.063  -0.830   0.012  0.00  0.00    +0.079 A 
ATOM     24  C   UNL     1      -0.626  -2.178  -0.016  0.00  0.00    +0.152 A 
ATOM     25  N   UNL     1       0.687  -2.172  -0.027  0.00  0.00    -0.075 NA
ATOM     26  O   UNL     1       1.114  -0.822  -0.011  0.00  0.00    -0.359 OA
ENDBRANCH  15  24
ENDBRANCH   1  16
BRANCH   5  27
ATOM     27  C   UNL     1       1.499  -3.042  -3.413  0.00  0.00    +0.219 C 
ATOM     28  O   UNL     1       0.901  -2.467  -2.528  0.00  0.00    -0.275 OA
ATOM     29  N   UNL     1       2.074  -2.336  -4.406  0.00  0.00    -0.308 N 
ATOM     30  H   UNL     1       2.552  -2.795  -5.114  0.00  0.00    +0.149 HD
BRANCH  29  31
ATOM     31  C   UNL     1       1.976  -0.874  -4.417  0.00  0.00    +0.104 C 
ATOM     32  C   UNL     1       0.606  -0.458  -4.957  0.00  0.00    +0.033 C 
BRANCH  31  33
ATOM     33  C   UNL     1       3.058  -0.305  -5.299  0.00  0.00    +0.015 A 
ATOM     34  C   UNL     1       3.908   0.695  -4.971  0.00  0.00    +0.038 A 
ATOM     35  N   UNL     1       4.720   0.908  -6.028  0.00  0.00    -0.281 N 
ATOM     36  H   UNL     1       5.430   1.567  -6.079  0.00  0.00    +0.189 HD
ATOM     37  N   UNL     1       4.355   0.010  -7.039  0.00  0.00    -0.179 NA
ATOM     38  C   UNL     1       3.363  -0.721  -6.599  0.00  0.00    +0.065 A 
ATOM     39  C   UNL     1       2.667  -1.818  -7.362  0.00  0.00    +0.068 C 
ATOM     40  C   UNL     1       3.944   1.437  -3.660  0.00  0.00    +0.065 C 
ENDBRANCH  31  33
ENDBRANCH  29  31
ENDBRANCH   5  27
TORSDOF 5
