REMARK  Name = ZINC20762953
REMARK  9 active torsions:
REMARK  status: ('A' for Active; 'I' for Inactive)
REMARK    1  A    between atoms: C_1  and  C_2
REMARK    2  A    between atoms: C_2  and  O_3
REMARK    3  A    between atoms: O_3  and  C_4
REMARK    4  A    between atoms: C_8  and  C_11
REMARK    5  A    between atoms: C_9  and  O_10
REMARK    6  A    between atoms: C_14  and  C_26
REMARK    7  A    between atoms: C_16  and  C_19
REMARK    8  A    between atoms: C_29  and  O_32
REMARK    9  A    between atoms: O_32  and  C_33
REMARK                            x       y       z     vdW  Elec       q    Type
REMARK                         _______ _______ _______ _____ _____    ______ ____
ROOT
ATOM      1  C   UNL     1      -8.165  -0.892   0.978  0.00  0.00    -0.028 C 
ATOM      2  C   UNL     1      -6.642  -0.905   0.809  0.00  0.00    +0.044 C 
ATOM      3  C   UNL     1      -6.014  -0.034   1.861  0.00  0.00    +0.040 C 
ATOM      4  N   UNL     1      -6.638   0.359   2.908  0.00  0.00    -0.299 NA
ATOM      5  C   UNL     1      -8.029   0.035   3.201  0.00  0.00    +0.081 C 
ATOM      6  N   UNL     1      -8.471  -1.115   2.401  0.00  0.00    +0.401 N 
ATOM      7  H   UNL     1      -9.556  -1.244   2.527  0.00  0.00    -0.081 HD
ATOM      8  H   UNL     1      -7.951  -2.018   2.752  0.00  0.00    -0.081 HD
ENDROOT
BRANCH   5   9
ATOM      9  C   UNL     1      -8.898   1.224   2.883  0.00  0.00    -0.040 A 
ATOM     10  C   UNL     1     -10.212   1.036   2.495  0.00  0.00    +0.005 A 
ATOM     11  C   UNL     1     -11.011   2.127   2.209  0.00  0.00    +0.020 A 
ATOM     12  C   UNL     1     -10.493   3.406   2.301  0.00  0.00    +0.041 A 
ATOM     13  C   UNL     1      -9.177   3.594   2.684  0.00  0.00    +0.020 A 
ATOM     14  C   UNL     1      -8.380   2.502   2.975  0.00  0.00    +0.005 A 
ATOM     15 CL   UNL     1     -11.494   4.776   1.934  0.00  0.00    -0.084 Cl
ENDBRANCH   5   9
BRANCH   1  20
ATOM     16  C   UNL     1      -9.531  -2.826  -1.976  0.00  0.00    +0.162 A 
ATOM     17  C   UNL     1      -9.904  -4.016  -1.372  0.00  0.00    +0.049 A 
ATOM     18  C   UNL     1      -9.715  -4.190  -0.013  0.00  0.00    +0.004 A 
ATOM     19  C   UNL     1      -9.147  -3.183   0.744  0.00  0.00    +0.006 A 
ATOM     20  C   UNL     1      -8.777  -1.991   0.148  0.00  0.00    -0.016 A 
ATOM     21  C   UNL     1      -8.965  -1.809  -1.213  0.00  0.00    +0.160 A 
BRANCH  21  22
ATOM     22  O   UNL     1      -8.596  -0.640  -1.801  0.00  0.00    -0.503 OA
ATOM     23  H   UNL     1      -8.149   0.163  -1.197  0.00  0.00    +0.292 HD
ENDBRANCH  21  22
BRANCH  16  24
ATOM     24  O   UNL     1      -9.717  -2.652  -3.312  0.00  0.00    -0.489 OA
BRANCH  24  26
ATOM     25  C   UNL     1     -10.433  -3.360  -5.509  0.00  0.00    +0.048 C 
ATOM     26  C   UNL     1     -10.303  -3.738  -4.032  0.00  0.00    +0.226 C 
ENDBRANCH  24  26
ENDBRANCH  16  24
ENDBRANCH   1  20
BRANCH   3  27
ATOM     27  C   UNL     1      -4.611   0.382   1.683  0.00  0.00    -0.004 A 
ATOM     28  C   UNL     1      -3.993   1.191   2.641  0.00  0.00    +0.013 A 
ATOM     29  C   UNL     1      -2.682   1.577   2.470  0.00  0.00    +0.046 A 
ATOM     30  C   UNL     1      -1.974   1.163   1.348  0.00  0.00    +0.120 A 
ATOM     31  C   UNL     1      -2.586   0.363   0.391  0.00  0.00    +0.046 A 
ATOM     32  C   UNL     1      -3.895  -0.032   0.556  0.00  0.00    +0.013 A 
BRANCH  30  33
ATOM     33  O   UNL     1      -0.682   1.547   1.184  0.00  0.00    -0.495 OA
ATOM     34  C   UNL     1      -0.013   1.086   0.008  0.00  0.00    +0.277 C 
ENDBRANCH  30  33
ENDBRANCH   3  27
TORSDOF 7
