REMARK  Name = ZINC13064038
REMARK  11 active torsions:
REMARK  status: ('A' for Active; 'I' for Inactive)
REMARK    1  A    between atoms: C_1  and  C_2
REMARK    2  A    between atoms: C_2  and  C_3
REMARK    3  A    between atoms: C_3  and  C_5
REMARK    4  A    between atoms: C_3  and  N_70
REMARK    5  A    between atoms: N_9  and  C_10
REMARK    6  A    between atoms: C_15  and  C_16
REMARK    7  A    between atoms: C_15  and  N_70
REMARK    8  A    between atoms: C_25  and  C_26
REMARK    9  A    between atoms: C_25  and  N_70
REMARK   10  A    between atoms: C_30  and  O_38
REMARK   11  A    between atoms: O_38  and  C_39
REMARK                            x       y       z     vdW  Elec       q    Type
REMARK                         _______ _______ _______ _____ _____    ______ ____
ROOT
ATOM      1  N   UNL     1       3.604   1.543  -0.757  0.00  0.00    +0.392 N 
ATOM      2  H   UNL     1       3.428   1.015  -1.620  0.00  0.00    -0.080 HD
ENDROOT
BRANCH   1   3
ATOM      3  C   UNL     1       2.987   0.825   0.379  0.00  0.00    +0.003 C 
BRANCH   3   4
ATOM      4  C   UNL     1       1.691   0.212  -0.086  0.00  0.00    +0.138 A 
ATOM      5  N   UNL     1       0.762   0.796  -0.802  0.00  0.00    -0.115 NA
ATOM      6  N   UNL     1      -0.187  -0.054  -0.992  0.00  0.00    -0.023 NA
ATOM      7  N   UNL     1       0.112  -1.165  -0.415  0.00  0.00    -0.044 NA
ATOM      8  N   UNL     1       1.263  -1.041   0.155  0.00  0.00    -0.228 N 
BRANCH   8   9
ATOM      9  C   UNL     1       1.971  -2.070   0.920  0.00  0.00    +0.111 C 
ATOM     10  C   UNL     1       2.198  -3.319   0.043  0.00  0.00    +0.027 C 
ATOM     11  C   UNL     1       2.012  -4.507   1.019  0.00  0.00    +0.002 C 
ATOM     12  C   UNL     1       0.848  -4.029   1.923  0.00  0.00    +0.002 C 
ATOM     13  C   UNL     1       1.113  -2.522   2.115  0.00  0.00    +0.027 C 
ENDBRANCH   8   9
ENDBRANCH   3   4
BRANCH   3  15
ATOM     14  C   UNL     1       4.036   2.301   2.101  0.00  0.00    +0.002 C 
ATOM     15  C   UNL     1       2.710   1.790   1.534  0.00  0.00    -0.011 C 
ENDBRANCH   3  15
ENDBRANCH   1   3
BRANCH   1  16
ATOM     16  C   UNL     1       3.008   2.889  -0.887  0.00  0.00    -0.041 C 
BRANCH  16  17
ATOM     17  C   UNL     1       3.361   3.445  -2.243  0.00  0.00    -0.060 A 
ATOM     18  C   UNL     1       4.523   4.176  -2.407  0.00  0.00    +0.005 A 
ATOM     19  C   UNL     1       4.854   4.683  -3.650  0.00  0.00    +0.050 A 
ATOM     20  C   UNL     1       4.015   4.470  -4.731  0.00  0.00    +0.166 A 
ATOM     21  C   UNL     1       2.841   3.739  -4.564  0.00  0.00    +0.166 A 
ATOM     22  C   UNL     1       2.519   3.228  -3.317  0.00  0.00    +0.051 A 
ATOM     23  O   UNL     1       2.196   3.670  -5.765  0.00  0.00    -0.453 OA
ATOM     24  C   UNL     1       2.777   4.710  -6.574  0.00  0.00    +0.466 C 
ATOM     25  O   UNL     1       4.104   4.860  -6.037  0.00  0.00    -0.453 OA
ENDBRANCH  16  17
ENDBRANCH   1  16
BRANCH   1  26
ATOM     26  C   UNL     1       5.063   1.654  -0.551  0.00  0.00    -0.036 C 
BRANCH  26  27
ATOM     27  C   UNL     1       5.706   0.349  -0.946  0.00  0.00    +0.001 A 
ATOM     28  C   UNL     1       6.147   0.171  -2.216  0.00  0.00    +0.017 A 
ATOM     29  C   UNL     1       6.772  -1.107  -2.566  0.00  0.00    +0.002 A 
ATOM     30  C   UNL     1       7.250  -1.346  -3.859  0.00  0.00    +0.055 A 
ATOM     31  C   UNL     1       7.828  -2.563  -4.157  0.00  0.00    +0.121 A 
ATOM     32  C   UNL     1       7.937  -3.548  -3.179  0.00  0.00    +0.047 A 
ATOM     33  C   UNL     1       7.469  -3.325  -1.903  0.00  0.00    +0.030 A 
ATOM     34  C   UNL     1       6.883  -2.105  -1.581  0.00  0.00    +0.049 A 
ATOM     35  N   UNL     1       6.409  -1.862  -0.308  0.00  0.00    -0.322 N 
ATOM     36  H   UNL     1       6.487  -2.551   0.371  0.00  0.00    +0.169 HD
ATOM     37  C   UNL     1       5.842  -0.684   0.006  0.00  0.00    +0.251 A 
ATOM     38  O   UNL     1       5.434  -0.504   1.140  0.00  0.00    -0.268 OA
BRANCH  31  39
ATOM     39  O   UNL     1       8.295  -2.801  -5.412  0.00  0.00    -0.495 OA
ATOM     40  C   UNL     1       8.882  -4.081  -5.654  0.00  0.00    +0.277 C 
ENDBRANCH  31  39
ENDBRANCH  26  27
ENDBRANCH   1  26
TORSDOF 9
