REMARK  Name = ZINC04262477
REMARK  16 active torsions:
REMARK  status: ('A' for Active; 'I' for Inactive)
REMARK    1  A    between atoms: C_1  and  C_2
REMARK    2  A    between atoms: C_4  and  O_45
REMARK    3  A    between atoms: C_8  and  C_44
REMARK    4  A    between atoms: C_9  and  O_43
REMARK    5  A    between atoms: C_14  and  O_39
REMARK    6  A    between atoms: C_17  and  O_28
REMARK    7  A    between atoms: C_19  and  O_27
REMARK    8  A    between atoms: C_20  and  C_21
REMARK    9  A    between atoms: C_20  and  C_22
REMARK   10  A    between atoms: C_24  and  O_26
REMARK   11  A    between atoms: O_28  and  C_29
REMARK   12  A    between atoms: C_29  and  C_31
REMARK   13  A    between atoms: O_39  and  C_40
REMARK   14  A    between atoms: C_40  and  C_42
REMARK   15  A    between atoms: O_45  and  C_46
REMARK   16  A    between atoms: C_46  and  C_48
REMARK                            x       y       z     vdW  Elec       q    Type
REMARK                         _______ _______ _______ _____ _____    ______ ____
ROOT
ATOM      1  C   UNL     1       4.493   4.595  -1.544  0.00  0.00    +0.042 C 
ATOM      2  C   UNL     1       3.749   4.035  -0.376  0.00  0.00    -0.041 C 
ATOM      3  C   UNL     1       4.339   3.692   0.737  0.00  0.00    -0.012 C 
ATOM      4  C   UNL     1       5.808   3.499   0.799  0.00  0.00    +0.269 C 
ATOM      5  C   UNL     1       6.120   2.284   1.627  0.00  0.00    +0.187 C 
ATOM      6  O   UNL     1       6.819   2.459   2.632  0.00  0.00    -0.292 OA
ATOM      7  C   UNL     1       5.728   0.886   1.326  0.00  0.00    +0.066 C 
ATOM      8  C   UNL     1       6.746   0.357   0.281  0.00  0.00    +0.131 C 
ATOM      9  C   UNL     1       6.236  -0.930  -0.362  0.00  0.00    +0.068 C 
ATOM     10  C   UNL     1       5.071  -0.601  -1.298  0.00  0.00    +0.167 C 
ATOM     11  C   UNL     1       4.211   0.559  -0.690  0.00  0.00    +0.170 C 
ATOM     12  C   UNL     1       4.327   0.511   0.812  0.00  0.00    +0.097 C 
ATOM     13  C   UNL     1       3.144   0.871   1.691  0.00  0.00    +0.217 C 
ATOM     14  C   UNL     1       2.550   2.276   1.555  0.00  0.00    +0.115 C 
ATOM     15  C   UNL     1       3.446   3.432   1.904  0.00  0.00    +0.023 C 
ATOM     16  C   UNL     1       2.567   4.690   2.134  0.00  0.00    +0.018 C 
ATOM     17  C   UNL     1       4.147   3.203   3.239  0.00  0.00    +0.018 C 
ATOM     18  C   UNL     1       1.847   2.508   0.221  0.00  0.00    +0.075 C 
ATOM     19  C   UNL     1       2.285   3.733  -0.556  0.00  0.00    +0.143 C 
ATOM     20  C   UNL     1       3.045  -0.252  -1.284  0.00  0.00    +0.211 C 
ATOM     21  O   UNL     1       3.895  -1.397  -1.058  0.00  0.00    -0.368 OA
ATOM     22  C   UNL     1       5.989   0.063   2.616  0.00  0.00    +0.022 C 
ENDROOT
BRANCH  19  23
ATOM     23  O   UNL     1       2.044   3.501  -1.949  0.00  0.00    -0.387 OA
ATOM     24  H   UNL     1       2.264   4.252  -2.517  0.00  0.00    +0.210 HD
ENDBRANCH  19  23
BRANCH  14  25
ATOM     25  O   UNL     1       1.485   2.331   2.546  0.00  0.00    -0.384 OA
ATOM     26  H   UNL     1       0.820   1.636   2.448  0.00  0.00    +0.210 HD
ENDBRANCH  14  25
BRANCH   8  27
ATOM     27  O   UNL     1       7.986   0.095   0.937  0.00  0.00    -0.391 OA
ATOM     28  H   UNL     1       8.678  -0.241   0.351  0.00  0.00    +0.210 HD
ENDBRANCH   8  27
BRANCH  13  29
ATOM     29  O   UNL     1       2.066  -0.103   1.474  0.00  0.00    -0.454 OA
BRANCH  29  30
ATOM     30  C   UNL     1       1.371  -0.499   2.558  0.00  0.00    +0.340 C 
ATOM     31  O   UNL     1       1.648  -0.051   3.653  0.00  0.00    -0.245 OA
BRANCH  30  32
ATOM     32  C   UNL     1       0.273  -1.477   2.416  0.00  0.00    +0.059 A 
ATOM     33  C   UNL     1      -0.051  -1.989   1.158  0.00  0.00    +0.015 A 
ATOM     34  C   UNL     1      -1.074  -2.906   1.033  0.00  0.00    +0.001 A 
ATOM     35  C   UNL     1      -1.785  -3.310   2.149  0.00  0.00    +0.000 A 
ATOM     36  C   UNL     1      -1.473  -2.802   3.398  0.00  0.00    +0.001 A 
ATOM     37  C   UNL     1      -0.449  -1.889   3.538  0.00  0.00    +0.015 A 
ENDBRANCH  30  32
ENDBRANCH  29  30
ENDBRANCH  13  29
BRANCH  11  38
ATOM     38  O   UNL     1       4.468   1.832  -1.328  0.00  0.00    -0.453 OA
BRANCH  38  39
ATOM     39  C   UNL     1       4.379   1.871  -2.667  0.00  0.00    +0.305 C 
ATOM     40  O   UNL     1       3.940   0.922  -3.271  0.00  0.00    -0.251 OA
ATOM     41  C   UNL     1       4.826   3.100  -3.416  0.00  0.00    +0.136 C 
ENDBRANCH  38  39
ENDBRANCH  11  38
BRANCH   4  42
ATOM     42  O   UNL     1       6.460   4.676   1.372  0.00  0.00    -0.449 OA
BRANCH  42  43
ATOM     43  C   UNL     1       7.708   4.944   0.957  0.00  0.00    +0.305 C 
ATOM     44  O   UNL     1       8.242   4.226   0.145  0.00  0.00    -0.251 OA
ATOM     45  C   UNL     1       8.444   6.141   1.503  0.00  0.00    +0.136 C 
ENDBRANCH  42  43
ENDBRANCH   4  42
TORSDOF 10
