REMARK  Name = ZINC02726035
REMARK  10 active torsions:
REMARK  status: ('A' for Active; 'I' for Inactive)
REMARK    1  A    between atoms: C_1  and  C_2
REMARK    2  A    between atoms: C_2  and  C_4
REMARK    3  A    between atoms: C_2  and  N_54
REMARK    4  A    between atoms: C_7  and  S_16
REMARK    5  A    between atoms: N_8  and  C_9
REMARK    6  A    between atoms: S_16  and  C_17
REMARK    7  A    between atoms: C_17  and  C_18
REMARK    8  A    between atoms: N_20  and  C_21
REMARK    9  A    between atoms: C_33  and  N_54
REMARK   10  A    between atoms: C_34  and  N_54
REMARK                            x       y       z     vdW  Elec       q    Type
REMARK                         _______ _______ _______ _____ _____    ______ ____
ROOT
ATOM      1  C   UNL     1      -1.464   3.491   2.497  0.00  0.00    +0.125 A 
ATOM      2  N   UNL     1      -2.583   3.012   2.962  0.00  0.00    -0.135 NA
ATOM      3  N   UNL     1      -2.904   3.616   4.051  0.00  0.00    -0.122 NA
ATOM      4  C   UNL     1      -2.003   4.528   4.338  0.00  0.00    +0.197 A 
ATOM      5  N   UNL     1      -1.054   4.477   3.354  0.00  0.00    -0.275 N 
ENDROOT
BRANCH   5   6
ATOM      6  C   UNL     1       0.098   5.270   3.247  0.00  0.00    +0.050 A 
ATOM      7  C   UNL     1       1.354   4.688   3.347  0.00  0.00    +0.028 A 
ATOM      8  C   UNL     1       2.487   5.469   3.235  0.00  0.00    +0.022 A 
ATOM      9  C   UNL     1       2.371   6.833   3.034  0.00  0.00    +0.041 A 
ATOM     10  C   UNL     1       1.120   7.417   2.939  0.00  0.00    +0.022 A 
ATOM     11  C   UNL     1      -0.016   6.638   3.045  0.00  0.00    +0.028 A 
ATOM     12 CL   UNL     1       3.797   7.814   2.900  0.00  0.00    -0.084 Cl
ENDBRANCH   5   6
BRANCH   1  14
ATOM     13  C   UNL     1      -1.500   3.583   0.019  0.00  0.00    -0.005 C 
ATOM     14  C   UNL     1      -0.755   3.046   1.243  0.00  0.00    -0.003 C 
BRANCH  14  17
ATOM     15  C   UNL     1      -0.040   1.108  -0.019  0.00  0.00    -0.096 C 
ATOM     16  C   UNL     1      -0.099   1.024   2.400  0.00  0.00    -0.096 C 
ATOM     17  N   UNL     1      -0.751   1.569   1.192  0.00  0.00    +0.382 N 
ATOM     18  H   UNL     1      -1.721   1.234   1.156  0.00  0.00    -0.082 HD
ENDBRANCH  14  17
ENDBRANCH   1  14
BRANCH   4  19
ATOM     19  S   UNL     1      -2.015   5.610   5.728  0.00  0.00    -0.076 S 
BRANCH  19  20
ATOM     20  C   UNL     1      -3.547   5.075   6.531  0.00  0.00    +0.173 C 
BRANCH  20  21
ATOM     21  C   UNL     1      -3.769   5.887   7.781  0.00  0.00    +0.227 C 
ATOM     22  O   UNL     1      -2.971   6.744   8.098  0.00  0.00    -0.275 OA
ATOM     23  N   UNL     1      -4.856   5.662   8.546  0.00  0.00    -0.285 N 
ATOM     24  H   UNL     1      -5.528   5.024   8.258  0.00  0.00    +0.155 HD
BRANCH  23  25
ATOM     25  C   UNL     1      -5.013   6.348   9.757  0.00  0.00    +0.035 A 
ATOM     26  C   UNL     1      -5.612   5.715  10.840  0.00  0.00    +0.025 A 
ATOM     27  C   UNL     1      -5.766   6.383  12.038  0.00  0.00    +0.029 A 
ATOM     28  C   UNL     1      -5.333   7.695  12.158  0.00  0.00    +0.067 A 
ATOM     29  C   UNL     1      -4.736   8.336  11.070  0.00  0.00    +0.069 A 
ATOM     30  C   UNL     1      -4.578   7.660   9.871  0.00  0.00    +0.051 A 
ATOM     31  N   UNL     1      -4.412   9.624  11.490  0.00  0.00    -0.306 N 
ATOM     32  H   UNL     1      -3.984  10.306  10.949  0.00  0.00    +0.170 HD
ATOM     33  C   UNL     1      -4.793   9.761  12.774  0.00  0.00    +0.325 A 
ATOM     34  O   UNL     1      -4.654  10.769  13.442  0.00  0.00    -0.247 OA
ATOM     35  N   UNL     1      -5.352   8.616  13.206  0.00  0.00    -0.306 N 
ATOM     36  H   UNL     1      -5.708   8.457  14.095  0.00  0.00    +0.170 HD
ENDBRANCH  23  25
ENDBRANCH  20  21
ENDBRANCH  19  20
ENDBRANCH   4  19
TORSDOF 7
