REMARK  Name = ZINC41006513
REMARK  12 active torsions:
REMARK  status: ('A' for Active; 'I' for Inactive)
REMARK    1  A    between atoms: C_1  and  C_2
REMARK    2  A    between atoms: C_2  and  O_3
REMARK    3  A    between atoms: O_3  and  C_4
REMARK    4  A    between atoms: C_9  and  C_10
REMARK    5  A    between atoms: C_12  and  C_32
REMARK    6  A    between atoms: C_17  and  C_30
REMARK    7  A    between atoms: C_17  and  O_31
REMARK    8  A    between atoms: C_18  and  C_20
REMARK    9  A    between atoms: N_22  and  C_23
REMARK   10  A    between atoms: C_28  and  C_29
REMARK   11  A    between atoms: N_34  and  C_35
REMARK   12  A    between atoms: C_40  and  C_41
REMARK                            x       y       z     vdW  Elec       q    Type
REMARK                         _______ _______ _______ _____ _____    ______ ____
ROOT
ATOM      1  C   UNL     1       1.796  -1.426   3.648  0.00  0.00    +0.056 C 
ATOM      2  C   UNL     1       1.048  -1.694   4.958  0.00  0.00    +0.150 C 
ATOM      3  C   UNL     1       1.675  -0.855   6.050  0.00  0.00    +0.148 C 
ATOM      4  O   UNL     1       0.996  -0.148   6.755  0.00  0.00    -0.296 OA
ATOM      5  C   UNL     1       3.174  -0.926   6.236  0.00  0.00    +0.110 C 
ATOM      6  C   UNL     1       3.845  -0.686   4.880  0.00  0.00    +0.082 C 
ATOM      7  C   UNL     1       3.290  -1.677   3.855  0.00  0.00    +0.116 C 
ATOM      8  C   UNL     1       3.559   0.743   4.413  0.00  0.00    +0.042 C 
ENDROOT
BRANCH   1  14
ATOM      9  C   UNL     1       0.707  -1.821   1.424  0.00  0.00    +0.124 A 
ATOM     10  C   UNL     1       0.234  -2.672   0.435  0.00  0.00    +0.046 A 
ATOM     11  C   UNL     1       0.325  -4.041   0.601  0.00  0.00    +0.004 A 
ATOM     12  C   UNL     1       0.888  -4.562   1.752  0.00  0.00    +0.001 A 
ATOM     13  C   UNL     1       1.359  -3.717   2.739  0.00  0.00    +0.007 A 
ATOM     14  C   UNL     1       1.276  -2.347   2.575  0.00  0.00    -0.001 A 
BRANCH   9  15
ATOM     15  O   UNL     1       0.619  -0.475   1.262  0.00  0.00    -0.492 OA
BRANCH  15  17
ATOM     16  C   UNL     1       0.011   1.526   0.050  0.00  0.00    +0.048 C 
ATOM     17  C   UNL     1       0.022  -0.004   0.052  0.00  0.00    +0.225 C 
ENDBRANCH  15  17
ENDBRANCH   9  15
ENDBRANCH   1  14
BRANCH   7  18
ATOM     18  C   UNL     1       4.014  -1.503   2.545  0.00  0.00    +0.224 C 
ATOM     19  O   UNL     1       3.396  -1.206   1.545  0.00  0.00    -0.275 OA
ATOM     20  N   UNL     1       5.350  -1.675   2.485  0.00  0.00    -0.285 N 
ATOM     21  H   UNL     1       5.856  -1.833   3.298  0.00  0.00    +0.155 HD
BRANCH  20  22
ATOM     22  C   UNL     1       6.007  -1.627   1.250  0.00  0.00    +0.036 A 
ATOM     23  C   UNL     1       5.314  -1.917   0.082  0.00  0.00    +0.023 A 
ATOM     24  C   UNL     1       5.965  -1.868  -1.135  0.00  0.00    +0.002 A 
ATOM     25  C   UNL     1       7.306  -1.532  -1.191  0.00  0.00    +0.000 A 
ATOM     26  C   UNL     1       7.998  -1.244  -0.029  0.00  0.00    +0.005 A 
ATOM     27  C   UNL     1       7.351  -1.285   1.190  0.00  0.00    -0.029 A 
ATOM     28  C   UNL     1       8.105  -0.963   2.455  0.00  0.00    +0.045 C 
ENDBRANCH  20  22
ENDBRANCH   7  18
BRANCH   2  29
ATOM     29  C   UNL     1      -0.403  -1.319   4.797  0.00  0.00    +0.228 C 
ATOM     30  O   UNL     1      -0.803  -0.881   3.739  0.00  0.00    -0.275 OA
ATOM     31  N   UNL     1      -1.257  -1.472   5.829  0.00  0.00    -0.285 N 
ATOM     32  H   UNL     1      -0.925  -1.757   6.695  0.00  0.00    +0.155 HD
BRANCH  31  33
ATOM     33  C   UNL     1      -2.621  -1.218   5.652  0.00  0.00    +0.036 A 
ATOM     34  C   UNL     1      -3.036  -0.204   4.798  0.00  0.00    +0.023 A 
ATOM     35  C   UNL     1      -4.383   0.044   4.625  0.00  0.00    +0.002 A 
ATOM     36  C   UNL     1      -5.320  -0.716   5.302  0.00  0.00    +0.000 A 
ATOM     37  C   UNL     1      -4.911  -1.726   6.153  0.00  0.00    +0.005 A 
ATOM     38  C   UNL     1      -3.564  -1.983   6.325  0.00  0.00    -0.029 A 
ATOM     39  C   UNL     1      -3.119  -3.088   7.248  0.00  0.00    +0.045 C 
ENDBRANCH  31  33
ENDBRANCH   2  29
BRANCH   6  40
ATOM     40  O   UNL     1       5.257  -0.872   5.006  0.00  0.00    -0.388 OA
ATOM     41  H   UNL     1       5.676  -0.276   5.642  0.00  0.00    +0.210 HD
ENDBRANCH   6  40
TORSDOF 8
