REMARK  Name = ZINC25680382
REMARK  7 active torsions:
REMARK  status: ('A' for Active; 'I' for Inactive)
REMARK    1  A    between atoms: C_1  and  C_2
REMARK    2  A    between atoms: C_2  and  C_4
REMARK    3  A    between atoms: C_2  and  N_18
REMARK    4  A    between atoms: N_6  and  C_7
REMARK    5  A    between atoms: C_8  and  C_15
REMARK    6  A    between atoms: C_21  and  C_24
REMARK    7  A    between atoms: C_27  and  O_30
REMARK                            x       y       z     vdW  Elec       q    Type
REMARK                         _______ _______ _______ _____ _____    ______ ____
ROOT
ATOM      1  C   UNL     1      -0.448   2.931  -5.136  0.00  0.00    -0.004 C 
ATOM      2  C   UNL     1      -1.803   2.255  -4.912  0.00  0.00    +0.017 C 
ENDROOT
BRANCH   2   3
ATOM      3  N   UNL     1      -2.789   2.815  -5.845  0.00  0.00    +0.390 N 
ATOM      4  C   UNL     1      -2.493   2.413  -7.230  0.00  0.00    -0.073 C 
ATOM      5  C   UNL     1      -3.705   2.746  -8.104  0.00  0.00    +0.017 C 
ATOM      6  C   UNL     1      -4.141   4.162  -7.847  0.00  0.00    -0.048 C 
ATOM      7  C   UNL     1      -3.756   4.842  -6.790  0.00  0.00    -0.041 C 
ATOM      8  C   UNL     1      -2.841   4.278  -5.741  0.00  0.00    -0.050 C 
ATOM      9  H   UNL     1      -3.775   2.413  -5.568  0.00  0.00    -0.080 HD
BRANCH   6  10
ATOM     10  C   UNL     1      -5.037   4.815  -8.823  0.00  0.00    -0.022 A 
ATOM     11  C   UNL     1      -6.331   4.329  -9.020  0.00  0.00    +0.012 A 
ATOM     12  C   UNL     1      -7.166   4.944  -9.928  0.00  0.00    +0.046 A 
ATOM     13  C   UNL     1      -6.718   6.040 -10.654  0.00  0.00    +0.117 A 
ATOM     14  C   UNL     1      -5.430   6.523 -10.465  0.00  0.00    +0.046 A 
ATOM     15  C   UNL     1      -4.591   5.917  -9.555  0.00  0.00    +0.012 A 
BRANCH  13  16
ATOM     16  O   UNL     1      -7.542   6.640 -11.552  0.00  0.00    -0.507 OA
ATOM     17  H   UNL     1      -7.189   7.508 -12.128  0.00  0.00    +0.292 HD
ENDBRANCH  13  16
ENDBRANCH   6  10
ENDBRANCH   2   3
BRANCH   2  18
ATOM     18  C   UNL     1      -2.257   2.497  -3.496  0.00  0.00    +0.204 C 
ATOM     19  O   UNL     1      -3.300   3.079  -3.285  0.00  0.00    -0.277 OA
ATOM     20  N   UNL     1      -1.504   2.067  -2.463  0.00  0.00    -0.281 N 
ATOM     21  H   UNL     1      -0.558   1.540  -2.655  0.00  0.00    +0.155 HD
BRANCH  20  22
ATOM     22  C   UNL     1      -1.923   2.290  -1.160  0.00  0.00    +0.084 A 
ATOM     23  C   UNL     1      -1.294   1.929   0.019  0.00  0.00    +0.068 A 
ATOM     24  C   UNL     1      -1.949   2.292   1.275  0.00  0.00    -0.023 A 
ATOM     25  C   UNL     1      -3.116   2.947   1.141  0.00  0.00    -0.004 A 
ATOM     26  S   UNL     1      -3.359   3.086  -0.613  0.00  0.00    -0.077 S 
ATOM     27  C   UNL     1      -3.727   3.290   2.473  0.00  0.00    +0.043 C 
ATOM     28  C   UNL     1      -2.568   3.137   3.483  0.00  0.00    +0.010 C 
ATOM     29  C   UNL     1      -1.659   2.119   2.766  0.00  0.00    +0.037 C 
BRANCH  23  30
ATOM     30  C   UNL     1      -0.014   1.213   0.009  0.00  0.00    +0.244 C 
ATOM     31  O   UNL     1       0.002  -0.004   0.002  0.00  0.00    -0.270 OA
ATOM     32  N   UNL     1       1.143   1.903   0.001  0.00  0.00    -0.325 N 
ATOM     33  H   UNL     1       2.103   1.366  -0.006  0.00  0.00    +0.145 HD
ATOM     34  H   UNL     1       1.129   3.002   0.003  0.00  0.00    +0.145 HD
ENDBRANCH  23  30
ENDBRANCH  20  22
ENDBRANCH   2  18
TORSDOF 6
