REMARK  Name = ZINC39634232
REMARK  5 active torsions:
REMARK  status: ('A' for Active; 'I' for Inactive)
REMARK    1  A    between atoms: C_1  and  C_2
REMARK    2  A    between atoms: C_5  and  C_8
REMARK    3  A    between atoms: C_8  and  N_9
REMARK    4  A    between atoms: C_10  and  C_12
REMARK    5  A    between atoms: C_23  and  C_25
REMARK                            x       y       z     vdW  Elec       q    Type
REMARK                         _______ _______ _______ _____ _____    ______ ____
ROOT
ATOM      1  C   UNL     1       3.137  -6.551  -0.051  0.00  0.00    +0.100 C 
ATOM      2  C   UNL     1       3.900  -6.003   1.176  0.00  0.00    +0.121 C 
ATOM      3  N   UNL     1       3.805  -7.081   2.188  0.00  0.00    -0.296 N 
ATOM      4  C   UNL     1       3.965  -8.333   1.411  0.00  0.00    +0.115 C 
ATOM      5  C   UNL     1       3.185  -8.081   0.105  0.00  0.00    -0.004 C 
ATOM      6  C   UNL     1       3.917  -8.710  -1.077  0.00  0.00    -0.010 C 
ATOM      7  C   UNL     1       3.901 -10.234  -0.929  0.00  0.00    -0.082 C 
ATOM      8  N   UNL     1       2.512 -10.708  -0.878  0.00  0.00    +0.379 N 
ATOM      9  C   UNL     1       1.843 -10.171   0.314  0.00  0.00    -0.082 C 
ATOM     10  C   UNL     1       1.772  -8.645   0.218  0.00  0.00    -0.010 C 
ATOM     11  C   UNL     1       3.615  -6.952   3.517  0.00  0.00    +0.249 C 
ATOM     12  O   UNL     1       3.559  -7.941   4.221  0.00  0.00    -0.270 OA
ATOM     13  H   UNL     1       2.022 -10.399  -1.704  0.00  0.00    -0.086 HD
ATOM     14  H   UNL     1       2.503 -11.716  -0.842  0.00  0.00    -0.086 HD
ENDROOT
BRANCH  11  15
ATOM     15  C   UNL     1       3.475  -5.609   4.115  0.00  0.00    +0.073 A 
ATOM     16  C   UNL     1       2.213  -5.023   4.240  0.00  0.00    +0.054 A 
ATOM     17  C   UNL     1       2.090  -3.768   4.801  0.00  0.00    +0.021 A 
ATOM     18  C   UNL     1       3.213  -3.090   5.240  0.00  0.00    +0.003 A 
ATOM     19  C   UNL     1       4.467  -3.663   5.120  0.00  0.00    +0.021 A 
ATOM     20  C   UNL     1       4.605  -4.920   4.566  0.00  0.00    +0.054 A 
ATOM     21 CL   UNL     1       6.178  -5.641   4.424  0.00  0.00    -0.083 Cl
ATOM     22 CL   UNL     1       0.802  -5.872   3.689  0.00  0.00    -0.083 Cl
ENDBRANCH  11  15
BRANCH   1  24
ATOM     23  N   UNL     1       1.020  -5.980  -1.194  0.00  0.00    -0.311 N 
ATOM     24  C   UNL     1       1.710  -6.067  -0.040  0.00  0.00    +0.218 C 
ATOM     25  O   UNL     1       1.183  -5.756   1.007  0.00  0.00    -0.275 OA
ATOM     26  H   UNL     1       1.441  -6.229  -2.032  0.00  0.00    +0.149 HD
BRANCH  23  27
ATOM     27  C   UNL     1      -0.368  -5.510  -1.184  0.00  0.00    +0.139 C 
BRANCH  27  32
ATOM     28  C   UNL     1      -2.439  -5.494  -6.579  0.00  0.00    +0.044 C 
ATOM     29  C   UNL     1      -1.899  -5.498  -5.172  0.00  0.00    -0.050 A 
ATOM     30  C   UNL     1      -2.031  -6.626  -4.384  0.00  0.00    +0.003 A 
ATOM     31  C   UNL     1      -1.535  -6.630  -3.094  0.00  0.00    +0.005 A 
ATOM     32  C   UNL     1      -0.907  -5.506  -2.591  0.00  0.00    -0.030 A 
ATOM     33  C   UNL     1      -0.774  -4.378  -3.379  0.00  0.00    +0.005 A 
ATOM     34  C   UNL     1      -1.266  -4.375  -4.671  0.00  0.00    +0.003 A 
ENDBRANCH  27  32
ENDBRANCH  23  27
ENDBRANCH   1  24
TORSDOF 4
