REMARK  Name = ZINC35337295
REMARK  19 active torsions:
REMARK  status: ('A' for Active; 'I' for Inactive)
REMARK    1  A    between atoms: C_1  and  C_2
REMARK    2  A    between atoms: C_2  and  N_3
REMARK    3  A    between atoms: N_3  and  C_4
REMARK    4  A    between atoms: N_3  and  C_6
REMARK    5  A    between atoms: C_4  and  C_5
REMARK    6  A    between atoms: C_6  and  C_7
REMARK    7  A    between atoms: C_7  and  N_8
REMARK    8  A    between atoms: N_15  and  C_18
REMARK    9  A    between atoms: C_18  and  C_19
REMARK   10  A    between atoms: C_19  and  C_21
REMARK   11  A    between atoms: C_23  and  C_32
REMARK   12  A    between atoms: C_24  and  O_31
REMARK   13  A    between atoms: C_25  and  C_27
REMARK   14  A    between atoms: C_27  and  C_28
REMARK   15  A    between atoms: C_27  and  C_29
REMARK   16  A    between atoms: C_27  and  C_30
REMARK   17  A    between atoms: C_32  and  C_33
REMARK   18  A    between atoms: C_32  and  C_34
REMARK   19  A    between atoms: C_32  and  C_35
REMARK                            x       y       z     vdW  Elec       q    Type
REMARK                         _______ _______ _______ _____ _____    ______ ____
ROOT
ATOM      1  N   UNL     1      -1.382  -3.580  -1.830  0.00  0.00    -0.315 N 
ATOM      2  C   UNL     1      -1.449  -4.179  -3.048  0.00  0.00    +0.068 A 
ATOM      3  C   UNL     1      -1.340  -3.706  -4.358  0.00  0.00    +0.028 A 
ATOM      4  C   UNL     1      -1.457  -4.582  -5.413  0.00  0.00    +0.002 A 
ATOM      5  C   UNL     1      -1.682  -5.932  -5.186  0.00  0.00    +0.002 A 
ATOM      6  C   UNL     1      -1.792  -6.415  -3.899  0.00  0.00    +0.028 A 
ATOM      7  C   UNL     1      -1.677  -5.547  -2.824  0.00  0.00    +0.069 A 
ATOM      8  N   UNL     1      -1.737  -5.707  -1.449  0.00  0.00    -0.306 N 
ATOM      9  C   UNL     1      -1.546  -4.477  -0.889  0.00  0.00    +0.175 A 
ATOM     10  N   UNL     1      -1.531  -4.216   0.465  0.00  0.00    -0.330 N 
ATOM     11  H   UNL     1      -1.391  -3.310   0.783  0.00  0.00    +0.145 HD
ATOM     12  H   UNL     1      -1.661  -4.938   1.099  0.00  0.00    +0.145 HD
ENDROOT
BRANCH   1  13
ATOM     13  C   UNL     1      -1.155  -2.151  -1.603  0.00  0.00    +0.106 C 
BRANCH  13  14
ATOM     14  C   UNL     1       0.348  -1.884  -1.496  0.00  0.00    -0.057 C 
BRANCH  14  15
ATOM     15  N   UNL     1       0.576  -0.451  -1.269  0.00  0.00    +0.380 N 
ATOM     16  H   UNL     1       0.124   0.081  -1.998  0.00  0.00    -0.082 HD
BRANCH  15  18
ATOM     17  C   UNL     1       0.128   1.449   0.210  0.00  0.00    -0.017 C 
ATOM     18  C   UNL     1       0.019  -0.067   0.035  0.00  0.00    -0.082 C 
ENDBRANCH  15  18
BRANCH  15  19
ATOM     19  C   UNL     1       2.019  -0.176  -1.285  0.00  0.00    -0.082 C 
ATOM     20  C   UNL     1       2.573  -0.440  -2.687  0.00  0.00    -0.017 C 
ENDBRANCH  15  19
ENDBRANCH  14  15
ENDBRANCH  13  14
ENDBRANCH   1  13
BRANCH   8  21
ATOM     21  C   UNL     1      -1.960  -6.964  -0.730  0.00  0.00    +0.204 C 
BRANCH  21  22
ATOM     22  C   UNL     1      -0.634  -7.623  -0.448  0.00  0.00    +0.183 C 
ATOM     23  O   UNL     1       0.395  -7.095  -0.812  0.00  0.00    -0.290 OA
BRANCH  22  24
ATOM     24  C   UNL     1      -0.589  -8.905   0.268  0.00  0.00    +0.020 A 
ATOM     25  C   UNL     1      -1.776  -9.519   0.684  0.00  0.00    +0.019 A 
ATOM     26  C   UNL     1      -1.728 -10.716   1.351  0.00  0.00    +0.000 A 
ATOM     27  C   UNL     1      -0.503 -11.319   1.615  0.00  0.00    +0.124 A 
ATOM     28  C   UNL     1       0.679 -10.713   1.204  0.00  0.00    +0.000 A 
ATOM     29  C   UNL     1       0.642  -9.519   0.531  0.00  0.00    +0.019 A 
BRANCH  28  30
ATOM     30  C   UNL     1       2.003 -11.372   1.494  0.00  0.00    -0.009 C 
ATOM     31  C   UNL     1       3.136 -10.506   0.940  0.00  0.00    +0.015 C 
ATOM     32  C   UNL     1       2.174 -11.529   3.006  0.00  0.00    +0.015 C 
ATOM     33  C   UNL     1       2.043 -12.750   0.830  0.00  0.00    +0.015 C 
ENDBRANCH  28  30
BRANCH  26  34
ATOM     34  C   UNL     1      -3.005 -11.379   1.800  0.00  0.00    -0.009 C 
ATOM     35  C   UNL     1      -4.199 -10.515   1.390  0.00  0.00    +0.015 C 
ATOM     36  C   UNL     1      -3.122 -12.757   1.145  0.00  0.00    +0.015 C 
ATOM     37  C   UNL     1      -2.990 -11.537   3.322  0.00  0.00    +0.015 C 
ENDBRANCH  26  34
BRANCH  27  38
ATOM     38  O   UNL     1      -0.461 -12.503   2.276  0.00  0.00    -0.506 OA
ATOM     39  H   UNL     1      -0.495 -13.278   1.698  0.00  0.00    +0.292 HD
ENDBRANCH  27  38
ENDBRANCH  22  24
ENDBRANCH  21  22
ENDBRANCH   8  21
TORSDOF 11
