REMARK  Name = ZINC49026507
REMARK  8 active torsions:
REMARK  status: ('A' for Active; 'I' for Inactive)
REMARK    1  A    between atoms: C_1  and  C_2
REMARK    2  A    between atoms: C_2  and  C_3
REMARK    3  A    between atoms: C_3  and  N_4
REMARK    4  A    between atoms: C_5  and  C_7
REMARK    5  A    between atoms: C_7  and  N_8
REMARK    6  A    between atoms: N_8  and  C_9
REMARK    7  A    between atoms: N_8  and  C_10
REMARK    8  A    between atoms: C_19  and  N_20
REMARK                            x       y       z     vdW  Elec       q    Type
REMARK                         _______ _______ _______ _____ _____    ______ ____
ROOT
ATOM      1  C   UNL     1       3.655  -4.492   2.752  0.00  0.00    +0.061 A 
ATOM      2  C   UNL     1       4.238  -5.658   2.206  0.00  0.00    +0.022 A 
ATOM      3  C   UNL     1       3.530  -6.476   1.312  0.00  0.00    +0.027 A 
ATOM      4  C   UNL     1       4.126  -7.593   0.806  0.00  0.00    +0.019 A 
ATOM      5  C   UNL     1       5.429  -7.931   1.165  0.00  0.00    +0.017 A 
ATOM      6  C   UNL     1       6.143  -7.159   2.029  0.00  0.00    +0.027 A 
ATOM      7  C   UNL     1       5.562  -6.000   2.572  0.00  0.00    +0.048 A 
ATOM      8  N   UNL     1       6.243  -5.224   3.422  0.00  0.00    -0.359 N 
ATOM      9  C   UNL     1       5.718  -4.138   3.939  0.00  0.00    +0.107 A 
ATOM     10  C   UNL     1       4.422  -3.730   3.626  0.00  0.00    +0.063 A 
ATOM     11 BR   UNL     1       3.171  -8.695  -0.398  0.00  0.00    -0.050 Br
ATOM     12  H   UNL     1       7.150  -5.471   3.664  0.00  0.00    +0.165 HD
ENDROOT
BRANCH  10  13
ATOM     13  N   UNL     1       3.895  -2.560   4.192  0.00  0.00    -0.355 N 
ATOM     14  H   UNL     1       2.934  -2.430   4.229  0.00  0.00    +0.142 HD
ATOM     15  H   UNL     1       4.490  -1.881   4.546  0.00  0.00    +0.142 HD
ENDBRANCH  10  13
BRANCH   1  16
ATOM     16  N   UNL     1       2.357  -4.116   2.422  0.00  0.00    -0.322 N 
ATOM     17  C   UNL     1       1.246  -4.455   3.315  0.00  0.00    +0.130 C 
BRANCH  16  18
ATOM     18  C   UNL     1       2.100  -3.381   1.181  0.00  0.00    +0.200 C 
BRANCH  18  20
ATOM     19  N   UNL     1       1.933  -1.020   0.464  0.00  0.00    -0.314 N 
ATOM     20  C   UNL     1       2.037  -1.905   1.475  0.00  0.00    +0.230 C 
ATOM     21  O   UNL     1       2.079  -1.513   2.622  0.00  0.00    -0.274 OA
ATOM     22  H   UNL     1       1.899  -1.333  -0.453  0.00  0.00    +0.149 HD
BRANCH  19  23
ATOM     23  C   UNL     1       1.871   0.416   0.750  0.00  0.00    +0.104 C 
BRANCH  23  25
ATOM     24  C   UNL     1       1.693   2.692  -0.263  0.00  0.00    +0.005 C 
ATOM     25  C   UNL     1       1.757   1.193  -0.562  0.00  0.00    +0.015 C 
ENDBRANCH  23  25
ENDBRANCH  19  23
ENDBRANCH  18  20
ENDBRANCH  16  18
ENDBRANCH   1  16
TORSDOF 6
