REMARK  Name = ZINC09004872
REMARK  14 active torsions:
REMARK  status: ('A' for Active; 'I' for Inactive)
REMARK    1  A    between atoms: C_1  and  C_2
REMARK    2  A    between atoms: C_2  and  O_3
REMARK    3  A    between atoms: O_3  and  C_4
REMARK    4  A    between atoms: C_7  and  C_13
REMARK    5  A    between atoms: C_9  and  O_10
REMARK    6  A    between atoms: O_10  and  C_11
REMARK    7  A    between atoms: C_11  and  C_12
REMARK    8  A    between atoms: C_13  and  C_14
REMARK    9  A    between atoms: C_14  and  N_15
REMARK   10  A    between atoms: C_16  and  C_18
REMARK   11  A    between atoms: C_18  and  S_19
REMARK   12  A    between atoms: S_19  and  C_20
REMARK   13  A    between atoms: C_26  and  C_31
REMARK   14  A    between atoms: C_34  and  C_37
REMARK                            x       y       z     vdW  Elec       q    Type
REMARK                         _______ _______ _______ _____ _____    ______ ____
ROOT
ATOM      1  C   UNL     1       7.677  -1.028   3.798  0.00  0.00    +0.173 C 
ENDROOT
BRANCH   1   3
ATOM      2  N   UNL     1       5.219  -0.755   3.737  0.00  0.00    -0.314 N 
ATOM      3  C   UNL     1       6.436  -0.175   3.755  0.00  0.00    +0.223 C 
ATOM      4  O   UNL     1       6.531   1.034   3.737  0.00  0.00    -0.275 OA
ATOM      5  H   UNL     1       5.143  -1.722   3.752  0.00  0.00    +0.149 HD
BRANCH   2   6
ATOM      6  C   UNL     1       4.013   0.074   3.695  0.00  0.00    +0.109 C 
BRANCH   6   7
ATOM      7  C   UNL     1       2.775  -0.826   3.682  0.00  0.00    +0.054 C 
BRANCH   7  11
ATOM      8  C   UNL     1      -0.745   1.600   3.566  0.00  0.00    +0.162 A 
ATOM      9  C   UNL     1      -0.201   1.221   4.783  0.00  0.00    +0.050 A 
ATOM     10  C   UNL     1       0.938   0.438   4.817  0.00  0.00    +0.007 A 
ATOM     11  C   UNL     1       1.534   0.028   3.639  0.00  0.00    -0.042 A 
ATOM     12  C   UNL     1       0.993   0.398   2.422  0.00  0.00    +0.053 A 
ATOM     13  C   UNL     1      -0.148   1.182   2.380  0.00  0.00    +0.162 A 
BRANCH   8  14
ATOM     14  O   UNL     1      -1.862   2.374   3.531  0.00  0.00    -0.489 OA
BRANCH  14  16
ATOM     15  C   UNL     1      -3.663   3.626   4.546  0.00  0.00    +0.048 C 
ATOM     16  C   UNL     1      -2.420   2.766   4.787  0.00  0.00    +0.226 C 
ENDBRANCH  14  16
ENDBRANCH   8  14
BRANCH  13  17
ATOM     17  O   UNL     1      -0.682   1.547   1.184  0.00  0.00    -0.489 OA
BRANCH  17  18
ATOM     18  C   UNL     1      -0.013   1.086   0.008  0.00  0.00    +0.226 C 
ATOM     19  C   UNL     1      -0.753   1.593  -1.232  0.00  0.00    +0.048 C 
ENDBRANCH  17  18
ENDBRANCH  13  17
ENDBRANCH   7  11
ENDBRANCH   6   7
ENDBRANCH   2   6
ENDBRANCH   1   3
BRANCH   1  20
ATOM     20  S   UNL     1       9.141   0.036   3.814  0.00  0.00    -0.078 S 
BRANCH  20  21
ATOM     21  C   UNL     1      10.408  -1.187   3.864  0.00  0.00    +0.170 A 
ATOM     22  N   UNL     1      11.717  -0.800   3.887  0.00  0.00    -0.301 N 
ATOM     23  H   UNL     1      11.934   0.145   3.876  0.00  0.00    +0.171 HD
ATOM     24  C   UNL     1      12.711  -1.706   3.925  0.00  0.00    +0.261 A 
ATOM     25  O   UNL     1      13.875  -1.344   3.946  0.00  0.00    -0.267 OA
ATOM     26  C   UNL     1      12.385  -3.097   3.942  0.00  0.00    +0.080 A 
ATOM     27  C   UNL     1      13.277  -4.252   3.982  0.00  0.00    +0.004 A 
ATOM     28  C   UNL     1      12.736  -5.493   3.992  0.00  0.00    +0.056 A 
ATOM     29  S   UNL     1      10.982  -5.180   3.946  0.00  0.00    -0.076 S 
ATOM     30  C   UNL     1      11.014  -3.406   3.916  0.00  0.00    +0.117 A 
ATOM     31  N   UNL     1      10.080  -2.462   3.883  0.00  0.00    -0.216 NA
BRANCH  27  32
ATOM     32  C   UNL     1      14.748  -4.069   4.013  0.00  0.00    -0.017 A 
ATOM     33  C   UNL     1      15.368  -3.235   3.084  0.00  0.00    +0.009 A 
ATOM     34  C   UNL     1      16.738  -3.065   3.120  0.00  0.00    +0.004 A 
ATOM     35  C   UNL     1      17.495  -3.729   4.068  0.00  0.00    -0.050 A 
ATOM     36  C   UNL     1      16.885  -4.562   4.989  0.00  0.00    +0.004 A 
ATOM     37  C   UNL     1      15.516  -4.736   4.966  0.00  0.00    +0.009 A 
ATOM     38  C   UNL     1      18.990  -3.545   4.098  0.00  0.00    +0.044 C 
ENDBRANCH  27  32
ENDBRANCH  20  21
ENDBRANCH   1  20
TORSDOF 11
