REMARK  Name = ZINC55168174
REMARK  15 active torsions:
REMARK  status: ('A' for Active; 'I' for Inactive)
REMARK    1  A    between atoms: C_1  and  C_2
REMARK    2  A    between atoms: C_2  and  N_3
REMARK    3  A    between atoms: C_4  and  C_27
REMARK    4  A    between atoms: C_6  and  C_13
REMARK    5  A    between atoms: C_9  and  C_10
REMARK    6  A    between atoms: C_9  and  C_11
REMARK    7  A    between atoms: C_11  and  O_12
REMARK    8  A    between atoms: C_13  and  N_14
REMARK    9  A    between atoms: N_14  and  C_15
REMARK   10  A    between atoms: C_15  and  C_16
REMARK   11  A    between atoms: C_18  and  O_25
REMARK   12  A    between atoms: C_19  and  O_24
REMARK   13  A    between atoms: C_20  and  O_22
REMARK   14  A    between atoms: O_22  and  C_23
REMARK   15  A    between atoms: O_25  and  C_26
REMARK                            x       y       z     vdW  Elec       q    Type
REMARK                         _______ _______ _______ _____ _____    ______ ____
ROOT
ATOM      1  N   UNL     1       0.713  -0.491   1.192  0.00  0.00    +0.389 N 
ATOM      2  C   UNL     1       2.133  -0.101   1.116  0.00  0.00    -0.033 C 
ATOM      3  C   UNL     1       2.966  -1.400   1.155  0.00  0.00    -0.008 C 
ATOM      4  C   UNL     1       2.000  -2.414   1.822  0.00  0.00    -0.007 C 
ATOM      5  C   UNL     1       0.631  -1.966   1.252  0.00  0.00    -0.044 C 
ATOM      6  C   UNL     1       0.423  -2.545  -0.149  0.00  0.00    -0.007 C 
ATOM      7  H   UNL     1       0.298  -0.094   2.022  0.00  0.00    -0.080 HD
ENDROOT
BRANCH   2   8
ATOM      8  C   UNL     1       2.487   0.775   2.290  0.00  0.00    -0.061 A 
ATOM      9  C   UNL     1       1.986   0.484   3.545  0.00  0.00    +0.003 A 
ATOM     10  C   UNL     1       2.312   1.287   4.622  0.00  0.00    +0.020 A 
ATOM     11  C   UNL     1       3.139   2.382   4.444  0.00  0.00    +0.041 A 
ATOM     12  C   UNL     1       3.640   2.672   3.187  0.00  0.00    +0.020 A 
ATOM     13  C   UNL     1       3.319   1.865   2.112  0.00  0.00    +0.003 A 
ATOM     14 CL   UNL     1       3.547   3.391   5.796  0.00  0.00    -0.084 Cl
ENDBRANCH   2   8
BRANCH   1  16
ATOM     15  C   UNL     1      -0.019   1.526   0.010  0.00  0.00    -0.017 C 
ATOM     16  C   UNL     1       0.002  -0.004   0.002  0.00  0.00    -0.081 C 
ENDBRANCH   1  16
BRANCH   5  17
ATOM     17  C   UNL     1      -0.502  -2.400   2.183  0.00  0.00    +0.143 C 
BRANCH  17  18
ATOM     18  O   UNL     1      -0.563  -3.827   2.226  0.00  0.00    -0.396 OA
ATOM     19  H   UNL     1      -1.261  -4.174   2.799  0.00  0.00    +0.209 HD
ENDBRANCH  17  18
ENDBRANCH   5  17
BRANCH   3  20
ATOM     20  C   UNL     1       4.226  -1.209   2.002  0.00  0.00    +0.083 C 
BRANCH  20  21
ATOM     21  N   UNL     1       5.056  -2.418   1.923  0.00  0.00    -0.312 NA
ATOM     22  H   UNL     1       4.534  -3.235   2.205  0.00  0.00    +0.122 HD
BRANCH  21  23
ATOM     23  C   UNL     1       6.277  -2.271   2.726  0.00  0.00    +0.116 C 
BRANCH  23  24
ATOM     24  C   UNL     1       7.102  -3.529   2.621  0.00  0.00    -0.026 A 
ATOM     25  C   UNL     1       6.904  -4.559   3.520  0.00  0.00    +0.054 A 
ATOM     26  C   UNL     1       7.661  -5.718   3.427  0.00  0.00    +0.165 A 
ATOM     27  C   UNL     1       8.619  -5.841   2.428  0.00  0.00    +0.201 A 
ATOM     28  C   UNL     1       8.814  -4.803   1.525  0.00  0.00    +0.165 A 
ATOM     29  C   UNL     1       8.049  -3.650   1.622  0.00  0.00    +0.054 A 
BRANCH  28  30
ATOM     30  O   UNL     1       9.750  -4.919   0.545  0.00  0.00    -0.491 OA
ATOM     31  C   UNL     1       9.896  -3.812  -0.347  0.00  0.00    +0.277 C 
ENDBRANCH  28  30
BRANCH  27  32
ATOM     32  O   UNL     1       9.364  -6.976   2.333  0.00  0.00    -0.501 OA
ATOM     33  H   UNL     1       8.973  -7.657   1.769  0.00  0.00    +0.292 HD
ENDBRANCH  27  32
BRANCH  26  34
ATOM     34  O   UNL     1       7.467  -6.731   4.313  0.00  0.00    -0.491 OA
ATOM     35  C   UNL     1       6.466  -6.534   5.314  0.00  0.00    +0.277 C 
ENDBRANCH  26  34
ENDBRANCH  23  24
ENDBRANCH  21  23
ENDBRANCH  20  21
ENDBRANCH   3  20
TORSDOF 11
