REMARK  Name = ZINC01857112
REMARK  10 active torsions:
REMARK  status: ('A' for Active; 'I' for Inactive)
REMARK    1  A    between atoms: C_1  and  C_2
REMARK    2  A    between atoms: C_5  and  N_8
REMARK    3  A    between atoms: C_9  and  C_30
REMARK    4  A    between atoms: C_12  and  S_13
REMARK    5  A    between atoms: S_13  and  C_14
REMARK    6  A    between atoms: C_14  and  C_15
REMARK    7  A    between atoms: N_17  and  N_18
REMARK    8  A    between atoms: N_18  and  C_19
REMARK    9  A    between atoms: C_19  and  C_21
REMARK   10  A    between atoms: C_25  and  N_27
REMARK                            x       y       z     vdW  Elec       q    Type
REMARK                         _______ _______ _______ _____ _____    ______ ____
ROOT
ATOM      1  N   UNL     1       0.037  -4.173  -0.059  0.00  0.00    -0.270 N 
ATOM      2  C   UNL     1      -0.879  -5.021   0.523  0.00  0.00    +0.169 A 
ATOM      3  N   UNL     1      -0.450  -6.246   0.326  0.00  0.00    -0.128 NA
ATOM      4  N   UNL     1       0.656  -6.224  -0.329  0.00  0.00    -0.122 NA
ATOM      5  C   UNL     1       0.999  -4.984  -0.597  0.00  0.00    +0.197 A 
ENDROOT
BRANCH   1  10
ATOM      6  C   UNL     1      -0.149   1.497  -0.214  0.00  0.00    +0.044 C 
ATOM      7  C   UNL     1      -0.100  -0.008  -0.172  0.00  0.00    -0.050 A 
ATOM      8  C   UNL     1      -0.262  -0.736  -1.337  0.00  0.00    +0.005 A 
ATOM      9  C   UNL     1      -0.217  -2.116  -1.302  0.00  0.00    +0.026 A 
ATOM     10  C   UNL     1      -0.009  -2.772  -0.097  0.00  0.00    +0.051 A 
ATOM     11  C   UNL     1       0.154  -2.039   1.070  0.00  0.00    +0.026 A 
ATOM     12  C   UNL     1       0.113  -0.659   1.029  0.00  0.00    +0.005 A 
ENDBRANCH   1  10
BRANCH   2  13
ATOM     13  C   UNL     1      -2.113  -4.627   1.235  0.00  0.00    +0.020 A 
ATOM     14  C   UNL     1      -2.647  -3.349   1.057  0.00  0.00    +0.013 A 
ATOM     15  C   UNL     1      -3.798  -2.986   1.724  0.00  0.00    +0.021 A 
ATOM     16  C   UNL     1      -4.425  -3.887   2.569  0.00  0.00    +0.041 A 
ATOM     17  C   UNL     1      -3.901  -5.156   2.750  0.00  0.00    +0.021 A 
ATOM     18  C   UNL     1      -2.753  -5.532   2.083  0.00  0.00    +0.013 A 
ATOM     19 CL   UNL     1      -5.873  -3.423   3.406  0.00  0.00    -0.084 Cl
ENDBRANCH   2  13
BRANCH   5  20
ATOM     20  S   UNL     1       2.432  -4.464  -1.480  0.00  0.00    -0.076 S 
BRANCH  20  21
ATOM     21  C   UNL     1       3.270  -6.014  -1.909  0.00  0.00    +0.174 C 
BRANCH  21  22
ATOM     22  C   UNL     1       4.529  -5.708  -2.678  0.00  0.00    +0.239 C 
ATOM     23  O   UNL     1       4.832  -4.557  -2.914  0.00  0.00    -0.273 OA
ATOM     24  N   UNL     1       5.320  -6.713  -3.104  0.00  0.00    -0.236 N 
ATOM     25  H   UNL     1       5.078  -7.633  -2.916  0.00  0.00    +0.173 HD
BRANCH  24  26
ATOM     26  N   UNL     1       6.491  -6.428  -3.820  0.00  0.00    -0.264 N 
ATOM     27  H   UNL     1       6.732  -5.508  -4.008  0.00  0.00    +0.170 HD
BRANCH  26  28
ATOM     28  C   UNL     1       7.309  -7.469  -4.261  0.00  0.00    +0.045 C 
ATOM     29  C   UNL     1       6.977  -8.734  -4.002  0.00  0.00    +0.035 C 
BRANCH  28  30
ATOM     30  C   UNL     1       8.547  -7.168  -5.017  0.00  0.00    -0.001 A 
ATOM     31  C   UNL     1       8.900  -5.846  -5.284  0.00  0.00    +0.010 A 
ATOM     32  C   UNL     1      10.054  -5.572  -5.989  0.00  0.00    +0.003 A 
ATOM     33  C   UNL     1      10.860  -6.606  -6.430  0.00  0.00    +0.033 A 
ATOM     34  C   UNL     1      10.515  -7.919  -6.169  0.00  0.00    +0.127 A 
ATOM     35  C   UNL     1       9.366  -8.206  -5.459  0.00  0.00    +0.042 A 
BRANCH  34  36
ATOM     36  N   UNL     1      11.383  -9.020  -6.645  0.00  0.00    +0.056 N 
ATOM     37  O   UNL     1      12.392  -8.770  -7.262  0.00  0.00    -0.126 OA
ATOM     38  O   UNL     1      11.082 -10.168  -6.417  0.00  0.00    -0.126 OA
ENDBRANCH  34  36
ENDBRANCH  28  30
ENDBRANCH  26  28
ENDBRANCH  24  26
ENDBRANCH  21  22
ENDBRANCH  20  21
ENDBRANCH   5  20
TORSDOF 9
