REMARK  Name = ZINC39936312
REMARK  9 active torsions:
REMARK  status: ('A' for Active; 'I' for Inactive)
REMARK    1  A    between atoms: C_1  and  C_2
REMARK    2  A    between atoms: C_4  and  C_34
REMARK    3  A    between atoms: C_5  and  C_32
REMARK    4  A    between atoms: C_6  and  N_16
REMARK    5  A    between atoms: N_8  and  C_9
REMARK    6  A    between atoms: C_17  and  C_19
REMARK    7  A    between atoms: C_19  and  S_20
REMARK    8  A    between atoms: S_20  and  C_21
REMARK    9  A    between atoms: C_25  and  C_27
REMARK                            x       y       z     vdW  Elec       q    Type
REMARK                         _______ _______ _______ _____ _____    ______ ____
ROOT
ATOM      1  N   UNL     1      -0.039  -2.985   1.623  0.00  0.00    -0.292 N 
ATOM      2  C   UNL     1       0.407  -3.708   2.669  0.00  0.00    +0.225 C 
ATOM      3  O   UNL     1       0.436  -3.216   3.778  0.00  0.00    -0.275 OA
ATOM      4  H   UNL     1      -0.136  -3.401   0.752  0.00  0.00    +0.151 HD
ENDROOT
BRANCH   1   9
ATOM      5  C   UNL     1       0.023   1.540   0.404  0.00  0.00    +0.033 C 
ATOM      6  C   UNL     1      -0.115   0.043   0.119  0.00  0.00    +0.099 C 
ATOM      7  C   UNL     1      -1.561  -0.366   0.213  0.00  0.00    -0.036 C 
ATOM      8  C   UNL     1      -1.709  -1.278   1.163  0.00  0.00    +0.068 C 
ATOM      9  C   UNL     1      -0.376  -1.570   1.800  0.00  0.00    +0.203 C 
ATOM     10  N   UNL     1       0.626  -0.727   1.127  0.00  0.00    -0.300 N 
ATOM     11  C   UNL     1      -2.673   0.180  -0.645  0.00  0.00    +0.042 C 
BRANCH  10  12
ATOM     12  C   UNL     1       1.996  -0.669   1.391  0.00  0.00    +0.035 A 
ATOM     13  C   UNL     1       2.830   0.092   0.581  0.00  0.00    +0.023 A 
ATOM     14  C   UNL     1       4.184   0.149   0.844  0.00  0.00    +0.005 A 
ATOM     15  C   UNL     1       4.713  -0.552   1.913  0.00  0.00    +0.038 A 
ATOM     16  C   UNL     1       3.886  -1.312   2.723  0.00  0.00    +0.125 A 
ATOM     17  C   UNL     1       2.527  -1.368   2.467  0.00  0.00    +0.061 A 
ATOM     18  F   UNL     1       4.405  -1.996   3.766  0.00  0.00    -0.205 F 
ENDBRANCH  10  12
BRANCH   8  19
ATOM     19  C   UNL     1      -2.949  -1.892   1.530  0.00  0.00    +0.098 C 
ATOM     20  N   UNL     1      -3.933  -2.379   1.820  0.00  0.00    -0.191 NA
ENDBRANCH   8  19
ENDBRANCH   1   9
BRANCH   2  21
ATOM     21  C   UNL     1       0.869  -5.127   2.462  0.00  0.00    +0.173 C 
BRANCH  21  22
ATOM     22  S   UNL     1       1.405  -5.826   4.048  0.00  0.00    -0.077 S 
BRANCH  22  23
ATOM     23  C   UNL     1       1.909  -7.465   3.644  0.00  0.00    +0.185 A 
ATOM     24  N   UNL     1       2.385  -8.386   4.511  0.00  0.00    -0.253 N 
ATOM     25  H   UNL     1       2.515  -8.271   5.465  0.00  0.00    +0.191 HD
ATOM     26  N   UNL     1       2.657  -9.540   3.759  0.00  0.00    -0.151 NA
ATOM     27  C   UNL     1       2.340  -9.267   2.511  0.00  0.00    +0.189 A 
ATOM     28  N   UNL     1       1.881  -8.008   2.446  0.00  0.00    -0.200 NA
BRANCH  27  29
ATOM     29  C   UNL     1       2.464 -10.198   1.369  0.00  0.00    +0.058 A 
ATOM     30  C   UNL     1       2.910 -11.492   1.356  0.00  0.00    +0.019 A 
ATOM     31  C   UNL     1       2.936 -12.171   0.157  0.00  0.00    +0.008 A 
ATOM     32  C   UNL     1       2.521 -11.539  -0.971  0.00  0.00    +0.046 A 
ATOM     33  S   UNL     1       2.064  -9.928  -0.350  0.00  0.00    -0.093 S 
ENDBRANCH  27  29
ENDBRANCH  22  23
ENDBRANCH  21  22
ENDBRANCH   2  21
TORSDOF 7
