REMARK  Name = ZINC12655082
REMARK  1 active torsions:
REMARK  status: ('A' for Active; 'I' for Inactive)
REMARK    1  A    between atoms: C_4  and  C_7
REMARK                            x       y       z     vdW  Elec       q    Type
REMARK                         _______ _______ _______ _____ _____    ______ ____
ROOT
ATOM      1  C   UNL     1       6.112   1.918   1.522  0.00  0.00    +0.031 C 
ATOM      2  C   UNL     1       5.052   2.977   1.735  0.00  0.00    +0.083 C 
ATOM      3  C   UNL     1       4.090   3.117   0.561  0.00  0.00    +0.211 C 
ATOM      4  C   UNL     1       2.946   3.992   0.992  0.00  0.00    +0.029 A 
ATOM      5  C   UNL     1       2.015   3.843   1.996  0.00  0.00    +0.010 A 
ATOM      6  C   UNL     1       1.067   4.854   2.134  0.00  0.00    +0.000 A 
ATOM      7  C   UNL     1       1.060   5.961   1.309  0.00  0.00    +0.001 A 
ATOM      8  C   UNL     1       2.000   6.133   0.304  0.00  0.00    +0.015 A 
ATOM      9  C   UNL     1       2.966   5.130   0.168  0.00  0.00    +0.068 A 
ATOM     10  C   UNL     1       4.099   5.011  -0.746  0.00  0.00    +0.342 C 
ATOM     11  O   UNL     1       4.383   5.814  -1.612  0.00  0.00    -0.245 OA
ATOM     12  O   UNL     1       4.781   3.881  -0.489  0.00  0.00    -0.432 OA
ATOM     13  N   UNL     1       3.659   1.873   0.018  0.00  0.00    -0.265 N 
ATOM     14  C   UNL     1       2.366   1.440   0.003  0.00  0.00    +0.056 A 
ATOM     15  C   UNL     1       1.152   2.123   0.003  0.00  0.00    +0.025 A 
ATOM     16  C   UNL     1      -0.017   1.375   0.010  0.00  0.00    +0.002 A 
ATOM     17  C   UNL     1       0.002  -0.004   0.002  0.00  0.00    +0.002 A 
ATOM     18  C   UNL     1       1.197  -0.708  -0.025  0.00  0.00    +0.025 A 
ATOM     19  C   UNL     1       2.377   0.029  -0.035  0.00  0.00    +0.050 A 
ATOM     20  N   UNL     1       3.686  -0.438  -0.103  0.00  0.00    -0.321 N 
ATOM     21  C   UNL     1       4.570   0.754  -0.123  0.00  0.00    +0.106 C 
ATOM     22  C   UNL     1       5.558   0.614   1.009  0.00  0.00    +0.038 C 
ATOM     23  C   UNL     1       6.603  -0.449   0.790  0.00  0.00    +0.008 C 
ATOM     24  C   UNL     1       7.191  -0.493  -0.606  0.00  0.00    +0.001 C 
ATOM     25  C   UNL     1       6.109  -0.440  -1.678  0.00  0.00    +0.004 C 
ATOM     26  C   UNL     1       5.271   0.825  -1.481  0.00  0.00    +0.046 C 
ATOM     27  H   UNL     1       3.966  -1.367  -0.130  0.00  0.00    +0.148 HD
ENDROOT
BRANCH   1  31
ATOM     28  C   UNL     1       8.034   1.267   5.280  0.00  0.00    +0.000 A 
ATOM     29  C   UNL     1       8.756   1.766   4.212  0.00  0.00    +0.000 A 
ATOM     30  C   UNL     1       8.134   1.977   2.996  0.00  0.00    +0.004 A 
ATOM     31  C   UNL     1       6.790   1.688   2.848  0.00  0.00    -0.044 A 
ATOM     32  C   UNL     1       6.067   1.193   3.917  0.00  0.00    +0.004 A 
ATOM     33  C   UNL     1       6.691   0.977   5.132  0.00  0.00    +0.000 A 
ENDBRANCH   1  31
TORSDOF 1
