REMARK  Name = ZINC36307905
REMARK  16 active torsions:
REMARK  status: ('A' for Active; 'I' for Inactive)
REMARK    1  A    between atoms: C_1  and  C_2
REMARK    2  A    between atoms: C_2  and  C_3
REMARK    3  A    between atoms: C_2  and  C_4
REMARK    4  A    between atoms: C_5  and  C_23
REMARK    5  A    between atoms: C_6  and  O_15
REMARK    6  A    between atoms: N_7  and  C_9
REMARK    7  A    between atoms: O_15  and  C_16
REMARK    8  A    between atoms: C_23  and  N_24
REMARK    9  A    between atoms: N_24  and  C_25
REMARK   10  A    between atoms: N_24  and  C_34
REMARK   11  A    between atoms: C_25  and  C_26
REMARK   12  A    between atoms: C_26  and  C_28
REMARK   13  A    between atoms: C_26  and  O_33
REMARK   14  A    between atoms: C_28  and  O_29
REMARK   15  A    between atoms: O_29  and  C_30
REMARK   16  A    between atoms: C_30  and  C_31
REMARK                            x       y       z     vdW  Elec       q    Type
REMARK                         _______ _______ _______ _____ _____    ______ ____
ROOT
ATOM      1  C   UNL     1       1.962   0.512  -1.153  0.00  0.00    +0.071 A 
ATOM      2  C   UNL     1       2.812  -0.595  -1.227  0.00  0.00    +0.021 A 
ATOM      3  C   UNL     1       2.776  -1.067  -2.502  0.00  0.00    +0.225 A 
ATOM      4  N   UNL     1       1.924  -0.275  -3.206  0.00  0.00    -0.200 N 
ATOM      5  N   UNL     1       1.426   0.702  -2.333  0.00  0.00    -0.168 NA
ENDROOT
BRANCH   4   6
ATOM      6  C   UNL     1       1.597  -0.413  -4.562  0.00  0.00    +0.069 A 
ATOM      7  C   UNL     1       2.587  -0.715  -5.488  0.00  0.00    +0.028 A 
ATOM      8  C   UNL     1       2.262  -0.851  -6.824  0.00  0.00    +0.002 A 
ATOM      9  C   UNL     1       0.953  -0.686  -7.239  0.00  0.00    +0.000 A 
ATOM     10  C   UNL     1      -0.034  -0.385  -6.319  0.00  0.00    +0.002 A 
ATOM     11  C   UNL     1       0.283  -0.254  -4.981  0.00  0.00    +0.028 A 
ENDBRANCH   4   6
BRANCH   1  13
ATOM     12  C   UNL     1       2.105   2.793  -0.192  0.00  0.00    +0.014 C 
ATOM     13  C   UNL     1       1.700   1.342   0.077  0.00  0.00    +0.034 C 
ATOM     14  C   UNL     1       0.211   1.284   0.424  0.00  0.00    +0.014 C 
ENDBRANCH   1  13
BRANCH   3  15
ATOM     15  O   UNL     1       3.463  -2.133  -2.983  0.00  0.00    -0.435 OA
BRANCH  15  16
ATOM     16  C   UNL     1       4.735  -1.929  -3.417  0.00  0.00    +0.165 A 
ATOM     17  C   UNL     1       5.314  -0.674  -3.306  0.00  0.00    +0.049 A 
ATOM     18  C   UNL     1       6.607  -0.468  -3.747  0.00  0.00    +0.004 A 
ATOM     19  C   UNL     1       7.325  -1.513  -4.299  0.00  0.00    +0.003 A 
ATOM     20  C   UNL     1       6.753  -2.766  -4.412  0.00  0.00    +0.042 A 
ATOM     21  C   UNL     1       5.460  -2.979  -3.967  0.00  0.00    +0.165 A 
ATOM     22  F   UNL     1       4.902  -4.205  -4.072  0.00  0.00    -0.202 F 
ENDBRANCH  15  16
ENDBRANCH   3  15
BRANCH   2  23
ATOM     23  C   UNL     1       3.626  -1.165  -0.093  0.00  0.00    -0.035 C 
BRANCH  23  24
ATOM     24  N   UNL     1       2.837  -2.182   0.614  0.00  0.00    +0.386 N 
ATOM     25  H   UNL     1       1.960  -1.781   0.910  0.00  0.00    -0.081 HD
BRANCH  24  26
ATOM     26  C   UNL     1       2.578  -3.314  -0.286  0.00  0.00    -0.068 C 
ATOM     27  C   UNL     1       1.153  -3.484  -0.816  0.00  0.00    -0.017 C 
ATOM     28  C   UNL     1       1.696  -4.448   0.240  0.00  0.00    -0.017 C 
ENDBRANCH  24  26
BRANCH  24  29
ATOM     29  C   UNL     1       3.583  -2.651   1.789  0.00  0.00    -0.044 C 
BRANCH  29  30
ATOM     30  C   UNL     1       4.951  -3.176   1.348  0.00  0.00    +0.124 C 
BRANCH  30  31
ATOM     31  O   UNL     1       4.777  -4.358   0.564  0.00  0.00    -0.391 OA
ATOM     32  H   UNL     1       4.332  -5.078   1.031  0.00  0.00    +0.210 HD
ENDBRANCH  30  31
BRANCH  30  33
ATOM     33  C   UNL     1       5.794  -3.503   2.583  0.00  0.00    +0.189 C 
BRANCH  33  34
ATOM     34  O   UNL     1       7.109  -3.883   2.175  0.00  0.00    -0.373 OA
BRANCH  34  35
ATOM     35  C   UNL     1       7.982  -4.210   3.258  0.00  0.00    +0.186 C 
BRANCH  35  36
ATOM     36  C   UNL     1       9.335  -4.593   2.715  0.00  0.00    -0.007 C 
ATOM     37  C   UNL     1      10.422  -4.117   3.268  0.00  0.00    +0.006 C 
ENDBRANCH  35  36
ENDBRANCH  34  35
ENDBRANCH  33  34
ENDBRANCH  30  33
ENDBRANCH  29  30
ENDBRANCH  24  29
ENDBRANCH  23  24
ENDBRANCH   2  23
TORSDOF 14
