REMARK  Name = ZINC02620616
REMARK  9 active torsions:
REMARK  status: ('A' for Active; 'I' for Inactive)
REMARK    1  A    between atoms: C_1  and  C_2
REMARK    2  A    between atoms: C_2  and  C_4
REMARK    3  A    between atoms: C_2  and  S_10
REMARK    4  A    between atoms: S_10  and  C_11
REMARK    5  A    between atoms: C_14  and  C_25
REMARK    6  A    between atoms: N_15  and  C_16
REMARK    7  A    between atoms: C_21  and  C_22
REMARK    8  A    between atoms: C_22  and  C_23
REMARK    9  A    between atoms: C_22  and  C_24
REMARK                            x       y       z     vdW  Elec       q    Type
REMARK                         _______ _______ _______ _____ _____    ______ ____
ROOT
ATOM      1  C   UNL     1      -0.189  -0.057  -2.809  0.00  0.00    +0.197 A 
ATOM      2  N   UNL     1      -1.313   0.615  -2.693  0.00  0.00    -0.122 NA
ATOM      3  N   UNL     1      -1.816   0.840  -3.854  0.00  0.00    -0.128 NA
ATOM      4  C   UNL     1      -1.046   0.325  -4.785  0.00  0.00    +0.171 A 
ATOM      5  N   UNL     1       0.025  -0.260  -4.145  0.00  0.00    -0.270 N 
ENDROOT
BRANCH   5   6
ATOM      6  C   UNL     1       1.105  -0.928  -4.738  0.00  0.00    +0.054 A 
ATOM      7  C   UNL     1       1.033  -2.294  -4.977  0.00  0.00    +0.026 A 
ATOM      8  C   UNL     1       2.099  -2.949  -5.562  0.00  0.00    +0.002 A 
ATOM      9  C   UNL     1       3.238  -2.245  -5.909  0.00  0.00    +0.000 A 
ATOM     10  C   UNL     1       3.313  -0.885  -5.672  0.00  0.00    +0.006 A 
ATOM     11  C   UNL     1       2.248  -0.224  -5.093  0.00  0.00    -0.021 A 
BRANCH  11  12
ATOM     12  C   UNL     1       2.328   1.260  -4.841  0.00  0.00    +0.015 C 
ATOM     13  C   UNL     1       3.504   1.556  -3.908  0.00  0.00    +0.012 C 
ATOM     14  C   UNL     1       2.533   1.992  -6.168  0.00  0.00    +0.012 C 
ENDBRANCH  11  12
ENDBRANCH   5   6
BRANCH   4  15
ATOM     15  C   UNL     1      -1.280   0.371  -6.244  0.00  0.00    +0.038 A 
ATOM     16  C   UNL     1      -2.535   0.725  -6.753  0.00  0.00    +0.014 A 
ATOM     17  C   UNL     1      -2.702   0.753  -8.126  0.00  0.00    +0.020 A 
ATOM     18  C   UNL     1      -1.633   0.433  -8.944  0.00  0.00    +0.111 A 
ATOM     19  N   UNL     1      -0.461   0.103  -8.437  0.00  0.00    -0.263 NA
ATOM     20  C   UNL     1      -0.251   0.068  -7.137  0.00  0.00    +0.122 A 
ENDBRANCH   4  15
BRANCH   1  21
ATOM     21  S   UNL     1       0.851  -0.589  -1.490  0.00  0.00    -0.073 S 
BRANCH  21  23
ATOM     22  C   UNL     1      -0.019   1.526   0.010  0.00  0.00    +0.029 C 
ATOM     23  C   UNL     1       0.002  -0.004   0.002  0.00  0.00    +0.137 C 
BRANCH  23  24
ATOM     24  C   UNL     1       0.731  -0.503   1.223  0.00  0.00    +0.233 C 
ATOM     25  O   UNL     1       1.911  -0.775   1.156  0.00  0.00    -0.274 OA
ATOM     26  N   UNL     1       0.071  -0.647   2.389  0.00  0.00    -0.239 N 
ATOM     27  C   UNL     1       0.723  -1.094   3.481  0.00  0.00    +0.303 C 
ATOM     28  O   UNL     1       1.906  -1.367   3.414  0.00  0.00    -0.253 OA
ATOM     29  N   UNL     1       0.064  -1.238   4.648  0.00  0.00    -0.313 N 
ATOM     30  H   UNL     1      -0.872  -0.430   2.443  0.00  0.00    +0.159 HD
ATOM     31  H   UNL     1      -0.880  -1.020   4.702  0.00  0.00    +0.146 HD
ATOM     32  H   UNL     1       0.533  -1.559   5.434  0.00  0.00    +0.146 HD
ENDBRANCH  23  24
ENDBRANCH  21  23
ENDBRANCH   1  21
TORSDOF 6
