REMARK  Name = ZINC36852004
REMARK  5 active torsions:
REMARK  status: ('A' for Active; 'I' for Inactive)
REMARK    1  A    between atoms: C_5  and  O_7
REMARK    2  A    between atoms: C_10  and  N_12
REMARK    3  A    between atoms: N_12  and  C_13
REMARK    4  A    between atoms: C_16  and  S_19
REMARK    5  A    between atoms: S_19  and  N_22
REMARK                            x       y       z     vdW  Elec       q    Type
REMARK                         _______ _______ _______ _____ _____    ______ ____
ROOT
ATOM      1  N   UNL     1       4.188   2.385   1.320  0.00  0.00    -0.337 N 
ATOM      2  H   UNL     1       4.656   1.774   1.910  0.00  0.00    +0.147 HD
ENDROOT
BRANCH   1  11
ATOM      3  C   UNL     1      -0.017   1.377   0.010  0.00  0.00    +0.004 A 
ATOM      4  C   UNL     1       1.171   2.084   0.002  0.00  0.00    +0.006 A 
ATOM      5  C   UNL     1       2.383   1.415  -0.014  0.00  0.00    -0.021 A 
ATOM      6  C   UNL     1       2.407   0.033  -0.021  0.00  0.00    -0.001 A 
ATOM      7  C   UNL     1       1.214  -0.678  -0.014  0.00  0.00    +0.120 A 
ATOM      8  C   UNL     1       0.002  -0.004   0.002  0.00  0.00    +0.046 A 
ATOM      9  C   UNL     1       3.840  -0.454  -0.038  0.00  0.00    +0.041 C 
ATOM     10  C   UNL     1       4.676   0.766  -0.479  0.00  0.00    +0.032 C 
ATOM     11  C   UNL     1       3.799   1.951  -0.024  0.00  0.00    +0.101 C 
BRANCH   7  12
ATOM     12  O   UNL     1       1.234  -2.037  -0.021  0.00  0.00    -0.506 OA
ATOM     13  H   UNL     1       1.248  -2.435   0.860  0.00  0.00    +0.292 HD
ENDBRANCH   7  12
ENDBRANCH   1  11
BRANCH   1  14
ATOM     14  C   UNL     1       3.885   3.679   1.751  0.00  0.00    +0.028 A 
ATOM     15  C   UNL     1       3.210   4.553   0.909  0.00  0.00    +0.025 A 
ATOM     16  C   UNL     1       2.912   5.831   1.339  0.00  0.00    +0.030 A 
ATOM     17  C   UNL     1       3.285   6.241   2.606  0.00  0.00    +0.105 A 
ATOM     18  C   UNL     1       3.958   5.373   3.446  0.00  0.00    +0.030 A 
ATOM     19  C   UNL     1       4.254   4.092   3.025  0.00  0.00    +0.025 A 
BRANCH  17  20
ATOM     20  S   UNL     1       2.904   7.873   3.149  0.00  0.00    +0.056 S 
ATOM     21  O   UNL     1       3.840   8.190   4.170  0.00  0.00    -0.153 OA
ATOM     22  O   UNL     1       2.754   8.666   1.980  0.00  0.00    -0.153 OA
BRANCH  20  23
ATOM     23  N   UNL     1       1.416   7.813   3.874  0.00  0.00    -0.204 NA
ATOM     24  H   UNL     1       1.201   8.428   4.592  0.00  0.00    +0.144 HD
ATOM     25  H   UNL     1       0.760   7.162   3.580  0.00  0.00    +0.144 HD
ENDBRANCH  20  23
ENDBRANCH  17  20
ENDBRANCH   1  14
TORSDOF 5
