REMARK  Name = ZINC61849602
REMARK  7 active torsions:
REMARK  status: ('A' for Active; 'I' for Inactive)
REMARK    1  A    between atoms: C_1  and  C_2
REMARK    2  A    between atoms: C_2  and  C_4
REMARK    3  A    between atoms: C_2  and  N_8
REMARK    4  A    between atoms: N_6  and  C_7
REMARK    5  A    between atoms: N_8  and  C_9
REMARK    6  A    between atoms: C_12  and  C_16
REMARK    7  A    between atoms: C_16  and  N_18
REMARK                            x       y       z     vdW  Elec       q    Type
REMARK                         _______ _______ _______ _____ _____    ______ ____
ROOT
ATOM      1  C   UNL     1      -2.073  -0.647  -1.182  0.00  0.00    +0.029 A 
ATOM      2  C   UNL     1      -1.453  -0.337  -2.390  0.00  0.00    +0.023 A 
ATOM      3  C   UNL     1      -2.141  -0.470  -3.573  0.00  0.00    +0.013 A 
ATOM      4  C   UNL     1      -3.466  -0.918  -3.563  0.00  0.00    +0.021 A 
ATOM      5  C   UNL     1      -4.087  -1.228  -2.348  0.00  0.00    +0.052 A 
ATOM      6  C   UNL     1      -3.389  -1.097  -1.167  0.00  0.00    +0.043 A 
ATOM      7 CL   UNL     1      -5.732  -1.783  -2.328  0.00  0.00    -0.083 Cl
ENDROOT
BRANCH   1   8
ATOM      8  N   UNL     1      -1.372  -0.511   0.012  0.00  0.00    -0.333 N 
ATOM      9  H   UNL     1      -1.802  -0.730   0.854  0.00  0.00    +0.147 HD
BRANCH   8  11
ATOM     10  C   UNL     1       0.029   1.493  -0.014  0.00  0.00    +0.038 C 
ATOM     11  C   UNL     1       0.014  -0.037  -0.001  0.00  0.00    +0.154 C 
BRANCH  11  12
ATOM     12  C   UNL     1       0.727  -0.536   1.229  0.00  0.00    +0.233 C 
ATOM     13  O   UNL     1       0.136  -1.220   2.037  0.00  0.00    -0.274 OA
ATOM     14  N   UNL     1       2.022  -0.222   1.431  0.00  0.00    -0.317 N 
ATOM     15  C   UNL     1       2.716  -0.707   2.626  0.00  0.00    +0.128 C 
ATOM     16  H   UNL     1       2.495   0.325   0.784  0.00  0.00    +0.148 HD
ENDBRANCH  11  12
ENDBRANCH   8  11
ENDBRANCH   1   8
BRANCH   4  17
ATOM     17  C   UNL     1      -4.207  -1.061  -4.828  0.00  0.00    +0.078 C 
ATOM     18  S   UNL     1      -5.767  -1.766  -4.832  0.00  0.00    -0.035 S 
BRANCH  17  19
ATOM     19  N   UNL     1      -3.656  -0.637  -5.983  0.00  0.00    -0.352 N 
ATOM     20  H   UNL     1      -2.745  -0.304  -5.993  0.00  0.00    +0.143 HD
ATOM     21  H   UNL     1      -4.171  -0.664  -6.805  0.00  0.00    +0.143 HD
ENDBRANCH  17  19
ENDBRANCH   4  17
TORSDOF 5
