REMARK  Name = ZINC15105684
REMARK  15 active torsions:
REMARK  status: ('A' for Active; 'I' for Inactive)
REMARK    1  A    between atoms: C_1  and  C_2
REMARK    2  A    between atoms: C_2  and  C_3
REMARK    3  A    between atoms: C_2  and  C_4
REMARK    4  A    between atoms: C_4  and  N_5
REMARK    5  A    between atoms: C_6  and  N_37
REMARK    6  A    between atoms: C_7  and  N_14
REMARK    7  A    between atoms: N_14  and  C_15
REMARK    8  A    between atoms: C_15  and  C_16
REMARK    9  A    between atoms: C_16  and  C_17
REMARK   10  A    between atoms: C_16  and  C_18
REMARK   11  A    between atoms: C_19  and  C_21
REMARK   12  A    between atoms: C_21  and  N_77
REMARK   13  A    between atoms: C_27  and  C_29
REMARK   14  A    between atoms: C_32  and  O_35
REMARK   15  A    between atoms: O_35  and  C_36
REMARK                            x       y       z     vdW  Elec       q    Type
REMARK                         _______ _______ _______ _____ _____    ______ ____
ROOT
ATOM      1  N   UNL     1      -4.617  -2.984   3.811  0.00  0.00    -0.266 N 
ATOM      2  C   UNL     1      -4.426  -1.941   2.977  0.00  0.00    +0.203 C 
ATOM      3  O   UNL     1      -3.377  -1.331   2.999  0.00  0.00    -0.277 OA
ENDROOT
BRANCH   1   6
ATOM      4  N   UNL     1      -8.149  -3.974   4.021  0.00  0.00    -0.280 N 
ATOM      5  C   UNL     1      -7.011  -3.209   4.120  0.00  0.00    +0.127 A 
ATOM      6  C   UNL     1      -5.802  -3.746   3.728  0.00  0.00    +0.140 A 
ATOM      7  C   UNL     1      -5.770  -5.069   3.248  0.00  0.00    +0.277 A 
ATOM      8  O   UNL     1      -4.715  -5.570   2.899  0.00  0.00    -0.266 OA
ATOM      9  N   UNL     1      -6.914  -5.778   3.176  0.00  0.00    -0.273 N 
ATOM     10  H   UNL     1      -6.892  -6.718   2.836  0.00  0.00    +0.173 HD
ATOM     11  C   UNL     1      -8.084  -5.236   3.558  0.00  0.00    +0.331 A 
ATOM     12  O   UNL     1      -9.101  -5.898   3.483  0.00  0.00    -0.246 OA
BRANCH   5  13
ATOM     13  N   UNL     1      -7.077  -1.923   4.599  0.00  0.00    -0.343 N 
ATOM     14  H   UNL     1      -6.276  -1.377   4.637  0.00  0.00    +0.144 HD
ATOM     15  H   UNL     1      -7.926  -1.560   4.899  0.00  0.00    +0.144 HD
ENDBRANCH   5  13
BRANCH   4  16
ATOM     16  C   UNL     1      -9.441  -3.415   4.429  0.00  0.00    +0.131 C 
BRANCH  16  18
ATOM     17  C   UNL     1      -8.629  -2.958   6.748  0.00  0.00    +0.009 C 
ATOM     18  C   UNL     1      -9.675  -3.702   5.914  0.00  0.00    +0.003 C 
ATOM     19  C   UNL     1     -11.074  -3.229   6.310  0.00  0.00    +0.009 C 
ENDBRANCH  16  18
ENDBRANCH   4  16
ENDBRANCH   1   6
BRANCH   1  20
ATOM     20  C   UNL     1      -3.595  -3.326   4.803  0.00  0.00    +0.117 C 
BRANCH  20  21
ATOM     21  C   UNL     1      -3.940  -2.666   6.140  0.00  0.00    +0.001 C 
ATOM     22  C   UNL     1      -2.970  -3.156   7.216  0.00  0.00    +0.009 C 
ATOM     23  C   UNL     1      -3.825  -1.147   6.003  0.00  0.00    +0.009 C 
ENDBRANCH  20  21
ENDBRANCH   1  20
BRANCH   2  24
ATOM     24  C   UNL     1      -5.515  -1.533   2.019  0.00  0.00    +0.020 C 
BRANCH  24  31
ATOM     25  C   UNL     1      -5.565   0.892   2.179  0.00  0.00    -0.077 C 
ATOM     26  C   UNL     1      -5.455   2.195   1.436  0.00  0.00    -0.019 C 
ATOM     27  C   UNL     1      -6.821   2.507   0.790  0.00  0.00    -0.002 C 
ATOM     28  C   UNL     1      -7.042   1.738  -0.430  0.00  0.00    -0.001 C 
ATOM     29  C   UNL     1      -7.039   0.217  -0.168  0.00  0.00    -0.011 C 
ATOM     30  C   UNL     1      -5.614  -0.246  -0.040  0.00  0.00    -0.037 C 
ATOM     31  N   UNL     1      -5.090  -0.283   1.369  0.00  0.00    +0.390 N 
ATOM     32  H   UNL     1      -4.065  -0.259   1.334  0.00  0.00    -0.080 HD
BRANCH  30  33
ATOM     33  C   UNL     1      -5.500  -1.632  -0.623  0.00  0.00    -0.061 A 
ATOM     34  C   UNL     1      -6.618  -2.441  -0.704  0.00  0.00    +0.005 A 
ATOM     35  C   UNL     1      -6.516  -3.709  -1.242  0.00  0.00    +0.046 A 
ATOM     36  C   UNL     1      -5.289  -4.175  -1.692  0.00  0.00    +0.120 A 
ATOM     37  C   UNL     1      -4.168  -3.363  -1.604  0.00  0.00    +0.046 A 
ATOM     38  C   UNL     1      -4.275  -2.093  -1.070  0.00  0.00    +0.005 A 
BRANCH  36  39
ATOM     39  O   UNL     1      -5.186  -5.423  -2.217  0.00  0.00    -0.495 OA
ATOM     40  C   UNL     1      -6.382  -6.203  -2.276  0.00  0.00    +0.277 C 
ENDBRANCH  36  39
ENDBRANCH  30  33
ENDBRANCH  24  31
ENDBRANCH   2  24
TORSDOF 10
