REMARK  Name = ZINC64870493
REMARK  10 active torsions:
REMARK  status: ('A' for Active; 'I' for Inactive)
REMARK    1  A    between atoms: C_1  and  O_2
REMARK    2  A    between atoms: O_2  and  C_3
REMARK    3  A    between atoms: C_8  and  C_9
REMARK    4  A    between atoms: C_9  and  N_10
REMARK    5  A    between atoms: C_16  and  C_23
REMARK    6  A    between atoms: C_26  and  C_30
REMARK    7  A    between atoms: C_34  and  O_38
REMARK    8  A    between atoms: C_35  and  O_36
REMARK    9  A    between atoms: O_36  and  C_37
REMARK   10  A    between atoms: O_38  and  C_39
REMARK                            x       y       z     vdW  Elec       q    Type
REMARK                         _______ _______ _______ _____ _____    ______ ____
ROOT
ATOM      1  N   UNL     1      -0.842  -4.033  -0.566  0.00  0.00    -0.256 N 
ATOM      2  C   UNL     1      -1.508  -3.033   0.051  0.00  0.00    +0.265 A 
ATOM      3  O   UNL     1      -0.920  -2.235   0.756  0.00  0.00    -0.267 OA
ATOM      4  C   UNL     1      -2.964  -2.933  -0.153  0.00  0.00    +0.063 A 
ATOM      5  C   UNL     1      -3.721  -1.929   0.448  0.00  0.00    +0.016 A 
ATOM      6  C   UNL     1      -5.081  -1.879   0.225  0.00  0.00    +0.008 A 
ATOM      7  C   UNL     1      -5.694  -2.818  -0.590  0.00  0.00    -0.000 A 
ATOM      8  C   UNL     1      -4.955  -3.817  -1.192  0.00  0.00    +0.034 A 
ATOM      9  C   UNL     1      -3.587  -3.884  -0.980  0.00  0.00    +0.056 A 
ATOM     10  N   UNL     1      -2.808  -4.871  -1.565  0.00  0.00    -0.307 N 
ATOM     11  H   UNL     1      -3.223  -5.535  -2.138  0.00  0.00    +0.170 HD
ATOM     12  C   UNL     1      -1.481  -4.915  -1.350  0.00  0.00    +0.330 A 
ATOM     13  O   UNL     1      -0.834  -5.793  -1.886  0.00  0.00    -0.246 OA
ENDROOT
BRANCH   7  14
ATOM     14  C   UNL     1      -7.181  -2.748  -0.822  0.00  0.00    +0.242 C 
ATOM     15  N   UNL     1      -7.804  -4.050  -0.493  0.00  0.00    -0.265 NA
ATOM     16  C   UNL     1      -8.866  -4.212  -1.522  0.00  0.00    +0.184 C 
ATOM     17  N   UNL     1      -8.229  -3.622  -2.729  0.00  0.00    -0.177 NA
ATOM     18  O   UNL     1      -7.448  -2.482  -2.207  0.00  0.00    -0.274 OA
ATOM     19  H   UNL     1      -7.129  -4.798  -0.549  0.00  0.00    +0.127 HD
ATOM     20  H   UNL     1      -8.925  -3.309  -3.389  0.00  0.00    +0.156 HD
BRANCH  16  21
ATOM     21  C   UNL     1      -9.186  -5.669  -1.738  0.00  0.00    +0.031 A 
ATOM     22  C   UNL     1      -8.918  -6.590  -0.742  0.00  0.00    +0.010 A 
ATOM     23  C   UNL     1      -9.210  -7.927  -0.936  0.00  0.00    +0.004 A 
ATOM     24  C   UNL     1      -9.771  -8.350  -2.128  0.00  0.00    +0.049 A 
ATOM     25  C   UNL     1     -10.042  -7.432  -3.129  0.00  0.00    +0.162 A 
ATOM     26  C   UNL     1      -9.754  -6.084  -2.931  0.00  0.00    +0.167 A 
BRANCH  26  27
ATOM     27  O   UNL     1     -10.023  -5.179  -3.909  0.00  0.00    -0.491 OA
ATOM     28  C   UNL     1     -11.351  -4.654  -3.959  0.00  0.00    +0.277 C 
ENDBRANCH  26  27
BRANCH  25  29
ATOM     29  O   UNL     1     -10.594  -7.845  -4.301  0.00  0.00    -0.491 OA
ATOM     30  C   UNL     1     -10.868  -9.242  -4.432  0.00  0.00    +0.277 C 
ENDBRANCH  25  29
ENDBRANCH  16  21
ENDBRANCH   7  14
BRANCH   1  31
ATOM     31  C   UNL     1       0.606  -4.154  -0.380  0.00  0.00    +0.168 C 
BRANCH  31  37
ATOM     32  C   UNL     1       1.450  -1.979  -1.298  0.00  0.00    +0.125 A 
ATOM     33  C   UNL     1       2.110  -1.244  -2.273  0.00  0.00    +0.046 A 
ATOM     34  C   UNL     1       2.629  -1.881  -3.383  0.00  0.00    +0.004 A 
ATOM     35  C   UNL     1       2.491  -3.250  -3.523  0.00  0.00    +0.001 A 
ATOM     36  C   UNL     1       1.833  -3.984  -2.554  0.00  0.00    +0.009 A 
ATOM     37  C   UNL     1       1.317  -3.353  -1.439  0.00  0.00    +0.014 A 
BRANCH  32  39
ATOM     38  C   UNL     1       1.111   0.061  -0.126  0.00  0.00    +0.277 C 
ATOM     39  O   UNL     1       0.938  -1.355  -0.205  0.00  0.00    -0.495 OA
ENDBRANCH  32  39
ENDBRANCH  31  37
ENDBRANCH   1  31
TORSDOF 7
