REMARK  Name = ZINC34762337
REMARK  12 active torsions:
REMARK  status: ('A' for Active; 'I' for Inactive)
REMARK    1  A    between atoms: C_1  and  C_2
REMARK    2  A    between atoms: C_2  and  C_3
REMARK    3  A    between atoms: C_4  and  C_35
REMARK    4  A    between atoms: C_8  and  N_19
REMARK    5  A    between atoms: C_10  and  S_12
REMARK    6  A    between atoms: S_12  and  C_13
REMARK    7  A    between atoms: C_13  and  C_14
REMARK    8  A    between atoms: N_16  and  C_17
REMARK    9  A    between atoms: N_16  and  C_18
REMARK   10  A    between atoms: N_22  and  C_25
REMARK   11  A    between atoms: C_25  and  C_26
REMARK   12  A    between atoms: N_28  and  C_29
REMARK                            x       y       z     vdW  Elec       q    Type
REMARK                         _______ _______ _______ _____ _____    ______ ____
ROOT
ATOM      1  C   UNL     1      -2.812   1.878  -2.398  0.00  0.00    -0.025 A 
ATOM      2  C   UNL     1      -3.919   2.623  -2.269  0.00  0.00    -0.007 A 
ATOM      3  S   UNL     1      -5.199   1.420  -1.968  0.00  0.00    -0.073 S 
ATOM      4  C   UNL     1      -4.212  -0.053  -2.023  0.00  0.00    +0.115 A 
ATOM      5  C   UNL     1      -2.912   0.433  -2.281  0.00  0.00    +0.051 A 
ATOM      6  C   UNL     1      -1.897  -0.559  -2.382  0.00  0.00    +0.134 A 
ATOM      7  N   UNL     1      -2.220  -1.833  -2.238  0.00  0.00    -0.206 NA
ATOM      8  C   UNL     1      -3.467  -2.223  -2.002  0.00  0.00    +0.191 A 
ATOM      9  N   UNL     1      -4.452  -1.342  -1.888  0.00  0.00    -0.214 NA
ATOM     10  C   UNL     1      -4.049   4.122  -2.358  0.00  0.00    +0.052 C 
ENDROOT
BRANCH   6  11
ATOM     11  N   UNL     1      -0.586  -0.194  -2.628  0.00  0.00    -0.318 N 
ATOM     12  C   UNL     1       0.357   0.033  -1.522  0.00  0.00    +0.088 C 
ATOM     13  C   UNL     1       1.631  -0.773  -1.796  0.00  0.00    -0.059 C 
ATOM     14  N   UNL     1       2.156  -0.421  -3.121  0.00  0.00    +0.387 N 
ATOM     15  C   UNL     1       1.201  -0.826  -4.161  0.00  0.00    -0.059 C 
ATOM     16  C   UNL     1      -0.093  -0.028  -4.004  0.00  0.00    +0.088 C 
ATOM     17  H   UNL     1       2.302   0.576  -3.170  0.00  0.00    -0.081 HD
BRANCH  14  18
ATOM     18  C   UNL     1       3.434  -1.111  -3.338  0.00  0.00    +0.019 C 
BRANCH  18  19
ATOM     19  C   UNL     1       4.035  -0.657  -4.643  0.00  0.00    +0.197 C 
ATOM     20  O   UNL     1       3.455   0.160  -5.326  0.00  0.00    -0.278 OA
ATOM     21  N   UNL     1       5.217  -1.160  -5.053  0.00  0.00    -0.314 N 
ATOM     22  H   UNL     1       5.681  -1.813  -4.506  0.00  0.00    +0.149 HD
BRANCH  21  23
ATOM     23  C   UNL     1       5.800  -0.719  -6.322  0.00  0.00    +0.073 C 
ATOM     24  C   UNL     1       5.217  -1.549  -7.467  0.00  0.00    +0.022 C 
ATOM     25  C   UNL     1       5.827  -1.088  -8.793  0.00  0.00    +0.002 C 
ATOM     26  C   UNL     1       7.345  -1.275  -8.748  0.00  0.00    +0.000 C 
ATOM     27  C   UNL     1       7.928  -0.445  -7.603  0.00  0.00    +0.002 C 
ATOM     28  C   UNL     1       7.318  -0.906  -6.277  0.00  0.00    +0.022 C 
ENDBRANCH  21  23
ENDBRANCH  18  19
ENDBRANCH  14  18
ENDBRANCH   6  11
BRANCH   1  30
ATOM     29  C   UNL     1      -1.331   2.783  -4.170  0.00  0.00    +0.009 C 
ATOM     30  C   UNL     1      -1.481   2.530  -2.668  0.00  0.00    +0.033 C 
ENDBRANCH   1  30
BRANCH   8  31
ATOM     31  S   UNL     1      -3.817  -3.940  -1.823  0.00  0.00    -0.077 S 
BRANCH  31  32
ATOM     32  C   UNL     1      -5.604  -3.994  -1.518  0.00  0.00    +0.173 C 
BRANCH  32  33
ATOM     33  C   UNL     1      -6.041  -5.426  -1.345  0.00  0.00    +0.225 C 
ATOM     34  O   UNL     1      -5.227  -6.322  -1.419  0.00  0.00    -0.275 OA
ATOM     35  N   UNL     1      -7.337  -5.711  -1.107  0.00  0.00    -0.307 N 
ATOM     36  C   UNL     1      -7.761  -7.103  -0.939  0.00  0.00    +0.131 C 
ATOM     37  C   UNL     1      -8.320  -4.630  -1.018  0.00  0.00    +0.131 C 
ENDBRANCH  32  33
ENDBRANCH  31  32
ENDBRANCH   8  31
TORSDOF 8
