REMARK  Name = ZINC10355489
REMARK  9 active torsions:
REMARK  status: ('A' for Active; 'I' for Inactive)
REMARK    1  A    between atoms: C_1  and  C_2
REMARK    2  A    between atoms: C_6  and  N_8
REMARK    3  A    between atoms: C_9  and  C_35
REMARK    4  A    between atoms: C_10  and  C_26
REMARK    5  A    between atoms: C_11  and  C_16
REMARK    6  A    between atoms: C_21  and  O_22
REMARK    7  A    between atoms: O_22  and  C_23
REMARK    8  A    between atoms: C_23  and  C_24
REMARK    9  A    between atoms: C_31  and  C_34
REMARK                            x       y       z     vdW  Elec       q    Type
REMARK                         _______ _______ _______ _____ _____    ______ ____
ROOT
ATOM      1  N   UNL     1      -2.038   2.322   1.330  0.00  0.00    -0.255 N 
ATOM      2  C   UNL     1      -0.689   2.472   1.491  0.00  0.00    +0.025 C 
ATOM      3  C   UNL     1      -0.118   2.375   2.711  0.00  0.00    +0.056 C 
ATOM      4  C   UNL     1      -1.023   2.088   3.892  0.00  0.00    +0.143 C 
ATOM      5  N   UNL     1      -2.460   1.938   3.611  0.00  0.00    -0.315 N 
ATOM      6  C   UNL     1      -2.881   2.063   2.337  0.00  0.00    +0.142 C 
ATOM      7  S   UNL     1      -4.550   1.891   1.995  0.00  0.00    -0.018 S 
ATOM      8  C   UNL     1       0.175   2.757   0.289  0.00  0.00    +0.062 C 
ATOM      9  H   UNL     1      -3.090   1.754   4.326  0.00  0.00    +0.149 HD
ENDROOT
BRANCH   3  10
ATOM     10  C   UNL     1       1.279   2.535   2.880  0.00  0.00    +0.249 C 
ATOM     11  O   UNL     1       1.721   3.570   3.346  0.00  0.00    -0.270 OA
ATOM     12  N   UNL     1       2.119   1.543   2.526  0.00  0.00    -0.264 N 
ATOM     13  C   UNL     1       3.482   1.655   2.792  0.00  0.00    +0.168 A 
ATOM     14  C   UNL     1       4.126   2.689   3.524  0.00  0.00    +0.091 A 
ATOM     15  C   UNL     1       5.433   2.342   3.498  0.00  0.00    +0.136 A 
ATOM     16  O   UNL     1       5.512   1.198   2.802  0.00  0.00    -0.358 OA
ATOM     17  N   UNL     1       4.425   0.828   2.423  0.00  0.00    -0.063 NA
ATOM     18  C   UNL     1       6.577   3.094   4.127  0.00  0.00    +0.089 C 
ATOM     19  H   UNL     1       1.774   0.750   2.086  0.00  0.00    +0.157 HD
ENDBRANCH   3  10
BRANCH   1  25
ATOM     20  C   UNL     1      -4.626   4.896  -1.966  0.00  0.00    +0.044 C 
ATOM     21  C   UNL     1      -3.824   3.678  -1.586  0.00  0.00    -0.049 A 
ATOM     22  C   UNL     1      -3.609   2.675  -2.514  0.00  0.00    +0.003 A 
ATOM     23  C   UNL     1      -2.874   1.556  -2.169  0.00  0.00    +0.002 A 
ATOM     24  C   UNL     1      -2.348   1.438  -0.897  0.00  0.00    +0.024 A 
ATOM     25  C   UNL     1      -2.566   2.441   0.038  0.00  0.00    +0.040 A 
ATOM     26  C   UNL     1      -3.305   3.564  -0.311  0.00  0.00    +0.027 A 
ENDBRANCH   1  25
BRANCH   4  27
ATOM     27  C   UNL     1      -0.543   0.819   4.547  0.00  0.00    +0.019 A 
ATOM     28  C   UNL     1      -1.070  -0.399   4.164  0.00  0.00    +0.009 A 
ATOM     29  C   UNL     1      -0.627  -1.564   4.762  0.00  0.00    +0.001 A 
ATOM     30  C   UNL     1       0.338  -1.513   5.751  0.00  0.00    +0.004 A 
ATOM     31  C   UNL     1       0.865  -0.297   6.141  0.00  0.00    +0.046 A 
ATOM     32  C   UNL     1       0.425   0.873   5.540  0.00  0.00    +0.127 A 
BRANCH  32  33
ATOM     33  O   UNL     1       0.942   2.071   5.921  0.00  0.00    -0.479 OA
BRANCH  33  34
ATOM     34  C   UNL     1       2.007   2.043   6.874  0.00  0.00    +0.317 C 
BRANCH  34  35
ATOM     35  C   UNL     1       2.390   3.422   7.221  0.00  0.00    -0.065 C 
ATOM     36  C   UNL     1       2.696   4.521   7.497  0.00  0.00    +0.007 C 
ENDBRANCH  34  35
ENDBRANCH  33  34
ENDBRANCH  32  33
ENDBRANCH   4  27
TORSDOF 6
