REMARK  Name = ZINC05794524
REMARK  12 active torsions:
REMARK  status: ('A' for Active; 'I' for Inactive)
REMARK    1  A    between atoms: C_1  and  C_2
REMARK    2  A    between atoms: C_5  and  O_8
REMARK    3  A    between atoms: O_8  and  C_9
REMARK    4  A    between atoms: C_9  and  C_10
REMARK    5  A    between atoms: N_12  and  C_13
REMARK    6  A    between atoms: C_13  and  N_15
REMARK    7  A    between atoms: N_15  and  C_16
REMARK    8  A    between atoms: C_18  and  C_24
REMARK    9  A    between atoms: C_21  and  O_22
REMARK   10  A    between atoms: C_24  and  C_25
REMARK   11  A    between atoms: C_24  and  C_26
REMARK   12  A    between atoms: C_24  and  C_27
REMARK                            x       y       z     vdW  Elec       q    Type
REMARK                         _______ _______ _______ _____ _____    ______ ____
ROOT
ATOM      1  C   UNL     1      -0.025   1.751  -0.236  0.00  0.00    +0.141 C 
ATOM      2  S   UNL     1       0.004   0.074  -0.580  0.00  0.00    -0.018 S 
ENDROOT
BRANCH   1   5
ATOM      3  C   UNL     1       2.293   1.845  -0.488  0.00  0.00    +0.256 C 
ATOM      4  O   UNL     1       2.314   0.657  -0.732  0.00  0.00    -0.272 OA
ATOM      5  N   UNL     1       1.122   2.458  -0.226  0.00  0.00    -0.265 N 
ATOM      6  H   UNL     1       1.105   3.408  -0.031  0.00  0.00    +0.157 HD
BRANCH   3   7
ATOM      7  C   UNL     1       3.576   2.635  -0.478  0.00  0.00    +0.324 C 
BRANCH   7   8
ATOM      8  O   UNL     1       4.672   1.768  -0.782  0.00  0.00    -0.483 OA
BRANCH   8  13
ATOM      9  C   UNL     1       9.804   4.085  -0.911  0.00  0.00    +0.044 C 
ATOM     10  C   UNL     1       8.431   3.465  -0.877  0.00  0.00    -0.050 A 
ATOM     11  C   UNL     1       8.276   2.115  -1.133  0.00  0.00    +0.007 A 
ATOM     12  C   UNL     1       7.019   1.545  -1.102  0.00  0.00    +0.046 A 
ATOM     13  C   UNL     1       5.910   2.327  -0.813  0.00  0.00    +0.121 A 
ATOM     14  C   UNL     1       6.067   3.683  -0.562  0.00  0.00    +0.046 A 
ATOM     15  C   UNL     1       7.328   4.247  -0.588  0.00  0.00    +0.007 A 
ENDBRANCH   8  13
ENDBRANCH   7   8
ENDBRANCH   3   7
ENDBRANCH   1   5
BRANCH   1  16
ATOM     16  N   UNL     1      -1.197   2.366   0.021  0.00  0.00    -0.294 N 
ATOM     17  H   UNL     1      -1.209   3.301   0.277  0.00  0.00    +0.154 HD
BRANCH  16  18
ATOM     18  C   UNL     1      -2.399   1.653  -0.083  0.00  0.00    +0.076 A 
ATOM     19  C   UNL     1      -2.518   0.401   0.501  0.00  0.00    +0.031 A 
ATOM     20  C   UNL     1      -3.704  -0.300   0.398  0.00  0.00    -0.039 A 
ATOM     21  C   UNL     1      -4.775   0.243  -0.288  0.00  0.00    +0.028 A 
ATOM     22  C   UNL     1      -4.665   1.491  -0.874  0.00  0.00    +0.084 A 
ATOM     23  C   UNL     1      -3.480   2.203  -0.769  0.00  0.00    +0.156 A 
ATOM     24 CL   UNL     1      -6.012   2.170  -1.733  0.00  0.00    -0.080 Cl
BRANCH  20  25
ATOM     25  C   UNL     1      -3.831  -1.661   1.034  0.00  0.00    -0.013 C 
ATOM     26  C   UNL     1      -3.600  -1.542   2.542  0.00  0.00    +0.015 C 
ATOM     27  C   UNL     1      -5.233  -2.216   0.775  0.00  0.00    +0.015 C 
ATOM     28  C   UNL     1      -2.789  -2.605   0.431  0.00  0.00    +0.015 C 
ENDBRANCH  20  25
BRANCH  23  29
ATOM     29  O   UNL     1      -3.371   3.433  -1.339  0.00  0.00    -0.504 OA
ATOM     30  H   UNL     1      -3.054   3.417  -2.252  0.00  0.00    +0.292 HD
ENDBRANCH  23  29
ENDBRANCH  16  18
ENDBRANCH   1  16
TORSDOF 8
