REMARK  Name = ZINC14462385
REMARK  14 active torsions:
REMARK  status: ('A' for Active; 'I' for Inactive)
REMARK    1  A    between atoms: C_1  and  C_2
REMARK    2  A    between atoms: C_2  and  N_3
REMARK    3  A    between atoms: N_3  and  C_4
REMARK    4  A    between atoms: N_3  and  C_6
REMARK    5  A    between atoms: C_4  and  C_5
REMARK    6  A    between atoms: C_6  and  C_7
REMARK    7  A    between atoms: C_7  and  N_8
REMARK    8  A    between atoms: C_9  and  C_11
REMARK    9  A    between atoms: C_24  and  C_27
REMARK   10  A    between atoms: C_30  and  N_33
REMARK   11  A    between atoms: N_33  and  C_34
REMARK   12  A    between atoms: N_33  and  C_36
REMARK   13  A    between atoms: C_34  and  C_35
REMARK   14  A    between atoms: C_36  and  C_37
REMARK                            x       y       z     vdW  Elec       q    Type
REMARK                         _______ _______ _______ _____ _____    ______ ____
ROOT
ATOM      1  C   UNL     1      -4.038  -6.250   0.289  0.00  0.00    +0.037 A 
ATOM      2  C   UNL     1      -2.837  -6.920   0.540  0.00  0.00    +0.015 A 
ATOM      3  C   UNL     1      -2.840  -8.286   0.696  0.00  0.00    +0.024 A 
ATOM      4  C   UNL     1      -4.034  -9.003   0.607  0.00  0.00    +0.031 A 
ATOM      5  C   UNL     1      -5.230  -8.344   0.370  0.00  0.00    -0.019 A 
ATOM      6  C   UNL     1      -5.231  -6.970   0.210  0.00  0.00    +0.019 A 
ATOM      7  C   UNL     1      -6.545  -9.068   0.301  0.00  0.00    +0.049 C 
ATOM      8  C   UNL     1      -7.515  -8.359   1.234  0.00  0.00    -0.023 C 
ATOM      9  C   UNL     1      -7.642  -9.020   2.355  0.00  0.00    -0.030 C 
ATOM     10  C   UNL     1      -6.791 -10.273   2.344  0.00  0.00    +0.033 C 
ATOM     11  C   UNL     1      -6.471 -10.497   0.832  0.00  0.00    +0.029 C 
ATOM     12  C   UNL     1      -5.175 -11.215   0.606  0.00  0.00    +0.105 C 
ATOM     13  N   UNL     1      -3.999 -10.380   0.753  0.00  0.00    -0.336 N 
ATOM     14  H   UNL     1      -3.147 -10.805   0.939  0.00  0.00    +0.147 HD
ENDROOT
BRANCH  12  15
ATOM     15  C   UNL     1      -5.066 -12.332   1.611  0.00  0.00    -0.027 A 
ATOM     16  C   UNL     1      -4.670 -12.059   2.907  0.00  0.00    +0.007 A 
ATOM     17  C   UNL     1      -4.571 -13.083   3.830  0.00  0.00    +0.022 A 
ATOM     18  C   UNL     1      -4.868 -14.381   3.457  0.00  0.00    +0.013 A 
ATOM     19  C   UNL     1      -5.265 -14.654   2.162  0.00  0.00    +0.022 A 
ATOM     20  C   UNL     1      -5.369 -13.629   1.240  0.00  0.00    +0.007 A 
BRANCH  18  21
ATOM     21  N   UNL     1      -4.767 -15.417   4.390  0.00  0.00    -0.394 NA
ATOM     22  H   UNL     1      -4.467 -15.042   5.278  0.00  0.00    +0.126 HD
BRANCH  21  23
ATOM     23  C   UNL     1      -6.077 -16.062   4.549  0.00  0.00    +0.081 C 
ATOM     24  C   UNL     1      -5.997 -17.112   5.659  0.00  0.00    +0.022 C 
ENDBRANCH  21  23
BRANCH  21  25
ATOM     25  C   UNL     1      -3.788 -16.406   3.920  0.00  0.00    +0.081 C 
ATOM     26  C   UNL     1      -2.399 -15.766   3.873  0.00  0.00    +0.022 C 
ENDBRANCH  21  25
ENDBRANCH  18  21
ENDBRANCH  12  15
BRANCH   1  28
ATOM     27  N   UNL     1      -2.893  -4.092   0.191  0.00  0.00    -0.313 N 
ATOM     28  C   UNL     1      -4.046  -4.785   0.114  0.00  0.00    +0.244 C 
ATOM     29  O   UNL     1      -5.092  -4.204  -0.099  0.00  0.00    -0.270 OA
ATOM     30  H   UNL     1      -2.058  -4.556   0.361  0.00  0.00    +0.149 HD
BRANCH  27  31
ATOM     31  C   UNL     1      -2.900  -2.637   0.017  0.00  0.00    +0.086 C 
BRANCH  31  32
ATOM     32  C   UNL     1      -1.473  -2.100   0.150  0.00  0.00    -0.060 C 
BRANCH  32  33
ATOM     33  N   UNL     1      -1.462  -0.661  -0.144  0.00  0.00    +0.380 N 
ATOM     34  H   UNL     1      -1.871  -0.500  -1.053  0.00  0.00    -0.082 HD
BRANCH  33  36
ATOM     35  C   UNL     1      -2.333   1.534   0.503  0.00  0.00    -0.017 C 
ATOM     36  C   UNL     1      -2.240   0.053   0.876  0.00  0.00    -0.082 C 
ENDBRANCH  33  36
BRANCH  33  37
ATOM     37  C   UNL     1      -0.077  -0.171  -0.137  0.00  0.00    -0.082 C 
ATOM     38  C   UNL     1       0.692  -0.798  -1.301  0.00  0.00    -0.017 C 
ENDBRANCH  33  37
ENDBRANCH  32  33
ENDBRANCH  31  32
ENDBRANCH  27  31
ENDBRANCH   1  28
TORSDOF 10
