REMARK  Name = ZINC59170458
REMARK  8 active torsions:
REMARK  status: ('A' for Active; 'I' for Inactive)
REMARK    1  A    between atoms: C_1  and  C_2
REMARK    2  A    between atoms: C_5  and  S_8
REMARK    3  A    between atoms: S_8  and  N_11
REMARK    4  A    between atoms: N_11  and  N_12
REMARK    5  A    between atoms: C_14  and  C_24
REMARK    6  A    between atoms: C_18  and  C_23
REMARK    7  A    between atoms: N_26  and  C_27
REMARK    8  A    between atoms: C_32  and  C_33
REMARK                            x       y       z     vdW  Elec       q    Type
REMARK                         _______ _______ _______ _____ _____    ______ ____
ROOT
ATOM      1  N   UNL     1       2.930  -3.930   0.130  0.00  0.00    -0.260 N 
ATOM      2  C   UNL     1       4.145  -4.399   0.167  0.00  0.00    +0.225 A 
ATOM      3  C   UNL     1       4.985  -4.250   1.377  0.00  0.00    +0.099 A 
ATOM      4  C   UNL     1       5.968  -5.189   1.580  0.00  0.00    +0.030 A 
ATOM      5  C   UNL     1       6.104  -6.258   0.583  0.00  0.00    +0.018 A 
ATOM      6  C   UNL     1       6.887  -7.386   0.848  0.00  0.00    +0.015 A 
ATOM      7  C   UNL     1       6.996  -8.378  -0.102  0.00  0.00    -0.050 A 
ATOM      8  C   UNL     1       6.335  -8.263  -1.315  0.00  0.00    +0.007 A 
ATOM      9  C   UNL     1       5.559  -7.153  -1.590  0.00  0.00    +0.047 A 
ATOM     10  C   UNL     1       5.437  -6.144  -0.650  0.00  0.00    +0.137 A 
ATOM     11  O   UNL     1       4.682  -5.049  -0.907  0.00  0.00    -0.437 OA
ATOM     12  C   UNL     1       7.839  -9.595   0.179  0.00  0.00    +0.044 C 
ATOM     13  H   UNL     1       2.535  -3.542   0.926  0.00  0.00    +0.189 HD
ENDROOT
BRANCH   3  14
ATOM     14  C   UNL     1       4.776  -3.142   2.324  0.00  0.00    +0.253 C 
ATOM     15  O   UNL     1       3.855  -2.365   2.157  0.00  0.00    -0.270 OA
ATOM     16  N   UNL     1       5.604  -2.989   3.376  0.00  0.00    -0.281 N 
ATOM     17  H   UNL     1       6.377  -3.567   3.473  0.00  0.00    +0.155 HD
BRANCH  16  18
ATOM     18  C   UNL     1       5.350  -1.997   4.328  0.00  0.00    +0.037 A 
ATOM     19  C   UNL     1       4.077  -1.453   4.443  0.00  0.00    +0.023 A 
ATOM     20  C   UNL     1       3.829  -0.473   5.384  0.00  0.00    +0.002 A 
ATOM     21  C   UNL     1       4.847  -0.033   6.211  0.00  0.00    +0.000 A 
ATOM     22  C   UNL     1       6.115  -0.572   6.098  0.00  0.00    +0.005 A 
ATOM     23  C   UNL     1       6.368  -1.557   5.164  0.00  0.00    -0.029 A 
ATOM     24  C   UNL     1       7.749  -2.149   5.047  0.00  0.00    +0.045 C 
ENDBRANCH  16  18
ENDBRANCH   3  14
BRANCH   1  25
ATOM     25  N   UNL     1       2.194  -3.986  -1.061  0.00  0.00    -0.157 N 
ATOM     26  H   UNL     1       2.559  -4.439  -1.837  0.00  0.00    +0.194 HD
BRANCH  25  27
ATOM     27  S   UNL     1       0.699  -3.277  -1.144  0.00  0.00    +0.085 S 
ATOM     28  O   UNL     1      -0.052  -3.785  -0.050  0.00  0.00    -0.149 OA
ATOM     29  O   UNL     1       0.264  -3.403  -2.491  0.00  0.00    -0.149 OA
BRANCH  27  34
ATOM     30  C   UNL     1       1.457   2.621  -0.122  0.00  0.00    +0.044 C 
ATOM     31  C   UNL     1       1.268   1.147  -0.377  0.00  0.00    -0.050 A 
ATOM     32  C   UNL     1       1.444   0.638  -1.650  0.00  0.00    +0.005 A 
ATOM     33  C   UNL     1       1.271  -0.713  -1.884  0.00  0.00    +0.029 A 
ATOM     34  C   UNL     1       0.921  -1.555  -0.845  0.00  0.00    +0.110 A 
ATOM     35  C   UNL     1       0.746  -1.046   0.428  0.00  0.00    +0.029 A 
ATOM     36  C   UNL     1       0.924   0.304   0.663  0.00  0.00    +0.005 A 
ENDBRANCH  27  34
ENDBRANCH  25  27
ENDBRANCH   1  25
TORSDOF 5
