REMARK  Name = ZINC67293369
REMARK  4 active torsions:
REMARK  status: ('A' for Active; 'I' for Inactive)
REMARK    1  A    between atoms: C_1  and  C_2
REMARK    2  A    between atoms: C_3  and  N_9
REMARK    3  A    between atoms: C_11  and  C_21
REMARK    4  A    between atoms: C_16  and  O_20
REMARK                            x       y       z     vdW  Elec       q    Type
REMARK                         _______ _______ _______ _____ _____    ______ ____
ROOT
ATOM      1  N   UNL     1      -0.048  -0.023  -2.321  0.00  0.00    -0.325 N 
ATOM      2  C   UNL     1       0.144  -0.636  -3.469  0.00  0.00    +0.212 A 
ATOM      3  C   UNL     1       0.395   0.125  -4.709  0.00  0.00    +0.098 A 
ATOM      4  C   UNL     1       1.098  -0.516  -5.720  0.00  0.00    +0.030 A 
ATOM      5  C   UNL     1       1.498  -1.860  -5.510  0.00  0.00    +0.018 A 
ATOM      6  C   UNL     1       2.377  -2.487  -6.406  0.00  0.00    +0.015 A 
ATOM      7  C   UNL     1       2.788  -3.766  -6.171  0.00  0.00    +0.046 A 
ATOM      8  C   UNL     1       2.336  -4.460  -5.050  0.00  0.00    +0.120 A 
ATOM      9  C   UNL     1       1.451  -3.864  -4.164  0.00  0.00    +0.092 A 
ATOM     10  C   UNL     1       1.017  -2.568  -4.391  0.00  0.00    +0.141 A 
ATOM     11  O   UNL     1       0.125  -1.991  -3.554  0.00  0.00    -0.438 OA
ATOM     12  H   UNL     1       0.040   0.941  -2.266  0.00  0.00    +0.169 HD
ENDROOT
BRANCH   3  13
ATOM     13  C   UNL     1      -0.081   1.508  -4.867  0.00  0.00    +0.254 C 
ATOM     14  O   UNL     1       0.223   2.147  -5.856  0.00  0.00    -0.270 OA
ATOM     15  N   UNL     1      -0.854   2.067  -3.914  0.00  0.00    -0.266 N 
ATOM     16  C   UNL     1      -1.268   3.391  -4.042  0.00  0.00    +0.125 A 
ATOM     17  C   UNL     1      -1.255   3.999  -5.293  0.00  0.00    +0.044 A 
ATOM     18  C   UNL     1      -1.669   5.314  -5.405  0.00  0.00    +0.005 A 
ATOM     19  C   UNL     1      -2.084   5.979  -4.259  0.00  0.00    +0.020 A 
ATOM     20  C   UNL     1      -2.071   5.313  -3.050  0.00  0.00    +0.113 A 
ATOM     21  N   UNL     1      -1.676   4.057  -2.973  0.00  0.00    -0.240 NA
ATOM     22  H   UNL     1      -1.121   1.548  -3.140  0.00  0.00    +0.157 HD
ENDBRANCH   3  13
BRANCH   1  25
ATOM     23  C   UNL     1       1.460   0.449   0.041  0.00  0.00    +0.047 C 
ATOM     24  C   UNL     1       0.338  -0.555  -0.017  0.00  0.00    -0.009 A 
ATOM     25  C   UNL     1      -0.370  -0.746  -1.206  0.00  0.00    +0.046 A 
ATOM     26  C   UNL     1      -1.410  -1.678  -1.250  0.00  0.00    +0.026 A 
ATOM     27  C   UNL     1      -1.731  -2.403  -0.121  0.00  0.00    +0.003 A 
ATOM     28  C   UNL     1      -1.026  -2.210   1.053  0.00  0.00    +0.020 A 
ATOM     29  C   UNL     1       0.010  -1.291   1.103  0.00  0.00    +0.046 A 
ATOM     30 CL   UNL     1       0.893  -1.062   2.580  0.00  0.00    -0.083 Cl
ENDBRANCH   1  25
BRANCH   8  31
ATOM     31  O   UNL     1       2.763  -5.728  -4.825  0.00  0.00    -0.507 OA
ATOM     32  H   UNL     1       3.567  -5.783  -4.291  0.00  0.00    +0.292 HD
ENDBRANCH   8  31
TORSDOF 3
