REMARK  Name = ZINC13063271
REMARK  8 active torsions:
REMARK  status: ('A' for Active; 'I' for Inactive)
REMARK    1  A    between atoms: C_1  and  C_2
REMARK    2  A    between atoms: C_11  and  N_22
REMARK    3  A    between atoms: C_13  and  C_15
REMARK    4  A    between atoms: C_15  and  N_16
REMARK    5  A    between atoms: N_22  and  C_23
REMARK    6  A    between atoms: C_23  and  C_24
REMARK    7  A    between atoms: C_27  and  S_30
REMARK    8  A    between atoms: S_30  and  N_33
REMARK                            x       y       z     vdW  Elec       q    Type
REMARK                         _______ _______ _______ _____ _____    ______ ____
ROOT
ATOM      1  C   UNL     1      -5.303  -2.303   0.047  0.00  0.00    +0.008 C 
ATOM      2  C   UNL     1      -3.901  -1.768   0.344  0.00  0.00    -0.009 C 
ATOM      3  C   UNL     1      -2.872  -2.530  -0.496  0.00  0.00    +0.008 C 
ATOM      4  C   UNL     1      -1.459  -2.178  -0.030  0.00  0.00    +0.037 C 
ATOM      5  C   UNL     1      -1.307  -0.659  -0.019  0.00  0.00    -0.025 A 
ATOM      6  C   UNL     1      -2.392   0.142  -0.016  0.00  0.00    -0.004 A 
ATOM      7  S   UNL     1      -1.748   1.793   0.002  0.00  0.00    -0.073 S 
ATOM      8  C   UNL     1      -0.017   1.405  -0.004  0.00  0.00    +0.114 A 
ATOM      9  C   UNL     1       0.002  -0.004  -0.013  0.00  0.00    +0.051 A 
ATOM     10  C   UNL     1       1.295  -0.597  -0.014  0.00  0.00    +0.131 A 
ATOM     11  N   UNL     1       2.362   0.185  -0.007  0.00  0.00    -0.216 NA
ATOM     12  C   UNL     1       2.269   1.503   0.002  0.00  0.00    +0.146 A 
ATOM     13  N   UNL     1       1.098   2.110   0.004  0.00  0.00    -0.223 NA
ATOM     14  C   UNL     1      -3.830  -0.279  -0.021  0.00  0.00    +0.046 C 
ENDROOT
BRANCH  10  15
ATOM     15  N   UNL     1       1.434  -1.974  -0.023  0.00  0.00    -0.324 N 
ATOM     16  H   UNL     1       0.547  -2.617   0.066  0.00  0.00    +0.148 HD
BRANCH  15  17
ATOM     17  C   UNL     1       2.764  -2.574  -0.150  0.00  0.00    +0.138 C 
BRANCH  17  18
ATOM     18  C   UNL     1       2.641  -4.076  -0.133  0.00  0.00    -0.030 A 
ATOM     19  C   UNL     1       2.707  -4.761   1.066  0.00  0.00    +0.007 A 
ATOM     20  C   UNL     1       2.589  -6.138   1.082  0.00  0.00    +0.029 A 
ATOM     21  C   UNL     1       2.416  -6.831  -0.101  0.00  0.00    +0.105 A 
ATOM     22  C   UNL     1       2.356  -6.146  -1.301  0.00  0.00    +0.029 A 
ATOM     23  C   UNL     1       2.469  -4.769  -1.317  0.00  0.00    +0.007 A 
BRANCH  21  24
ATOM     24  S   UNL     1       2.271  -8.587  -0.081  0.00  0.00    +0.056 S 
ATOM     25  O   UNL     1       1.812  -8.942   1.217  0.00  0.00    -0.153 OA
ATOM     26  O   UNL     1       1.569  -8.950  -1.262  0.00  0.00    -0.153 OA
BRANCH  24  27
ATOM     27  N   UNL     1       3.799  -9.207  -0.229  0.00  0.00    -0.204 NA
ATOM     28  H   UNL     1       3.752 -10.305  -0.220  0.00  0.00    +0.144 HD
ATOM     29  H   UNL     1       4.418  -8.860   0.612  0.00  0.00    +0.144 HD
ENDBRANCH  24  27
ENDBRANCH  21  24
ENDBRANCH  17  18
ENDBRANCH  15  17
ENDBRANCH  10  15
BRANCH  12  30
ATOM     30  C   UNL     1       3.528   2.330   0.010  0.00  0.00    +0.160 C 
BRANCH  30  31
ATOM     31  N   UNL     1       3.940   2.609  -1.372  0.00  0.00    -0.291 NA
ATOM     32  C   UNL     1       4.346   1.374  -2.060  0.00  0.00    +0.113 C 
ATOM     33  C   UNL     1       4.709   1.701  -3.510  0.00  0.00    +0.175 C 
ATOM     34  O   UNL     1       5.739   2.693  -3.527  0.00  0.00    -0.377 OA
ATOM     35  C   UNL     1       5.378   3.909  -2.866  0.00  0.00    +0.175 C 
ATOM     36  C   UNL     1       5.021   3.605  -1.409  0.00  0.00    +0.113 C 
ENDBRANCH  30  31
ENDBRANCH  12  30
TORSDOF 7
