REMARK  Name = ZINC36501671
REMARK  13 active torsions:
REMARK  status: ('A' for Active; 'I' for Inactive)
REMARK    1  A    between atoms: C_1  and  C_2
REMARK    2  A    between atoms: C_2  and  C_4
REMARK    3  A    between atoms: C_2  and  C_34
REMARK    4  A    between atoms: C_4  and  C_5
REMARK    5  A    between atoms: N_7  and  C_8
REMARK    6  A    between atoms: N_7  and  C_14
REMARK    7  A    between atoms: C_8  and  C_9
REMARK    8  A    between atoms: C_14  and  C_16
REMARK    9  A    between atoms: C_14  and  C_25
REMARK   10  A    between atoms: C_17  and  O_24
REMARK   11  A    between atoms: C_19  and  O_23
REMARK   12  A    between atoms: C_21  and  O_22
REMARK   13  A    between atoms: N_27  and  C_28
REMARK                            x       y       z     vdW  Elec       q    Type
REMARK                         _______ _______ _______ _____ _____    ______ ____
ROOT
ATOM      1  C   UNL     1       0.135  -0.161   4.600  0.00  0.00    +0.200 C 
ENDROOT
BRANCH   1   2
ATOM      2  C   UNL     1      -0.587  -0.845   5.732  0.00  0.00    +0.065 A 
ATOM      3  C   UNL     1       0.012  -1.906   6.396  0.00  0.00    +0.129 A 
ATOM      4  C   UNL     1      -0.652  -2.536   7.438  0.00  0.00    +0.091 A 
ATOM      5  C   UNL     1      -1.915  -2.105   7.816  0.00  0.00    +0.124 A 
ATOM      6  C   UNL     1      -2.513  -1.044   7.154  0.00  0.00    +0.091 A 
ATOM      7  C   UNL     1      -1.847  -0.411   6.114  0.00  0.00    +0.129 A 
BRANCH   7   8
ATOM      8  O   UNL     1      -2.432   0.632   5.468  0.00  0.00    -0.506 OA
ATOM      9  H   UNL     1      -2.968   0.372   4.707  0.00  0.00    +0.292 HD
ENDBRANCH   7   8
BRANCH   5  10
ATOM     10  O   UNL     1      -2.566  -2.723   8.837  0.00  0.00    -0.507 OA
ATOM     11  H   UNL     1      -2.390  -2.337   9.706  0.00  0.00    +0.292 HD
ENDBRANCH   5  10
BRANCH   3  12
ATOM     12  O   UNL     1       1.249  -2.328   6.025  0.00  0.00    -0.506 OA
ATOM     13  H   UNL     1       1.967  -1.956   6.554  0.00  0.00    +0.292 HD
ENDBRANCH   3  12
ENDBRANCH   1   2
BRANCH   1  14
ATOM     14  C   UNL     1       1.168   0.782   5.160  0.00  0.00    +0.239 C 
ATOM     15  O   UNL     1       2.113   1.120   4.479  0.00  0.00    -0.273 OA
ATOM     16  N   UNL     1       1.042   1.250   6.418  0.00  0.00    -0.311 N 
ATOM     17  H   UNL     1       0.287   0.979   6.963  0.00  0.00    +0.149 HD
BRANCH  16  18
ATOM     18  C   UNL     1       2.047   2.166   6.963  0.00  0.00    +0.073 C 
ATOM     19  C   UNL     1       3.215   1.361   7.535  0.00  0.00    +0.022 C 
ATOM     20  C   UNL     1       4.264   2.318   8.104  0.00  0.00    +0.002 C 
ATOM     21  C   UNL     1       3.635   3.164   9.213  0.00  0.00    +0.000 C 
ATOM     22  C   UNL     1       2.467   3.969   8.640  0.00  0.00    +0.002 C 
ATOM     23  C   UNL     1       1.418   3.012   8.072  0.00  0.00    +0.022 C 
ENDBRANCH  16  18
ENDBRANCH   1  14
BRANCH   1  26
ATOM     24  C   UNL     1       0.056  -2.074   3.093  0.00  0.00    +0.217 C 
ATOM     25  O   UNL     1      -1.153  -2.059   3.184  0.00  0.00    -0.276 OA
ATOM     26  N   UNL     1       0.794  -1.166   3.763  0.00  0.00    -0.278 N 
BRANCH  24  27
ATOM     27  C   UNL     1       0.734  -3.108   2.231  0.00  0.00    +0.104 C 
BRANCH  27  29
ATOM     28  C   UNL     1      -1.181  -3.182   0.629  0.00  0.00    +0.013 C 
ATOM     29  C   UNL     1      -0.323  -4.008   1.588  0.00  0.00    +0.025 C 
BRANCH  29  30
ATOM     30  C   UNL     1       0.358  -5.116   0.826  0.00  0.00    -0.044 A 
ATOM     31  C   UNL     1       1.221  -4.813  -0.210  0.00  0.00    +0.004 A 
ATOM     32  C   UNL     1       1.845  -5.830  -0.909  0.00  0.00    +0.000 A 
ATOM     33  C   UNL     1       1.606  -7.149  -0.572  0.00  0.00    +0.000 A 
ATOM     34  C   UNL     1       0.744  -7.451   0.466  0.00  0.00    +0.000 A 
ATOM     35  C   UNL     1       0.123  -6.435   1.167  0.00  0.00    +0.004 A 
ENDBRANCH  29  30
ENDBRANCH  27  29
ENDBRANCH  24  27
BRANCH  26  36
ATOM     36  C   UNL     1       2.255  -1.185   3.653  0.00  0.00    +0.183 C 
BRANCH  36  37
ATOM     37  C   UNL     1       2.667  -0.574   2.339  0.00  0.00    +0.122 A 
ATOM     38  C   UNL     1       3.065   0.698   2.152  0.00  0.00    +0.046 A 
ATOM     39  C   UNL     1       3.355   0.839   0.776  0.00  0.00    +0.041 A 
ATOM     40  C   UNL     1       3.117  -0.355   0.203  0.00  0.00    +0.195 A 
ATOM     41  O   UNL     1       2.706  -1.208   1.156  0.00  0.00    -0.466 OA
ENDBRANCH  36  37
ENDBRANCH  26  36
ENDBRANCH   1  26
TORSDOF 12
