REMARK  Name = ZINC36599388
REMARK  16 active torsions:
REMARK  status: ('A' for Active; 'I' for Inactive)
REMARK    1  A    between atoms: C_1  and  C_2
REMARK    2  A    between atoms: C_2  and  C_3
REMARK    3  A    between atoms: C_3  and  C_4
REMARK    4  A    between atoms: C_4  and  N_5
REMARK    5  A    between atoms: C_6  and  C_8
REMARK    6  A    between atoms: C_8  and  C_10
REMARK    7  A    between atoms: C_8  and  N_19
REMARK    8  A    between atoms: C_11  and  O_18
REMARK    9  A    between atoms: C_13  and  O_17
REMARK   10  A    between atoms: C_15  and  O_16
REMARK   11  A    between atoms: N_19  and  C_20
REMARK   12  A    between atoms: C_20  and  C_21
REMARK   13  A    between atoms: C_24  and  C_26
REMARK   14  A    between atoms: C_27  and  C_29
REMARK   15  A    between atoms: C_30  and  C_31
REMARK   16  A    between atoms: C_30  and  C_32
REMARK                            x       y       z     vdW  Elec       q    Type
REMARK                         _______ _______ _______ _____ _____    ______ ____
ROOT
ATOM      1  C   UNL     1       2.723  -4.192   3.636  0.00  0.00    +0.200 C 
ENDROOT
BRANCH   1   2
ATOM      2  C   UNL     1       1.602  -4.263   4.641  0.00  0.00    +0.065 A 
ATOM      3  C   UNL     1       0.606  -5.217   4.503  0.00  0.00    +0.129 A 
ATOM      4  C   UNL     1      -0.426  -5.282   5.428  0.00  0.00    +0.091 A 
ATOM      5  C   UNL     1      -0.461  -4.393   6.491  0.00  0.00    +0.124 A 
ATOM      6  C   UNL     1       0.536  -3.439   6.630  0.00  0.00    +0.091 A 
ATOM      7  C   UNL     1       1.570  -3.377   5.708  0.00  0.00    +0.129 A 
BRANCH   7   8
ATOM      8  O   UNL     1       2.549  -2.445   5.846  0.00  0.00    -0.506 OA
ATOM      9  H   UNL     1       2.361  -1.607   5.401  0.00  0.00    +0.292 HD
ENDBRANCH   7   8
BRANCH   5  10
ATOM     10  O   UNL     1      -1.472  -4.456   7.397  0.00  0.00    -0.507 OA
ATOM     11  H   UNL     1      -1.292  -5.040   8.147  0.00  0.00    +0.292 HD
ENDBRANCH   5  10
BRANCH   3  12
ATOM     12  O   UNL     1       0.640  -6.089   3.461  0.00  0.00    -0.506 OA
ATOM     13  H   UNL     1       1.170  -6.880   3.627  0.00  0.00    +0.292 HD
ENDBRANCH   3  12
ENDBRANCH   1   2
BRANCH   1  15
ATOM     14  N   UNL     1       1.386  -2.515   2.404  0.00  0.00    -0.313 N 
ATOM     15  C   UNL     1       2.213  -3.578   2.358  0.00  0.00    +0.238 C 
ATOM     16  O   UNL     1       2.548  -4.040   1.288  0.00  0.00    -0.273 OA
ATOM     17  H   UNL     1       1.118  -2.145   3.260  0.00  0.00    +0.149 HD
BRANCH  14  18
ATOM     18  C   UNL     1       0.891  -1.918   1.161  0.00  0.00    +0.104 C 
BRANCH  18  19
ATOM     19  C   UNL     1      -0.023  -0.736   1.492  0.00  0.00    +0.018 C 
BRANCH  19  21
ATOM     20  C   UNL     1      -1.453   1.070   0.525  0.00  0.00    +0.004 C 
ATOM     21  C   UNL     1      -0.540  -0.112   0.194  0.00  0.00    -0.002 C 
ENDBRANCH  19  21
ENDBRANCH  18  19
ENDBRANCH  14  18
ENDBRANCH   1  15
BRANCH   1  22
ATOM     22  N   UNL     1       3.221  -5.543   3.365  0.00  0.00    -0.275 N 
ATOM     23  C   UNL     1       3.920  -6.205   4.307  0.00  0.00    +0.241 C 
ATOM     24  O   UNL     1       4.406  -7.291   4.053  0.00  0.00    -0.271 OA
BRANCH  23  25
ATOM     25  C   UNL     1       4.096  -5.616   5.643  0.00  0.00    +0.066 C 
ATOM     26  C   UNL     1       4.784  -6.271   6.574  0.00  0.00    -0.071 C 
ATOM     27  C   UNL     1       5.200  -7.700   6.337  0.00  0.00    +0.039 C 
ATOM     28  C   UNL     1       5.147  -5.584   7.865  0.00  0.00    +0.039 C 
ENDBRANCH  23  25
BRANCH  22  29
ATOM     29  C   UNL     1       2.959  -6.173   2.068  0.00  0.00    +0.183 C 
BRANCH  29  30
ATOM     30  C   UNL     1       4.160  -6.003   1.175  0.00  0.00    +0.122 A 
ATOM     31  C   UNL     1       5.196  -6.856   1.078  0.00  0.00    +0.046 A 
ATOM     32  C   UNL     1       6.090  -6.309   0.130  0.00  0.00    +0.045 A 
ATOM     33  C   UNL     1       5.548  -5.154  -0.296  0.00  0.00    +0.102 A 
ATOM     34  O   UNL     1       4.376  -4.977   0.336  0.00  0.00    -0.463 OA
ATOM     35  C   UNL     1       6.150  -4.220  -1.314  0.00  0.00    +0.086 C 
ENDBRANCH  29  30
ENDBRANCH  22  29
ENDBRANCH   1  22
TORSDOF 12
