REMARK  Name = ZINC01033584
REMARK  8 active torsions:
REMARK  status: ('A' for Active; 'I' for Inactive)
REMARK    1  A    between atoms: C_1  and  C_2
REMARK    2  A    between atoms: C_5  and  S_9
REMARK    3  A    between atoms: S_9  and  N_12
REMARK    4  A    between atoms: N_12  and  C_13
REMARK    5  A    between atoms: C_16  and  S_19
REMARK    6  A    between atoms: S_19  and  N_22
REMARK    7  A    between atoms: C_25  and  C_30
REMARK    8  A    between atoms: C_27  and  C_29
REMARK                            x       y       z     vdW  Elec       q    Type
REMARK                         _______ _______ _______ _____ _____    ______ ____
ROOT
ATOM      1  C   UNL     1       0.843  -0.453   0.732  0.00  0.00    +0.048 A 
ATOM      2  C   UNL     1       2.033   0.150   1.117  0.00  0.00    +0.026 A 
ATOM      3  C   UNL     1       2.826  -0.442   2.080  0.00  0.00    +0.030 A 
ATOM      4  C   UNL     1       2.441  -1.639   2.654  0.00  0.00    +0.109 A 
ATOM      5  C   UNL     1       1.259  -2.246   2.269  0.00  0.00    +0.030 A 
ATOM      6  C   UNL     1       0.459  -1.656   1.310  0.00  0.00    +0.026 A 
ENDROOT
BRANCH   4   7
ATOM      7  S   UNL     1       3.458  -2.395   3.879  0.00  0.00    +0.075 S 
ATOM      8  O   UNL     1       4.237  -1.356   4.456  0.00  0.00    -0.150 OA
ATOM      9  O   UNL     1       2.609  -3.230   4.653  0.00  0.00    -0.150 OA
BRANCH   7  10
ATOM     10  N   UNL     1       4.515  -3.396   3.088  0.00  0.00    -0.184 N 
ATOM     11  C   UNL     1       5.460  -2.864   2.229  0.00  0.00    +0.235 A 
ATOM     12  N   UNL     1       5.324  -1.614   1.811  0.00  0.00    -0.219 NA
ATOM     13  C   UNL     1       6.213  -1.074   0.994  0.00  0.00    +0.044 A 
ATOM     14  C   UNL     1       7.289  -1.835   0.567  0.00  0.00    +0.046 A 
ATOM     15  C   UNL     1       7.398  -3.141   1.019  0.00  0.00    +0.044 A 
ATOM     16  N   UNL     1       6.477  -3.618   1.840  0.00  0.00    -0.219 NA
ATOM     17  C   UNL     1       8.552  -4.006   0.582  0.00  0.00    +0.066 C 
ATOM     18  C   UNL     1       6.054   0.351   0.528  0.00  0.00    +0.066 C 
ATOM     19  H   UNL     1       4.471  -4.354   3.228  0.00  0.00    +0.177 HD
ENDBRANCH   7  10
ENDBRANCH   4   7
BRANCH   1  20
ATOM     20  N   UNL     1       0.037   0.145  -0.239  0.00  0.00    -0.216 N 
ATOM     21  H   UNL     1       0.294   0.108  -1.173  0.00  0.00    +0.174 HD
BRANCH  20  22
ATOM     22  S   UNL     1      -1.359   0.918   0.205  0.00  0.00    +0.072 S 
ATOM     23  O   UNL     1      -1.918   1.463  -0.982  0.00  0.00    -0.150 OA
ATOM     24  O   UNL     1      -2.074   0.018   1.040  0.00  0.00    -0.150 OA
BRANCH  22  29
ATOM     25  C   UNL     1       0.218   5.598   3.674  0.00  0.00    +0.045 C 
ATOM     26  C   UNL     1      -0.176   4.429   2.808  0.00  0.00    -0.032 A 
ATOM     27  C   UNL     1      -0.537   3.228   3.389  0.00  0.00    +0.007 A 
ATOM     28  C   UNL     1      -0.903   2.158   2.594  0.00  0.00    +0.029 A 
ATOM     29  C   UNL     1      -0.898   2.285   1.218  0.00  0.00    +0.110 A 
ATOM     30  C   UNL     1      -0.537   3.485   0.635  0.00  0.00    +0.049 A 
ATOM     31  C   UNL     1      -0.176   4.559   1.430  0.00  0.00    +0.046 A 
ATOM     32 CL   UNL     1       0.278   6.066   0.699  0.00  0.00    -0.083 Cl
ENDBRANCH  22  29
ENDBRANCH  20  22
ENDBRANCH   1  20
TORSDOF 5
