REMARK  Name = ZINC36545221
REMARK  11 active torsions:
REMARK  status: ('A' for Active; 'I' for Inactive)
REMARK    1  A    between atoms: C_1  and  C_2
REMARK    2  A    between atoms: C_2  and  C_3
REMARK    3  A    between atoms: C_3  and  C_4
REMARK    4  A    between atoms: C_5  and  C_6
REMARK    5  A    between atoms: C_6  and  C_8
REMARK    6  A    between atoms: C_6  and  N_17
REMARK    7  A    between atoms: N_10  and  C_11
REMARK    8  A    between atoms: N_17  and  C_18
REMARK    9  A    between atoms: C_25  and  C_27
REMARK   10  A    between atoms: C_28  and  O_34
REMARK   11  A    between atoms: C_32  and  O_33
REMARK                            x       y       z     vdW  Elec       q    Type
REMARK                         _______ _______ _______ _____ _____    ______ ____
ROOT
ATOM      1  N   UNL     1       0.867  -4.565  -1.115  0.00  0.00    -0.250 N 
ATOM      2  C   UNL     1       0.185  -4.518   0.047  0.00  0.00    +0.259 C 
ATOM      3  O   UNL     1      -0.957  -4.101   0.065  0.00  0.00    -0.269 OA
ENDROOT
BRANCH   1   4
ATOM      4  C   UNL     1       2.143  -5.136  -1.155  0.00  0.00    +0.056 A 
ATOM      5  C   UNL     1       2.287  -6.506  -1.335  0.00  0.00    +0.025 A 
ATOM      6  C   UNL     1       3.549  -7.067  -1.374  0.00  0.00    +0.002 A 
ATOM      7  C   UNL     1       4.668  -6.267  -1.234  0.00  0.00    +0.002 A 
ATOM      8  C   UNL     1       4.529  -4.903  -1.055  0.00  0.00    +0.022 A 
ATOM      9  C   UNL     1       3.270  -4.334  -1.021  0.00  0.00    +0.062 A 
ATOM     10 CL   UNL     1       3.096  -2.621  -0.803  0.00  0.00    -0.082 Cl
ENDBRANCH   1   4
BRANCH   2  11
ATOM     11  C   UNL     1       0.824  -4.970   1.294  0.00  0.00    +0.120 A 
ATOM     12  C   UNL     1       1.502  -4.056   2.112  0.00  0.00    +0.133 A 
ATOM     13  C   UNL     1       2.100  -4.492   3.283  0.00  0.00    +0.046 A 
ATOM     14  C   UNL     1       2.030  -5.825   3.646  0.00  0.00    +0.007 A 
ATOM     15  C   UNL     1       1.364  -6.735   2.846  0.00  0.00    +0.046 A 
ATOM     16  C   UNL     1       0.754  -6.319   1.674  0.00  0.00    +0.133 A 
BRANCH  16  17
ATOM     17  O   UNL     1       0.097  -7.213   0.894  0.00  0.00    -0.506 OA
ATOM     18  H   UNL     1       0.668  -7.697   0.282  0.00  0.00    +0.292 HD
ENDBRANCH  16  17
BRANCH  12  19
ATOM     19  O   UNL     1       1.573  -2.748   1.759  0.00  0.00    -0.506 OA
ATOM     20  H   UNL     1       0.845  -2.209   2.097  0.00  0.00    +0.292 HD
ENDBRANCH  12  19
ENDBRANCH   2  11
BRANCH   1  21
ATOM     21  C   UNL     1       0.271  -4.018  -2.336  0.00  0.00    +0.190 C 
BRANCH  21  22
ATOM     22  C   UNL     1      -0.986  -4.781  -2.668  0.00  0.00    +0.238 C 
ATOM     23  O   UNL     1      -1.348  -5.692  -1.954  0.00  0.00    -0.273 OA
ATOM     24  N   UNL     1      -1.707  -4.450  -3.757  0.00  0.00    -0.311 N 
ATOM     25  H   UNL     1      -1.417  -3.722  -4.328  0.00  0.00    +0.149 HD
BRANCH  24  26
ATOM     26  C   UNL     1      -2.929  -5.192  -4.080  0.00  0.00    +0.073 C 
ATOM     27  C   UNL     1      -2.568  -6.446  -4.879  0.00  0.00    +0.022 C 
ATOM     28  C   UNL     1      -3.844  -7.221  -5.215  0.00  0.00    +0.002 C 
ATOM     29  C   UNL     1      -4.774  -6.335  -6.047  0.00  0.00    +0.000 C 
ATOM     30  C   UNL     1      -5.134  -5.082  -5.248  0.00  0.00    +0.002 C 
ATOM     31  C   UNL     1      -3.859  -4.307  -4.911  0.00  0.00    +0.022 C 
ENDBRANCH  24  26
ENDBRANCH  21  22
BRANCH  21  33
ATOM     32  C   UNL     1       0.300  -1.962  -1.019  0.00  0.00    -0.029 C 
ATOM     33  C   UNL     1      -0.066  -2.564  -2.123  0.00  0.00    +0.001 C 
BRANCH  32  34
ATOM     34  C   UNL     1       0.041  -0.488  -0.843  0.00  0.00    +0.027 C 
BRANCH  34  36
ATOM     35  C   UNL     1      -1.013   1.237   0.626  0.00  0.00    +0.004 C 
ATOM     36  C   UNL     1      -0.750  -0.260   0.447  0.00  0.00    +0.001 C 
ENDBRANCH  34  36
ENDBRANCH  32  34
ENDBRANCH  21  33
ENDBRANCH   1  21
TORSDOF 10
