REMARK  Name = ZINC40180022
REMARK  8 active torsions:
REMARK  status: ('A' for Active; 'I' for Inactive)
REMARK    1  A    between atoms: C_1  and  C_2
REMARK    2  A    between atoms: C_2  and  C_3
REMARK    3  A    between atoms: C_2  and  C_4
REMARK    4  A    between atoms: C_5  and  C_16
REMARK    5  A    between atoms: N_8  and  C_9
REMARK    6  A    between atoms: N_18  and  C_19
REMARK    7  A    between atoms: C_22  and  S_25
REMARK    8  A    between atoms: S_25  and  N_28
REMARK                            x       y       z     vdW  Elec       q    Type
REMARK                         _______ _______ _______ _____ _____    ______ ____
ROOT
ATOM      1  C   UNL     1      -1.765   0.754   2.676  0.00  0.00    +0.270 C 
ATOM      2  O   UNL     1      -0.708   1.343   2.564  0.00  0.00    -0.268 OA
ATOM      3  N   UNL     1      -2.589   1.038   3.705  0.00  0.00    -0.280 N 
ATOM      4  H   UNL     1      -3.398   0.519   3.836  0.00  0.00    +0.155 HD
ENDROOT
BRANCH   3   5
ATOM      5  C   UNL     1      -2.277   2.082   4.582  0.00  0.00    +0.034 A 
ATOM      6  C   UNL     1      -1.634   3.219   4.111  0.00  0.00    +0.025 A 
ATOM      7  C   UNL     1      -1.328   4.247   4.981  0.00  0.00    +0.030 A 
ATOM      8  C   UNL     1      -1.661   4.146   6.319  0.00  0.00    +0.105 A 
ATOM      9  C   UNL     1      -2.301   3.015   6.791  0.00  0.00    +0.030 A 
ATOM     10  C   UNL     1      -2.616   1.985   5.926  0.00  0.00    +0.025 A 
BRANCH   8  11
ATOM     11  S   UNL     1      -1.268   5.460   7.425  0.00  0.00    +0.056 S 
ATOM     12  O   UNL     1      -1.194   4.889   8.724  0.00  0.00    -0.153 OA
ATOM     13  O   UNL     1      -0.183   6.170   6.842  0.00  0.00    -0.153 OA
BRANCH  11  14
ATOM     14  N   UNL     1      -2.560   6.495   7.434  0.00  0.00    -0.204 NA
ATOM     15  H   UNL     1      -3.338   6.305   6.887  0.00  0.00    +0.144 HD
ATOM     16  H   UNL     1      -2.540   7.291   7.987  0.00  0.00    +0.144 HD
ENDBRANCH  11  14
ENDBRANCH   8  11
ENDBRANCH   3   5
BRANCH   1  18
ATOM     17  C   UNL     1      -1.432  -0.613   0.575  0.00  0.00    +0.080 A 
ATOM     18  C   UNL     1      -2.147  -0.272   1.688  0.00  0.00    +0.171 A 
ATOM     19  N   UNL     1      -3.256  -1.030   1.731  0.00  0.00    -0.124 NA
ATOM     20  N   UNL     1      -3.278  -1.821   0.715  0.00  0.00    -0.060 NA
ATOM     21  N   UNL     1      -2.130  -1.584  -0.055  0.00  0.00    -0.216 N 
BRANCH  21  22
ATOM     22  C   UNL     1      -1.774  -2.230  -1.247  0.00  0.00    +0.067 A 
ATOM     23  C   UNL     1      -1.113  -1.530  -2.248  0.00  0.00    +0.029 A 
ATOM     24  C   UNL     1      -0.763  -2.170  -3.421  0.00  0.00    +0.022 A 
ATOM     25  C   UNL     1      -1.071  -3.507  -3.600  0.00  0.00    +0.041 A 
ATOM     26  C   UNL     1      -1.730  -4.207  -2.604  0.00  0.00    +0.022 A 
ATOM     27  C   UNL     1      -2.077  -3.573  -1.427  0.00  0.00    +0.029 A 
ATOM     28 CL   UNL     1      -0.631  -4.307  -5.076  0.00  0.00    -0.084 Cl
ENDBRANCH  21  22
BRANCH  17  30
ATOM     29  C   UNL     1      -0.295   1.486  -0.093  0.00  0.00    +0.014 C 
ATOM     30  C   UNL     1      -0.121  -0.017   0.131  0.00  0.00    +0.034 C 
ATOM     31  C   UNL     1       0.938  -0.253   1.210  0.00  0.00    +0.014 C 
ENDBRANCH  17  30
ENDBRANCH   1  18
TORSDOF 6
