REMARK  Name = ZINC63473072
REMARK  6 active torsions:
REMARK  status: ('A' for Active; 'I' for Inactive)
REMARK    1  A    between atoms: C_4  and  N_7
REMARK    2  A    between atoms: C_12  and  C_33
REMARK    3  A    between atoms: C_15  and  C_20
REMARK    4  A    between atoms: C_15  and  C_30
REMARK    5  A    between atoms: C_20  and  C_21
REMARK    6  A    between atoms: C_38  and  O_39
REMARK                            x       y       z     vdW  Elec       q    Type
REMARK                         _______ _______ _______ _____ _____    ______ ____
ROOT
ATOM      1  N   UNL     1       3.677  -0.744   0.045  0.00  0.00    -0.210 N 
ATOM      2  C   UNL     1       4.903  -0.133   0.146  0.00  0.00    +0.229 C 
ATOM      3  O   UNL     1       5.136   1.012   0.467  0.00  0.00    -0.275 OA
ATOM      4  C   UNL     1       5.853  -1.160  -0.215  0.00  0.00    +0.077 C 
ATOM      5  C   UNL     1       7.284  -1.468  -0.085  0.00  0.00    -0.023 C 
ATOM      6  N   UNL     1       7.368  -2.946  -0.331  0.00  0.00    +0.396 N 
ATOM      7  C   UNL     1       5.967  -3.460  -0.472  0.00  0.00    +0.052 C 
ATOM      8  C   UNL     1       5.167  -2.453   0.381  0.00  0.00    +0.086 C 
ATOM      9  C   UNL     1       3.771  -2.103  -0.055  0.00  0.00    +0.229 C 
ATOM     10  O   UNL     1       2.907  -2.870  -0.422  0.00  0.00    -0.275 OA
ATOM     11  H   UNL     1       7.885  -3.122  -1.180  0.00  0.00    -0.083 HD
ATOM     12  H   UNL     1       7.822  -3.397   0.449  0.00  0.00    -0.083 HD
ENDROOT
BRANCH   1  16
ATOM     13  C   UNL     1       0.059   1.326   0.058  0.00  0.00    +0.000 A 
ATOM     14  C   UNL     1       1.251   2.019   0.159  0.00  0.00    +0.002 A 
ATOM     15  C   UNL     1       2.451   1.336   0.155  0.00  0.00    +0.024 A 
ATOM     16  C   UNL     1       2.460  -0.048   0.050  0.00  0.00    +0.044 A 
ATOM     17  C   UNL     1       1.262  -0.742  -0.051  0.00  0.00    +0.024 A 
ATOM     18  C   UNL     1       0.065  -0.053  -0.047  0.00  0.00    +0.002 A 
ENDBRANCH   1  16
BRANCH   5  19
ATOM     19  C   UNL     1       7.771  -1.133   1.301  0.00  0.00    -0.019 A 
ATOM     20  C   UNL     1       7.760  -2.098   2.290  0.00  0.00    +0.005 A 
ATOM     21  C   UNL     1       8.206  -1.791   3.562  0.00  0.00    +0.000 A 
ATOM     22  C   UNL     1       8.667  -0.518   3.847  0.00  0.00    +0.004 A 
ATOM     23  C   UNL     1       8.681   0.450   2.861  0.00  0.00    +0.045 A 
ATOM     24  C   UNL     1       8.238   0.142   1.583  0.00  0.00    +0.118 A 
BRANCH  24  25
ATOM     25  O   UNL     1       8.256   1.091   0.610  0.00  0.00    -0.507 OA
ATOM     26  H   UNL     1       7.445   1.614   0.556  0.00  0.00    +0.292 HD
ENDBRANCH  24  25
ENDBRANCH   5  19
BRANCH   7  27
ATOM     27  C   UNL     1       5.848  -4.848   0.103  0.00  0.00    +0.347 C 
ATOM     28  O   UNL     1       6.830  -5.401   0.570  0.00  0.00    -0.248 OA
ATOM     29  O   UNL     1       4.771  -5.418   0.102  0.00  0.00    -0.248 OA
ENDBRANCH   7  27
BRANCH   7  30
ATOM     30  C   UNL     1       5.526  -3.439  -1.937  0.00  0.00    +0.033 C 
BRANCH  30  31
ATOM     31  C   UNL     1       6.379  -4.393  -2.732  0.00  0.00    -0.042 C 
ATOM     32  C   UNL     1       6.100  -5.685  -3.022  0.00  0.00    -0.001 A 
ATOM     33  C   UNL     1       4.964  -6.554  -2.695  0.00  0.00    +0.010 A 
ATOM     34  C   UNL     1       4.969  -7.833  -3.136  0.00  0.00    +0.001 A 
ATOM     35  C   UNL     1       6.029  -8.347  -3.894  0.00  0.00    +0.002 A 
ATOM     36  C   UNL     1       7.107  -7.610  -4.235  0.00  0.00    +0.026 A 
ATOM     37  C   UNL     1       7.207  -6.252  -3.825  0.00  0.00    +0.043 A 
ATOM     38  N   UNL     1       8.134  -5.346  -4.023  0.00  0.00    -0.380 N 
ATOM     39  C   UNL     1       7.717  -4.099  -3.373  0.00  0.00    +0.144 C 
ATOM     40  H   UNL     1       8.957  -5.478  -4.520  0.00  0.00    +0.160 HD
ENDBRANCH  30  31
ENDBRANCH   7  30
TORSDOF 6
