REMARK  Name = ZINC54613714
REMARK  9 active torsions:
REMARK  status: ('A' for Active; 'I' for Inactive)
REMARK    1  A    between atoms: C_1  and  C_2
REMARK    2  A    between atoms: C_2  and  O_3
REMARK    3  A    between atoms: O_3  and  C_4
REMARK    4  A    between atoms: C_6  and  C_12
REMARK    5  A    between atoms: C_9  and  O_10
REMARK    6  A    between atoms: C_14  and  C_23
REMARK    7  A    between atoms: C_15  and  C_22
REMARK    8  A    between atoms: N_25  and  C_26
REMARK    9  A    between atoms: C_30  and  C_32
REMARK                            x       y       z     vdW  Elec       q    Type
REMARK                         _______ _______ _______ _____ _____    ______ ____
ROOT
ATOM      1  C   UNL     1      -0.191  -4.952  -0.576  0.00  0.00    +0.179 C 
ATOM      2  C   UNL     1       0.887  -5.842  -1.138  0.00  0.00    +0.060 C 
ATOM      3  C   UNL     1       0.991  -7.145  -0.839  0.00  0.00    +0.018 C 
ATOM      4  N   UNL     1       0.109  -7.777   0.003  0.00  0.00    -0.286 N 
ATOM      5  C   UNL     1      -1.052  -7.095   0.339  0.00  0.00    +0.240 A 
ATOM      6  N   UNL     1      -1.209  -5.773   0.069  0.00  0.00    -0.201 N 
ATOM      7  N   UNL     1      -2.481  -5.444   0.534  0.00  0.00    -0.042 NA
ATOM      8  N   UNL     1      -2.982  -6.529   1.032  0.00  0.00    -0.021 NA
ATOM      9  N   UNL     1      -2.143  -7.503   0.921  0.00  0.00    -0.092 NA
ATOM     10  C   UNL     1       2.115  -7.943  -1.447  0.00  0.00    +0.061 C 
ATOM     11  H   UNL     1       0.290  -8.665   0.349  0.00  0.00    +0.155 HD
ENDROOT
BRANCH   1  14
ATOM     12  C   UNL     1       0.879  -1.777   1.170  0.00  0.00    +0.163 A 
ATOM     13  C   UNL     1       0.327  -2.645   0.241  0.00  0.00    +0.055 A 
ATOM     14  C   UNL     1       0.411  -4.011   0.435  0.00  0.00    -0.014 A 
ATOM     15  C   UNL     1       1.047  -4.515   1.554  0.00  0.00    +0.025 A 
ATOM     16  C   UNL     1       1.601  -3.655   2.486  0.00  0.00    +0.063 A 
ATOM     17  C   UNL     1       1.524  -2.284   2.294  0.00  0.00    +0.173 A 
ATOM     18 BR   UNL     1       2.468  -4.349   4.016  0.00  0.00    -0.046 Br
BRANCH  17  19
ATOM     19  O   UNL     1       2.073  -1.437   3.205  0.00  0.00    -0.503 OA
ATOM     20  H   UNL     1       1.469  -1.177   3.914  0.00  0.00    +0.292 HD
ENDBRANCH  17  19
BRANCH  12  21
ATOM     21  O   UNL     1       0.796  -0.433   0.981  0.00  0.00    -0.489 OA
BRANCH  21  23
ATOM     22  C   UNL     1       0.127   1.545  -0.235  0.00  0.00    +0.048 C 
ATOM     23  C   UNL     1       0.119   0.016  -0.195  0.00  0.00    +0.226 C 
ENDBRANCH  21  23
ENDBRANCH  12  21
ENDBRANCH   1  14
BRANCH   2  24
ATOM     24  C   UNL     1       1.833  -5.276  -2.025  0.00  0.00    +0.248 C 
ATOM     25  O   UNL     1       1.544  -5.103  -3.195  0.00  0.00    -0.270 OA
ATOM     26  N   UNL     1       3.055  -4.928  -1.574  0.00  0.00    -0.282 N 
ATOM     27  H   UNL     1       3.315  -5.143  -0.664  0.00  0.00    +0.155 HD
BRANCH  26  28
ATOM     28  C   UNL     1       3.947  -4.259  -2.417  0.00  0.00    +0.034 A 
ATOM     29  C   UNL     1       3.466  -3.483  -3.464  0.00  0.00    +0.023 A 
ATOM     30  C   UNL     1       4.350  -2.823  -4.295  0.00  0.00    +0.002 A 
ATOM     31  C   UNL     1       5.713  -2.934  -4.086  0.00  0.00    +0.003 A 
ATOM     32  C   UNL     1       6.195  -3.707  -3.045  0.00  0.00    -0.049 A 
ATOM     33  C   UNL     1       5.316  -4.365  -2.207  0.00  0.00    +0.026 A 
ATOM     34  C   UNL     1       7.680  -3.826  -2.822  0.00  0.00    +0.044 C 
ENDBRANCH  26  28
ENDBRANCH   2  24
TORSDOF 6
