REMARK  Name = ZINC63385887
REMARK  9 active torsions:
REMARK  status: ('A' for Active; 'I' for Inactive)
REMARK    1  A    between atoms: C_1  and  C_2
REMARK    2  A    between atoms: C_2  and  N_3
REMARK    3  A    between atoms: C_10  and  N_14
REMARK    4  A    between atoms: C_15  and  C_17
REMARK    5  A    between atoms: N_19  and  C_20
REMARK    6  A    between atoms: C_20  and  C_21
REMARK    7  A    between atoms: C_21  and  C_22
REMARK    8  A    between atoms: C_25  and  O_31
REMARK    9  A    between atoms: O_31  and  C_32
REMARK                            x       y       z     vdW  Elec       q    Type
REMARK                         _______ _______ _______ _____ _____    ______ ____
ROOT
ATOM      1  C   UNL     1       0.652   0.353   6.745  0.00  0.00    +0.299 C 
ATOM      2  O   UNL     1       1.398   1.310   6.706  0.00  0.00    -0.265 OA
ATOM      3  N   UNL     1      -0.086   0.119   7.849  0.00  0.00    -0.307 N 
ATOM      4  H   UNL     1      -0.682  -0.645   7.880  0.00  0.00    +0.149 HD
ENDROOT
BRANCH   1   6
ATOM      5  N   UNL     1       1.288  -0.330   4.467  0.00  0.00    -0.292 N 
ATOM      6  C   UNL     1       0.551  -0.564   5.570  0.00  0.00    +0.300 C 
ATOM      7  O   UNL     1      -0.196  -1.520   5.609  0.00  0.00    -0.265 OA
ATOM      8  H   UNL     1       1.885   0.434   4.435  0.00  0.00    +0.150 HD
BRANCH   5  16
ATOM      9  N   UNL     1       0.711  -0.489   1.189  0.00  0.00    -0.270 N 
ATOM     10  C   UNL     1       2.086  -0.725   1.232  0.00  0.00    +0.042 A 
ATOM     11  C   UNL     1       3.066  -0.579   0.252  0.00  0.00    +0.025 A 
ATOM     12  C   UNL     1       4.381  -0.881   0.538  0.00  0.00    +0.017 A 
ATOM     13  C   UNL     1       4.738  -1.332   1.797  0.00  0.00    +0.018 A 
ATOM     14  C   UNL     1       3.769  -1.479   2.775  0.00  0.00    +0.023 A 
ATOM     15  C   UNL     1       2.456  -1.178   2.492  0.00  0.00    +0.004 A 
ATOM     16  C   UNL     1       1.189  -1.229   3.315  0.00  0.00    +0.192 C 
ATOM     17  C   UNL     1       0.112  -0.753   2.363  0.00  0.00    +0.245 C 
ATOM     18  O   UNL     1      -1.069  -0.634   2.612  0.00  0.00    -0.273 OA
ATOM     19 BR   UNL     1       6.543  -1.746   2.180  0.00  0.00    -0.050 Br
BRANCH   9  21
ATOM     20  C   UNL     1      -0.019   1.526   0.010  0.00  0.00    +0.025 C 
ATOM     21  C   UNL     1       0.002  -0.004   0.002  0.00  0.00    +0.110 C 
ENDBRANCH   9  21
ENDBRANCH   5  16
ENDBRANCH   1   6
BRANCH   3  22
ATOM     22  C   UNL     1       0.013   1.019   9.001  0.00  0.00    +0.109 C 
BRANCH  22  23
ATOM     23  C   UNL     1      -0.920   0.531  10.111  0.00  0.00    +0.052 C 
BRANCH  23  24
ATOM     24  C   UNL     1      -0.818   1.456  11.296  0.00  0.00    -0.040 C 
ATOM     25  C   UNL     1      -1.624   2.503  11.581  0.00  0.00    +0.002 A 
ATOM     26  C   UNL     1      -2.792   3.075  10.901  0.00  0.00    +0.055 A 
ATOM     27  C   UNL     1      -3.412   4.154  11.435  0.00  0.00    +0.121 A 
ATOM     28  C   UNL     1      -2.977   4.756  12.629  0.00  0.00    +0.047 A 
ATOM     29  C   UNL     1      -1.913   4.303  13.325  0.00  0.00    +0.029 A 
ATOM     30  C   UNL     1      -1.167   3.139  12.838  0.00  0.00    +0.043 A 
ATOM     31  N   UNL     1      -0.120   2.509  13.311  0.00  0.00    -0.380 N 
ATOM     32  C   UNL     1       0.203   1.397  12.410  0.00  0.00    +0.144 C 
ATOM     33  H   UNL     1       0.359   2.737  14.123  0.00  0.00    +0.160 HD
BRANCH  27  34
ATOM     34  O   UNL     1      -4.493   4.674  10.794  0.00  0.00    -0.495 OA
ATOM     35  C   UNL     1      -5.117   5.812  11.392  0.00  0.00    +0.277 C 
ENDBRANCH  27  34
ENDBRANCH  23  24
ENDBRANCH  22  23
ENDBRANCH   3  22
TORSDOF 7
