REMARK  Name = ZINC32935275
REMARK  10 active torsions:
REMARK  status: ('A' for Active; 'I' for Inactive)
REMARK    1  A    between atoms: C_1  and  C_2
REMARK    2  A    between atoms: C_3  and  C_29
REMARK    3  A    between atoms: C_4  and  C_28
REMARK    4  A    between atoms: C_5  and  S_10
REMARK    5  A    between atoms: C_6  and  C_9
REMARK    6  A    between atoms: C_7  and  C_8
REMARK    7  A    between atoms: S_10  and  N_13
REMARK    8  A    between atoms: N_13  and  C_14
REMARK    9  A    between atoms: C_18  and  C_20
REMARK   10  A    between atoms: C_20  and  C_27
REMARK                            x       y       z     vdW  Elec       q    Type
REMARK                         _______ _______ _______ _____ _____    ______ ____
ROOT
ATOM      1  N   UNL     1      -3.038   4.171   6.099  0.00  0.00    -0.216 N 
ATOM      2  H   UNL     1      -2.493   4.412   7.024  0.00  0.00    +0.174 HD
ENDROOT
BRANCH   1   3
ATOM      3  C   UNL     1      -3.587   5.195   5.325  0.00  0.00    +0.048 A 
ATOM      4  C   UNL     1      -3.388   5.213   3.950  0.00  0.00    +0.024 A 
ATOM      5  C   UNL     1      -3.937   6.224   3.187  0.00  0.00    +0.002 A 
ATOM      6  C   UNL     1      -4.676   7.225   3.792  0.00  0.00    +0.006 A 
ATOM      7  C   UNL     1      -4.872   7.213   5.160  0.00  0.00    -0.014 A 
ATOM      8  C   UNL     1      -4.330   6.202   5.929  0.00  0.00    +0.030 A 
BRANCH   7   9
ATOM      9  C   UNL     1      -5.678   8.306   5.814  0.00  0.00    +0.135 C 
ATOM     10  C   UNL     1      -6.929   7.737   6.453  0.00  0.00    +0.248 C 
ATOM     11  O   UNL     1      -6.988   6.918   7.345  0.00  0.00    -0.273 OA
ATOM     12  N   UNL     1      -7.962   8.332   5.817  0.00  0.00    -0.238 N 
ATOM     13  C   UNL     1      -7.538   9.189   4.880  0.00  0.00    +0.307 C 
ATOM     14  O   UNL     1      -8.283   9.845   4.178  0.00  0.00    -0.252 OA
ATOM     15  N   UNL     1      -6.197   9.243   4.803  0.00  0.00    -0.282 N 
ATOM     16  C   UNL     1      -4.833   9.048   6.853  0.00  0.00    +0.047 C 
ATOM     17  H   UNL     1      -8.996   8.085   6.097  0.00  0.00    +0.159 HD
ATOM     18  H   UNL     1      -5.499   9.815   4.173  0.00  0.00    +0.152 HD
ENDBRANCH   7   9
ENDBRANCH   1   3
BRANCH   1  19
ATOM     19  S   UNL     1      -3.207   2.593   5.625  0.00  0.00    +0.073 S 
ATOM     20  O   UNL     1      -4.566   2.427   5.244  0.00  0.00    -0.150 OA
ATOM     21  O   UNL     1      -2.596   1.799   6.633  0.00  0.00    -0.150 OA
BRANCH  19  26
ATOM     22  C   UNL     1       0.088   1.873   0.623  0.00  0.00    +0.044 C 
ATOM     23  C   UNL     1      -0.735   2.053   1.872  0.00  0.00    -0.044 A 
ATOM     24  C   UNL     1      -0.125   2.017   3.112  0.00  0.00    -0.043 A 
ATOM     25  C   UNL     1      -0.879   2.186   4.258  0.00  0.00    -0.020 A 
ATOM     26  C   UNL     1      -2.245   2.382   4.165  0.00  0.00    +0.115 A 
ATOM     27  C   UNL     1      -2.855   2.412   2.925  0.00  0.00    -0.020 A 
ATOM     28  C   UNL     1      -2.100   2.248   1.778  0.00  0.00    -0.043 A 
ATOM     29  C   UNL     1      -2.765   2.281   0.427  0.00  0.00    +0.044 C 
ATOM     30  C   UNL     1      -4.343   2.626   2.822  0.00  0.00    +0.046 C 
ATOM     31  C   UNL     1      -0.214   2.153   5.610  0.00  0.00    +0.046 C 
ATOM     32  C   UNL     1       1.362   1.798   3.215  0.00  0.00    +0.044 C 
ENDBRANCH  19  26
ENDBRANCH   1  19
TORSDOF 4
