REMARK  Name = ZINC16523703
REMARK  9 active torsions:
REMARK  status: ('A' for Active; 'I' for Inactive)
REMARK    1  A    between atoms: C_4  and  N_7
REMARK    2  A    between atoms: C_8  and  N_38
REMARK    3  A    between atoms: C_9  and  C_36
REMARK    4  A    between atoms: C_10  and  C_12
REMARK    5  A    between atoms: C_12  and  C_34
REMARK    6  A    between atoms: C_13  and  C_14
REMARK    7  A    between atoms: N_16  and  C_23
REMARK    8  A    between atoms: C_23  and  C_24
REMARK    9  A    between atoms: C_28  and  C_30
REMARK                            x       y       z     vdW  Elec       q    Type
REMARK                         _______ _______ _______ _____ _____    ______ ____
ROOT
ATOM      1  C   UNL     1       1.691  -1.862  -0.284  0.00  0.00    +0.081 C 
ATOM      2  C   UNL     1       0.779  -2.844  -0.020  0.00  0.00    +0.031 C 
ENDROOT
BRANCH   2   3
ATOM      3  C   UNL     1       1.167  -4.250  -0.125  0.00  0.00    +0.002 A 
ATOM      4  C   UNL     1       2.440  -4.748  -0.152  0.00  0.00    +0.095 A 
ATOM      5  N   UNL     1       2.399  -6.101  -0.253  0.00  0.00    -0.342 N 
ATOM      6  C   UNL     1       1.092  -6.540  -0.306  0.00  0.00    +0.050 A 
ATOM      7  C   UNL     1       0.262  -5.410  -0.230  0.00  0.00    +0.007 A 
ATOM      8  C   UNL     1      -1.121  -5.557  -0.262  0.00  0.00    +0.010 A 
ATOM      9  C   UNL     1      -1.672  -6.816  -0.369  0.00  0.00    +0.001 A 
ATOM     10  C   UNL     1      -0.854  -7.933  -0.445  0.00  0.00    +0.002 A 
ATOM     11  C   UNL     1       0.517  -7.803  -0.415  0.00  0.00    +0.026 A 
BRANCH   5  12
ATOM     12  C   UNL     1       3.576  -6.971  -0.304  0.00  0.00    +0.157 C 
BRANCH  12  13
ATOM     13  C   UNL     1       3.927  -7.258  -1.742  0.00  0.00    -0.027 A 
ATOM     14  C   UNL     1       3.381  -8.356  -2.381  0.00  0.00    +0.005 A 
ATOM     15  C   UNL     1       3.699  -8.616  -3.700  0.00  0.00    +0.001 A 
ATOM     16  C   UNL     1       4.571  -7.784  -4.378  0.00  0.00    +0.012 A 
ATOM     17  C   UNL     1       5.120  -6.689  -3.738  0.00  0.00    +0.055 A 
ATOM     18  C   UNL     1       4.799  -6.426  -2.419  0.00  0.00    +0.017 A 
BRANCH  17  19
ATOM     19  C   UNL     1       6.070  -5.783  -4.477  0.00  0.00    +0.417 C 
ATOM     20  F   UNL     1       7.380  -6.244  -4.310  0.00  0.00    -0.166 F 
ATOM     21  F   UNL     1       5.747  -5.779  -5.838  0.00  0.00    -0.166 F 
ATOM     22  F   UNL     1       5.965  -4.484  -3.969  0.00  0.00    -0.166 F 
ENDBRANCH  17  19
ENDBRANCH  12  13
ENDBRANCH   5  12
ENDBRANCH   2   3
BRANCH   1  26
ATOM     23  N   UNL     1       0.267   1.400   0.542  0.00  0.00    -0.217 N 
ATOM     24  C   UNL     1       1.480   1.834   0.116  0.00  0.00    +0.138 A 
ATOM     25  C   UNL     1       2.216   0.716  -0.263  0.00  0.00    +0.119 A 
ATOM     26  C   UNL     1       1.348  -0.446  -0.031  0.00  0.00    +0.123 A 
ATOM     27  N   UNL     1       0.209   0.007   0.444  0.00  0.00    -0.163 NA
BRANCH  23  31
ATOM     28  C   UNL     1      -2.815   3.844   1.917  0.00  0.00    +0.000 A 
ATOM     29  C   UNL     1      -3.110   2.704   1.193  0.00  0.00    +0.002 A 
ATOM     30  C   UNL     1      -2.091   1.891   0.735  0.00  0.00    +0.028 A 
ATOM     31  C   UNL     1      -0.768   2.221   1.004  0.00  0.00    +0.067 A 
ATOM     32  C   UNL     1      -0.476   3.365   1.736  0.00  0.00    +0.028 A 
ATOM     33  C   UNL     1      -1.500   4.175   2.186  0.00  0.00    +0.002 A 
ENDBRANCH  23  31
BRANCH  24  34
ATOM     34  N   UNL     1       1.906   3.147   0.066  0.00  0.00    -0.342 N 
ATOM     35  H   UNL     1       1.315   3.860   0.354  0.00  0.00    +0.144 HD
ATOM     36  H   UNL     1       2.796   3.357  -0.257  0.00  0.00    +0.144 HD
ENDBRANCH  24  34
BRANCH  25  37
ATOM     37  C   UNL     1       3.553   0.700  -0.776  0.00  0.00    +0.105 C 
ATOM     38  N   UNL     1       4.613   0.688  -1.183  0.00  0.00    -0.191 NA
ENDBRANCH  25  37
ENDBRANCH   1  26
BRANCH   1  39
ATOM     39  C   UNL     1       2.980  -2.204  -0.807  0.00  0.00    +0.101 C 
ATOM     40  N   UNL     1       4.003  -2.475  -1.221  0.00  0.00    -0.191 NA
ENDBRANCH   1  39
TORSDOF 9
