REMARK  Name = ZINC27520239
REMARK  8 active torsions:
REMARK  status: ('A' for Active; 'I' for Inactive)
REMARK    1  A    between atoms: C_1  and  C_2
REMARK    2  A    between atoms: C_2  and  O_3
REMARK    3  A    between atoms: O_3  and  C_4
REMARK    4  A    between atoms: C_4  and  C_6
REMARK    5  A    between atoms: C_10  and  N_11
REMARK    6  A    between atoms: C_13  and  C_23
REMARK    7  A    between atoms: N_25  and  C_26
REMARK    8  A    between atoms: C_29  and  C_32
REMARK                            x       y       z     vdW  Elec       q    Type
REMARK                         _______ _______ _______ _____ _____    ______ ____
ROOT
ATOM      1  N   UNL     1      -3.322   5.489   1.732  0.00  0.00    -0.319 N 
ATOM      2  C   UNL     1      -2.397   5.054   0.896  0.00  0.00    +0.212 A 
ATOM      3  C   UNL     1      -1.257   5.905   0.510  0.00  0.00    +0.098 A 
ATOM      4  C   UNL     1      -0.093   5.265   0.107  0.00  0.00    +0.030 A 
ATOM      5  C   UNL     1      -0.089   3.846   0.063  0.00  0.00    +0.020 A 
ATOM      6  C   UNL     1       1.105   3.144  -0.146  0.00  0.00    +0.031 A 
ATOM      7  C   UNL     1       1.095   1.767  -0.154  0.00  0.00    +0.042 A 
ATOM      8  C   UNL     1      -0.094   1.073   0.033  0.00  0.00    +0.023 A 
ATOM      9  C   UNL     1      -1.282   1.750   0.211  0.00  0.00    +0.048 A 
ATOM     10  C   UNL     1      -1.295   3.138   0.221  0.00  0.00    +0.138 A 
ATOM     11  O   UNL     1      -2.465   3.809   0.361  0.00  0.00    -0.439 OA
ATOM     12 CL   UNL     1       2.575   0.894  -0.399  0.00  0.00    -0.084 Cl
ATOM     13  H   UNL     1      -3.248   6.502   2.155  0.00  0.00    +0.169 HD
ENDROOT
BRANCH   1  18
ATOM     14  C   UNL     1      -5.428   4.959   2.930  0.00  0.00    +0.093 A 
ATOM     15  C   UNL     1      -6.415   3.910   3.117  0.00  0.00    -0.021 A 
ATOM     16  C   UNL     1      -6.206   2.761   2.437  0.00  0.00    -0.004 A 
ATOM     17  S   UNL     1      -4.710   3.031   1.526  0.00  0.00    -0.075 S 
ATOM     18  C   UNL     1      -4.354   4.692   2.069  0.00  0.00    +0.095 A 
ATOM     19  C   UNL     1      -7.061   1.531   2.450  0.00  0.00    +0.043 C 
ATOM     20  C   UNL     1      -8.024   1.622   3.643  0.00  0.00    +0.005 C 
ATOM     21  C   UNL     1      -8.671   3.010   3.646  0.00  0.00    +0.005 C 
ATOM     22  C   UNL     1      -7.632   4.067   4.024  0.00  0.00    +0.037 C 
BRANCH  14  23
ATOM     23  C   UNL     1      -5.546   6.207   3.593  0.00  0.00    +0.342 C 
ATOM     24  O   UNL     1      -6.153   7.121   3.066  0.00  0.00    -0.245 OA
BRANCH  23  25
ATOM     25  O   UNL     1      -4.986   6.381   4.808  0.00  0.00    -0.461 OA
BRANCH  25  27
ATOM     26  C   UNL     1      -4.447   7.671   6.779  0.00  0.00    +0.048 C 
ATOM     27  C   UNL     1      -5.145   7.664   5.417  0.00  0.00    +0.229 C 
ENDBRANCH  25  27
ENDBRANCH  23  25
ENDBRANCH  14  23
ENDBRANCH   1  18
BRANCH   3  28
ATOM     28  C   UNL     1      -1.349   7.374   0.551  0.00  0.00    +0.253 C 
ATOM     29  O   UNL     1      -2.381   7.910   0.908  0.00  0.00    -0.270 OA
ATOM     30  N   UNL     1      -0.289   8.126   0.192  0.00  0.00    -0.281 N 
ATOM     31  H   UNL     1       0.671   7.645  -0.047  0.00  0.00    +0.155 HD
BRANCH  30  32
ATOM     32  C   UNL     1      -0.409   9.518   0.125  0.00  0.00    +0.034 A 
ATOM     33  C   UNL     1      -1.612  10.094  -0.265  0.00  0.00    +0.023 A 
ATOM     34  C   UNL     1      -1.729  11.469  -0.327  0.00  0.00    +0.005 A 
ATOM     35  C   UNL     1      -0.648  12.271  -0.010  0.00  0.00    -0.050 A 
ATOM     36  C   UNL     1       0.552  11.700   0.373  0.00  0.00    +0.005 A 
ATOM     37  C   UNL     1       0.674  10.326   0.442  0.00  0.00    +0.023 A 
ATOM     38  C   UNL     1      -0.778  13.771  -0.084  0.00  0.00    +0.044 C 
ENDBRANCH  30  32
ENDBRANCH   3  28
TORSDOF 6
