REMARK  Name = ZINC35303762
REMARK  12 active torsions:
REMARK  status: ('A' for Active; 'I' for Inactive)
REMARK    1  A    between atoms: C_1  and  C_2
REMARK    2  A    between atoms: C_2  and  N_3
REMARK    3  A    between atoms: C_4  and  C_35
REMARK    4  A    between atoms: C_5  and  C_29
REMARK    5  A    between atoms: C_6  and  C_11
REMARK    6  A    between atoms: C_14  and  N_17
REMARK    7  A    between atoms: N_20  and  C_21
REMARK    8  A    between atoms: C_25  and  C_27
REMARK    9  A    between atoms: C_29  and  O_31
REMARK   10  A    between atoms: O_31  and  C_32
REMARK   11  A    between atoms: C_32  and  C_33
REMARK   12  A    between atoms: C_32  and  C_34
REMARK                            x       y       z     vdW  Elec       q    Type
REMARK                         _______ _______ _______ _____ _____    ______ ____
ROOT
ATOM      1  C   UNL     1      -4.223  -2.900   0.174  0.00  0.00    -0.022 A 
ATOM      2  C   UNL     1      -3.246  -3.816  -0.172  0.00  0.00    +0.007 A 
ATOM      3  C   UNL     1      -3.505  -5.170  -0.085  0.00  0.00    +0.024 A 
ATOM      4  C   UNL     1      -4.748  -5.611   0.351  0.00  0.00    +0.035 A 
ATOM      5  C   UNL     1      -5.726  -4.689   0.698  0.00  0.00    +0.024 A 
ATOM      6  C   UNL     1      -5.459  -3.336   0.614  0.00  0.00    +0.007 A 
ENDROOT
BRANCH   1  10
ATOM      7  N   UNL     1      -1.438  -0.261  -0.151  0.00  0.00    -0.286 N 
ATOM      8  C   UNL     1      -1.927  -0.459   1.107  0.00  0.00    +0.021 C 
ATOM      9  C   UNL     1      -3.139  -1.022   1.303  0.00  0.00    +0.078 C 
ATOM     10  C   UNL     1      -3.936  -1.424   0.079  0.00  0.00    +0.141 C 
ATOM     11  N   UNL     1      -3.319  -1.166  -1.233  0.00  0.00    -0.315 N 
ATOM     12  C   UNL     1      -2.100  -0.591  -1.267  0.00  0.00    +0.138 C 
ATOM     13  S   UNL     1      -1.373  -0.280  -2.785  0.00  0.00    -0.018 S 
ATOM     14  C   UNL     1      -1.101  -0.045   2.298  0.00  0.00    +0.061 C 
ATOM     15  H   UNL     1      -3.780  -1.401  -2.054  0.00  0.00    +0.149 HD
BRANCH   7  17
ATOM     16  C   UNL     1       0.964  -0.724  -0.171  0.00  0.00    +0.025 C 
ATOM     17  C   UNL     1      -0.115   0.354  -0.289  0.00  0.00    +0.109 C 
ENDBRANCH   7  17
BRANCH   9  18
ATOM     18  C   UNL     1      -3.647  -1.229   2.606  0.00  0.00    +0.339 C 
ATOM     19  O   UNL     1      -2.990  -0.899   3.575  0.00  0.00    -0.245 OA
BRANCH  18  20
ATOM     20  O   UNL     1      -4.862  -1.793   2.776  0.00  0.00    -0.459 OA
BRANCH  20  21
ATOM     21  C   UNL     1      -5.312  -1.973   4.120  0.00  0.00    +0.171 C 
ATOM     22  C   UNL     1      -6.084  -0.731   4.569  0.00  0.00    +0.052 C 
ATOM     23  C   UNL     1      -6.228  -3.196   4.192  0.00  0.00    +0.052 C 
ENDBRANCH  20  21
ENDBRANCH  18  20
ENDBRANCH   9  18
ENDBRANCH   1  10
BRANCH   4  24
ATOM     24  N   UNL     1      -5.013  -6.982   0.440  0.00  0.00    -0.269 N 
ATOM     25  C   UNL     1      -4.037  -7.836   0.805  0.00  0.00    +0.308 C 
ATOM     26  O   UNL     1      -2.905  -7.426   0.979  0.00  0.00    -0.252 OA
ATOM     27  N   UNL     1      -4.314  -9.143   0.978  0.00  0.00    -0.269 N 
ATOM     28  H   UNL     1      -5.901  -7.318   0.239  0.00  0.00    +0.156 HD
ATOM     29  H   UNL     1      -5.196  -9.485   0.762  0.00  0.00    +0.156 HD
BRANCH  27  30
ATOM     30  C   UNL     1      -3.329 -10.008   1.469  0.00  0.00    +0.036 A 
ATOM     31  C   UNL     1      -3.268 -11.321   1.014  0.00  0.00    +0.023 A 
ATOM     32  C   UNL     1      -2.298 -12.179   1.496  0.00  0.00    +0.003 A 
ATOM     33  C   UNL     1      -1.383 -11.740   2.431  0.00  0.00    +0.019 A 
ATOM     34  C   UNL     1      -1.436 -10.424   2.894  0.00  0.00    +0.054 A 
ATOM     35  C   UNL     1      -2.412  -9.555   2.403  0.00  0.00    +0.042 A 
BRANCH  34  36
ATOM     36  C   UNL     1      -0.489  -9.965   3.865  0.00  0.00    +0.099 C 
ATOM     37  N   UNL     1       0.263  -9.601   4.636  0.00  0.00    -0.191 NA
ENDBRANCH  34  36
ENDBRANCH  27  30
ENDBRANCH   4  24
TORSDOF 8
