REMARK  Name = ZINC19812257
REMARK  9 active torsions:
REMARK  status: ('A' for Active; 'I' for Inactive)
REMARK    1  A    between atoms: C_1  and  C_2
REMARK    2  A    between atoms: C_5  and  C_9
REMARK    3  A    between atoms: C_12  and  C_14
REMARK    4  A    between atoms: C_14  and  C_15
REMARK    5  A    between atoms: C_14  and  C_23
REMARK    6  A    between atoms: C_16  and  C_22
REMARK    7  A    between atoms: C_20  and  O_21
REMARK    8  A    between atoms: C_24  and  C_30
REMARK    9  A    between atoms: C_28  and  O_29
REMARK                            x       y       z     vdW  Elec       q    Type
REMARK                         _______ _______ _______ _____ _____    ______ ____
ROOT
ATOM      1  C   UNL     1       0.105  -7.506  -1.670  0.00  0.00    +0.129 C 
ENDROOT
BRANCH   1   2
ATOM      2  C   UNL     1      -1.025  -7.394  -2.659  0.00  0.00    +0.051 A 
ATOM      3  C   UNL     1      -2.313  -6.921  -2.389  0.00  0.00    +0.068 A 
ATOM      4  N   UNL     1      -3.010  -6.974  -3.494  0.00  0.00    -0.176 NA
ATOM      5  N   UNL     1      -2.190  -7.483  -4.509  0.00  0.00    -0.247 N 
ATOM      6  H   UNL     1      -2.449  -7.630  -5.433  0.00  0.00    +0.192 HD
ATOM      7  C   UNL     1      -0.973  -7.730  -3.976  0.00  0.00    +0.213 A 
ATOM      8  C   UNL     1      -2.812  -6.435  -1.053  0.00  0.00    +0.068 C 
BRANCH   7   9
ATOM      9  O   UNL     1       0.105  -8.226  -4.635  0.00  0.00    -0.492 OA
ATOM     10  H   UNL     1       0.121  -9.191  -4.692  0.00  0.00    +0.294 HD
ENDBRANCH   7   9
ENDBRANCH   1   2
BRANCH   1  11
ATOM     11  C   UNL     1       1.420  -7.493  -2.406  0.00  0.00    +0.051 A 
ATOM     12  C   UNL     1       2.333  -8.491  -2.423  0.00  0.00    +0.041 A 
ATOM     13  N   UNL     1       3.367  -8.092  -3.193  0.00  0.00    -0.278 N 
ATOM     14  N   UNL     1       3.084  -6.804  -3.666  0.00  0.00    -0.136 NA
ATOM     15  H   UNL     1       4.167  -8.606  -3.385  0.00  0.00    +0.189 HD
ATOM     16  C   UNL     1       1.912  -6.446  -3.199  0.00  0.00    +0.236 A 
ATOM     17  C   UNL     1       2.216  -9.813  -1.710  0.00  0.00    +0.065 C 
BRANCH  16  18
ATOM     18  O   UNL     1       1.285  -5.263  -3.439  0.00  0.00    -0.491 OA
ATOM     19  H   UNL     1       1.496  -4.569  -2.800  0.00  0.00    +0.294 HD
ENDBRANCH  16  18
ENDBRANCH   1  11
BRANCH   1  23
ATOM     20  C   UNL     1       0.057  -4.286   0.056  0.00  0.00    +0.135 A 
ATOM     21  C   UNL     1      -0.088  -5.113   1.125  0.00  0.00    +0.050 A 
ATOM     22  C   UNL     1      -0.089  -6.430   0.623  0.00  0.00    +0.046 A 
ATOM     23  C   UNL     1       0.053  -6.342  -0.714  0.00  0.00    +0.118 A 
ATOM     24  O   UNL     1       0.136  -5.045  -1.054  0.00  0.00    -0.459 OA
BRANCH  20  29
ATOM     25  C   UNL     1       0.269   1.462   0.233  0.00  0.00    +0.045 C 
ATOM     26  C   UNL     1       0.213  -0.043   0.187  0.00  0.00    -0.036 A 
ATOM     27  C   UNL     1       0.308  -0.699  -1.028  0.00  0.00    +0.005 A 
ATOM     28  C   UNL     1       0.258  -2.076  -1.077  0.00  0.00    +0.012 A 
ATOM     29  C   UNL     1       0.112  -2.810   0.102  0.00  0.00    +0.018 A 
ATOM     30  C   UNL     1       0.017  -2.143   1.324  0.00  0.00    +0.027 A 
ATOM     31  C   UNL     1       0.074  -0.764   1.361  0.00  0.00    +0.021 A 
ATOM     32 BR   UNL     1      -0.046   0.142   3.016  0.00  0.00    -0.050 Br
ENDBRANCH  20  29
ENDBRANCH   1  23
TORSDOF 6
