REMARK  Name = ZINC35965867
REMARK  13 active torsions:
REMARK  status: ('A' for Active; 'I' for Inactive)
REMARK    1  A    between atoms: C_1  and  C_2
REMARK    2  A    between atoms: C_2  and  N_3
REMARK    3  A    between atoms: C_6  and  C_11
REMARK    4  A    between atoms: C_14  and  C_17
REMARK    5  A    between atoms: N_23  and  C_25
REMARK    6  A    between atoms: C_25  and  C_27
REMARK    7  A    between atoms: C_25  and  C_30
REMARK    8  A    between atoms: C_27  and  C_28
REMARK    9  A    between atoms: C_27  and  C_29
REMARK   10  A    between atoms: N_32  and  C_33
REMARK   11  A    between atoms: C_33  and  C_34
REMARK   12  A    between atoms: C_34  and  C_35
REMARK   13  A    between atoms: C_34  and  C_36
REMARK                            x       y       z     vdW  Elec       q    Type
REMARK                         _______ _______ _______ _____ _____    ______ ____
ROOT
ATOM      1  N   UNL     1      -1.033   0.015  -0.143  0.00  0.00    -0.257 N 
ATOM      2  C   UNL     1      -1.253  -0.305  -1.452  0.00  0.00    +0.042 C 
ATOM      3  C   UNL     1      -0.241  -0.679  -2.260  0.00  0.00    +0.058 C 
ATOM      4  C   UNL     1       1.152  -0.732  -1.666  0.00  0.00    +0.142 C 
ATOM      5  N   UNL     1       1.285  -0.368  -0.245  0.00  0.00    -0.288 N 
ATOM      6  C   UNL     1       0.177  -0.009   0.432  0.00  0.00    +0.307 C 
ATOM      7  O   UNL     1       0.277   0.297   1.604  0.00  0.00    -0.252 OA
ATOM      8  C   UNL     1      -0.724  -0.956  -3.556  0.00  0.00    +0.247 C 
ATOM      9  O   UNL     1      -0.028  -1.316  -4.488  0.00  0.00    -0.270 OA
ATOM     10  N   UNL     1      -2.054  -0.772  -3.628  0.00  0.00    -0.280 N 
ATOM     11  C   UNL     1      -2.507  -0.342  -2.297  0.00  0.00    +0.160 C 
ATOM     12  H   UNL     1       2.151  -0.383   0.192  0.00  0.00    +0.151 HD
ENDROOT
BRANCH   4  13
ATOM     13  C   UNL     1       2.034   0.191  -2.466  0.00  0.00    -0.023 A 
ATOM     14  C   UNL     1       2.007   1.552  -2.227  0.00  0.00    +0.006 A 
ATOM     15  C   UNL     1       2.816   2.399  -2.961  0.00  0.00    +0.013 A 
ATOM     16  C   UNL     1       3.653   1.885  -3.934  0.00  0.00    +0.055 A 
ATOM     17  C   UNL     1       3.681   0.524  -4.172  0.00  0.00    +0.013 A 
ATOM     18  C   UNL     1       2.875  -0.324  -3.435  0.00  0.00    +0.006 A 
BRANCH  16  19
ATOM     19  C   UNL     1       4.534   2.809  -4.735  0.00  0.00    +0.417 C 
ATOM     20  F   UNL     1       5.765   2.958  -4.086  0.00  0.00    -0.166 F 
ATOM     21  F   UNL     1       4.741   2.268  -6.008  0.00  0.00    -0.166 F 
ATOM     22  F   UNL     1       3.915   4.058  -4.853  0.00  0.00    -0.166 F 
ENDBRANCH  16  19
ENDBRANCH   4  13
BRANCH   1  24
ATOM     23  C   UNL     1      -2.372   1.929   0.582  0.00  0.00    +0.025 C 
ATOM     24  C   UNL     1      -2.181   0.414   0.675  0.00  0.00    +0.111 C 
ENDBRANCH   1  24
BRANCH  10  25
ATOM     25  C   UNL     1      -2.896  -0.963  -4.812  0.00  0.00    +0.165 C 
BRANCH  25  26
ATOM     26  C   UNL     1      -2.792  -2.393  -5.276  0.00  0.00    +0.234 C 
ATOM     27  O   UNL     1      -1.931  -3.117  -4.823  0.00  0.00    -0.274 OA
ATOM     28  N   UNL     1      -3.657  -2.868  -6.194  0.00  0.00    -0.314 N 
ATOM     29  H   UNL     1      -4.386  -2.310  -6.508  0.00  0.00    +0.149 HD
BRANCH  28  30
ATOM     30  C   UNL     1      -3.497  -4.227  -6.717  0.00  0.00    +0.107 C 
BRANCH  30  31
ATOM     31  C   UNL     1      -4.601  -4.514  -7.736  0.00  0.00    -0.000 C 
ATOM     32  C   UNL     1      -4.362  -5.885  -8.374  0.00  0.00    +0.009 C 
ATOM     33  C   UNL     1      -5.959  -4.509  -7.032  0.00  0.00    +0.009 C 
ENDBRANCH  30  31
ENDBRANCH  28  30
ENDBRANCH  25  26
BRANCH  25  34
ATOM     34  C   UNL     1      -2.424  -0.029  -5.929  0.00  0.00    +0.012 C 
ATOM     35  C   UNL     1      -3.392  -0.118  -7.110  0.00  0.00    +0.009 C 
ATOM     36  C   UNL     1      -2.384   1.409  -5.408  0.00  0.00    +0.009 C 
ENDBRANCH  25  34
ENDBRANCH  10  25
TORSDOF 8
