REMARK  Name = ZINC39626769
REMARK  10 active torsions:
REMARK  status: ('A' for Active; 'I' for Inactive)
REMARK    1  A    between atoms: C_1  and  C_2
REMARK    2  A    between atoms: C_2  and  N_3
REMARK    3  A    between atoms: N_3  and  C_4
REMARK    4  A    between atoms: N_3  and  C_6
REMARK    5  A    between atoms: C_4  and  C_5
REMARK    6  A    between atoms: C_6  and  C_7
REMARK    7  A    between atoms: C_7  and  N_8
REMARK    8  A    between atoms: C_9  and  C_11
REMARK    9  A    between atoms: C_22  and  C_24
REMARK   10  A    between atoms: C_26  and  C_31
REMARK                            x       y       z     vdW  Elec       q    Type
REMARK                         _______ _______ _______ _____ _____    ______ ____
ROOT
ATOM      1  C   UNL     1      -1.726  -4.953   3.587  0.00  0.00    +0.100 C 
ATOM      2  C   UNL     1      -3.147  -5.458   3.255  0.00  0.00    +0.121 C 
ATOM      3  N   UNL     1      -3.391  -6.554   4.222  0.00  0.00    -0.296 N 
ATOM      4  C   UNL     1      -2.791  -6.069   5.488  0.00  0.00    +0.115 C 
ATOM      5  C   UNL     1      -1.496  -5.355   5.054  0.00  0.00    -0.004 C 
ATOM      6  C   UNL     1      -1.264  -4.115   5.912  0.00  0.00    -0.010 C 
ATOM      7  C   UNL     1      -0.981  -4.544   7.355  0.00  0.00    -0.082 C 
ATOM      8  N   UNL     1       0.202  -5.413   7.385  0.00  0.00    +0.379 N 
ATOM      9  C   UNL     1      -0.063  -6.646   6.634  0.00  0.00    -0.082 C 
ATOM     10  C   UNL     1      -0.307  -6.306   5.161  0.00  0.00    -0.010 C 
ATOM     11  C   UNL     1      -4.015  -7.728   4.000  0.00  0.00    +0.247 C 
ATOM     12  O   UNL     1      -4.380  -8.020   2.877  0.00  0.00    -0.270 OA
ATOM     13  H   UNL     1       0.984  -4.929   6.970  0.00  0.00    -0.086 HD
ATOM     14  H   UNL     1       0.423  -5.644   8.342  0.00  0.00    -0.086 HD
ENDROOT
BRANCH  11  15
ATOM     15  C   UNL     1      -4.257  -8.660   5.121  0.00  0.00    +0.040 A 
ATOM     16  C   UNL     1      -4.458 -10.019   4.872  0.00  0.00    +0.025 A 
ATOM     17  C   UNL     1      -4.682 -10.885   5.922  0.00  0.00    +0.058 A 
ATOM     18  C   UNL     1      -4.710 -10.411   7.221  0.00  0.00    +0.050 A 
ATOM     19  C   UNL     1      -4.512  -9.063   7.477  0.00  0.00    +0.125 A 
ATOM     20  C   UNL     1      -4.280  -8.187   6.434  0.00  0.00    +0.051 A 
ATOM     21  F   UNL     1      -4.540  -8.607   8.748  0.00  0.00    -0.205 F 
BRANCH  17  22
ATOM     22  C   UNL     1      -4.900 -12.352   5.653  0.00  0.00    +0.418 C 
ATOM     23  F   UNL     1      -3.669 -13.017   5.674  0.00  0.00    -0.166 F 
ATOM     24  F   UNL     1      -5.736 -12.888   6.638  0.00  0.00    -0.166 F 
ATOM     25  F   UNL     1      -5.496 -12.513   4.398  0.00  0.00    -0.166 F 
ENDBRANCH  17  22
ENDBRANCH  11  15
BRANCH   1  27
ATOM     26  N   UNL     1      -0.486  -2.868   3.103  0.00  0.00    -0.317 N 
ATOM     27  C   UNL     1      -1.652  -3.455   3.437  0.00  0.00    +0.218 C 
ATOM     28  O   UNL     1      -2.642  -2.778   3.616  0.00  0.00    -0.275 OA
ATOM     29  H   UNL     1       0.306  -3.409   2.959  0.00  0.00    +0.149 HD
BRANCH  26  30
ATOM     30  C   UNL     1      -0.414  -1.412   2.956  0.00  0.00    +0.085 C 
BRANCH  30  31
ATOM     31  C   UNL     1       1.011  -1.007   2.576  0.00  0.00    -0.060 C 
BRANCH  31  32
ATOM     32  N   UNL     1       1.083   0.453   2.429  0.00  0.00    +0.380 N 
ATOM     33  H   UNL     1       0.387   0.758   1.765  0.00  0.00    -0.082 HD
BRANCH  32  35
ATOM     34  C   UNL     1       0.812   2.609   3.558  0.00  0.00    -0.017 C 
ATOM     35  C   UNL     1       0.832   1.089   3.729  0.00  0.00    -0.082 C 
ENDBRANCH  32  35
BRANCH  32  36
ATOM     36  C   UNL     1       2.418   0.831   1.948  0.00  0.00    -0.082 C 
ATOM     37  C   UNL     1       2.640   0.252   0.549  0.00  0.00    -0.017 C 
ENDBRANCH  32  36
ENDBRANCH  31  32
ENDBRANCH  30  31
ENDBRANCH  26  30
ENDBRANCH   1  27
TORSDOF 8
