REMARK  Name = ZINC01800723
REMARK  11 active torsions:
REMARK  status: ('A' for Active; 'I' for Inactive)
REMARK    1  A    between atoms: C_1  and  C_2
REMARK    2  A    between atoms: C_5  and  N_8
REMARK    3  A    between atoms: C_20  and  S_21
REMARK    4  A    between atoms: S_21  and  C_22
REMARK    5  A    between atoms: C_22  and  C_24
REMARK    6  A    between atoms: C_22  and  C_25
REMARK    7  A    between atoms: N_27  and  C_28
REMARK    8  A    between atoms: C_28  and  C_29
REMARK    9  A    between atoms: C_37  and  C_40
REMARK   10  A    between atoms: C_40  and  C_41
REMARK   11  A    between atoms: C_40  and  C_42
REMARK                            x       y       z     vdW  Elec       q    Type
REMARK                         _______ _______ _______ _____ _____    ______ ____
ROOT
ATOM      1  N   UNL     1       0.059  -4.170  -0.021  0.00  0.00    -0.245 N 
ATOM      2  C   UNL     1      -0.035  -4.823  -1.191  0.00  0.00    +0.268 A 
ATOM      3  O   UNL     1      -0.136  -4.199  -2.232  0.00  0.00    -0.266 OA
ATOM      4  C   UNL     1      -0.016  -6.303  -1.211  0.00  0.00    +0.075 A 
ATOM      5  C   UNL     1      -0.102  -7.192  -2.367  0.00  0.00    -0.018 A 
ATOM      6  C   UNL     1      -0.059  -8.510  -2.078  0.00  0.00    +0.021 A 
ATOM      7  S   UNL     1       0.090  -8.576  -0.319  0.00  0.00    -0.072 S 
ATOM      8  C   UNL     1       0.099  -6.938   0.022  0.00  0.00    +0.102 A 
ATOM      9  N   UNL     1       0.193  -6.224   1.198  0.00  0.00    -0.249 N 
ATOM     10  C   UNL     1       0.179  -4.854   1.179  0.00  0.00    +0.245 A 
ATOM     11  N   UNL     1       0.290  -4.431   2.416  0.00  0.00    -0.109 NA
ATOM     12  N   UNL     1       0.382  -5.550   3.252  0.00  0.00    -0.120 NA
ATOM     13  C   UNL     1       0.313  -6.623   2.503  0.00  0.00    +0.199 A 
ATOM     14  C   UNL     1      -0.124  -9.630  -3.068  0.00  0.00    +0.203 C 
ATOM     15  O   UNL     1       0.086  -9.072  -4.375  0.00  0.00    -0.371 OA
ATOM     16  C   UNL     1      -0.718  -7.921  -4.645  0.00  0.00    +0.126 C 
ATOM     17  C   UNL     1      -0.232  -6.729  -3.812  0.00  0.00    +0.068 C 
ENDROOT
BRANCH   1  22
ATOM     18  C   UNL     1      -0.017   1.503   0.008  0.00  0.00    +0.044 C 
ATOM     19  C   UNL     1       0.003  -0.004   0.001  0.00  0.00    -0.050 A 
ATOM     20  C   UNL     1       1.206  -0.677  -0.110  0.00  0.00    +0.005 A 
ATOM     21  C   UNL     1       1.228  -2.058  -0.117  0.00  0.00    +0.026 A 
ATOM     22  C   UNL     1       0.040  -2.771  -0.013  0.00  0.00    +0.053 A 
ATOM     23  C   UNL     1      -1.166  -2.091   0.098  0.00  0.00    +0.026 A 
ATOM     24  C   UNL     1      -1.181  -0.710   0.110  0.00  0.00    +0.005 A 
ENDBRANCH   1  22
BRANCH  16  25
ATOM     25  C   UNL     1      -0.619  -7.570  -6.131  0.00  0.00    +0.012 C 
ATOM     26  C   UNL     1      -1.117  -8.749  -6.968  0.00  0.00    +0.010 C 
ATOM     27  C   UNL     1      -1.478  -6.338  -6.423  0.00  0.00    +0.010 C 
ENDBRANCH  16  25
BRANCH  13  28
ATOM     28  S   UNL     1       0.384  -8.289   3.073  0.00  0.00    -0.073 S 
BRANCH  28  29
ATOM     29  C   UNL     1       0.541  -8.130   4.874  0.00  0.00    +0.137 C 
ATOM     30  C   UNL     1      -0.730  -7.495   5.442  0.00  0.00    +0.029 C 
BRANCH  29  31
ATOM     31  C   UNL     1       0.736  -9.495   5.483  0.00  0.00    +0.226 C 
ATOM     32  O   UNL     1       0.413 -10.487   4.865  0.00  0.00    -0.275 OA
ATOM     33  N   UNL     1       1.268  -9.613   6.715  0.00  0.00    -0.310 N 
ATOM     34  H   UNL     1       1.526  -8.819   7.210  0.00  0.00    +0.149 HD
BRANCH  33  35
ATOM     35  C   UNL     1       1.458 -10.939   7.308  0.00  0.00    +0.139 C 
BRANCH  35  36
ATOM     36  C   UNL     1       2.066 -10.794   8.680  0.00  0.00    -0.030 A 
ATOM     37  C   UNL     1       3.440 -10.780   8.829  0.00  0.00    +0.005 A 
ATOM     38  C   UNL     1       3.997 -10.647  10.087  0.00  0.00    +0.000 A 
ATOM     39  C   UNL     1       3.180 -10.528  11.195  0.00  0.00    +0.000 A 
ATOM     40  C   UNL     1       1.806 -10.542  11.046  0.00  0.00    +0.000 A 
ATOM     41  C   UNL     1       1.249 -10.670   9.788  0.00  0.00    +0.005 A 
ENDBRANCH  35  36
ENDBRANCH  33  35
ENDBRANCH  29  31
ENDBRANCH  28  29
ENDBRANCH  13  28
TORSDOF 7
