REMARK  Name = ZINC12889543
REMARK  3 active torsions:
REMARK  status: ('A' for Active; 'I' for Inactive)
REMARK    1  A    between atoms: C_1  and  C_2
REMARK    2  A    between atoms: C_22  and  C_29
REMARK    3  A    between atoms: C_29  and  C_31
REMARK                            x       y       z     vdW  Elec       q    Type
REMARK                         _______ _______ _______ _____ _____    ______ ____
ROOT
ATOM      1  C   UNL     1      11.989  -0.918   0.209  0.00  0.00    +0.045 C 
ATOM      2  C   UNL     1      10.779  -0.075   0.518  0.00  0.00    -0.029 A 
ATOM      3  C   UNL     1      10.889   0.995   1.382  0.00  0.00    +0.005 A 
ATOM      4  C   UNL     1       9.784   1.774   1.673  0.00  0.00    +0.001 A 
ATOM      5  C   UNL     1       8.562   1.479   1.093  0.00  0.00    +0.004 A 
ATOM      6  C   UNL     1       8.448   0.413   0.230  0.00  0.00    -0.026 A 
ATOM      7  C   UNL     1       9.553  -0.379  -0.069  0.00  0.00    +0.039 A 
ATOM      8  N   UNL     1       9.193  -1.392  -0.959  0.00  0.00    -0.286 N 
ATOM      9  C   UNL     1       7.890  -1.336  -1.293  0.00  0.00    +0.212 C 
ATOM     10  O   UNL     1       7.305  -2.084  -2.047  0.00  0.00    -0.277 OA
ATOM     11  C   UNL     1       7.298  -0.166  -0.551  0.00  0.00    +0.060 C 
ATOM     12  C   UNL     1       6.165  -0.608   0.369  0.00  0.00    +0.085 C 
ATOM     13  C   UNL     1       5.920  -2.089   0.290  0.00  0.00    -0.011 A 
ATOM     14  C   UNL     1       5.596  -2.942  -0.741  0.00  0.00    +0.006 A 
ATOM     15  C   UNL     1       5.431  -4.294  -0.494  0.00  0.00    +0.000 A 
ATOM     16  C   UNL     1       5.591  -4.783   0.790  0.00  0.00    +0.002 A 
ATOM     17  C   UNL     1       5.916  -3.932   1.825  0.00  0.00    +0.023 A 
ATOM     18  C   UNL     1       6.085  -2.570   1.585  0.00  0.00    +0.038 A 
ATOM     19  N   UNL     1       6.410  -1.524   2.452  0.00  0.00    -0.285 N 
ATOM     20  C   UNL     1       6.477  -0.339   1.815  0.00  0.00    +0.228 C 
ATOM     21  O   UNL     1       6.739   0.736   2.312  0.00  0.00    -0.275 OA
ATOM     22  C   UNL     1       4.926   0.183  -0.088  0.00  0.00    +0.066 C 
ATOM     23  C   UNL     1       5.276   0.553  -1.552  0.00  0.00    -0.055 C 
ATOM     24  C   UNL     1       6.845   2.185  -0.898  0.00  0.00    -0.076 C 
ATOM     25  C   UNL     1       5.657   2.976  -1.483  0.00  0.00    -0.020 C 
ATOM     26  C   UNL     1       4.626   1.906  -1.894  0.00  0.00    -0.016 C 
ATOM     27  H   UNL     1       9.810  -2.060  -1.297  0.00  0.00    +0.155 HD
ATOM     28  H   UNL     1       6.567  -1.638   3.402  0.00  0.00    +0.155 HD
ATOM     29  N   UNL     1       6.698   0.835  -1.459  0.00  0.00    +0.395 N 
ATOM     30  H   UNL     1       7.141   0.784  -2.384  0.00  0.00    -0.079 HD
ENDROOT
BRANCH  22  31
ATOM     31  C   UNL     1       3.691  -0.680  -0.035  0.00  0.00    +0.166 C 
ATOM     32  O   UNL     1       3.330  -1.282  -1.024  0.00  0.00    -0.292 OA
BRANCH  31  33
ATOM     33  C   UNL     1       2.924  -0.790   1.216  0.00  0.00    +0.018 A 
ATOM     34  C   UNL     1       1.849  -1.680   1.304  0.00  0.00    +0.011 A 
ATOM     35  C   UNL     1       1.135  -1.778   2.480  0.00  0.00    +0.001 A 
ATOM     36  C   UNL     1       1.481  -1.000   3.571  0.00  0.00    +0.000 A 
ATOM     37  C   UNL     1       2.544  -0.117   3.491  0.00  0.00    +0.001 A 
ATOM     38  C   UNL     1       3.267  -0.007   2.322  0.00  0.00    +0.011 A 
ENDBRANCH  31  33
ENDBRANCH  22  31
TORSDOF 2
