REMARK  Name = ZINC14012019
REMARK  4 active torsions:
REMARK  status: ('A' for Active; 'I' for Inactive)
REMARK    1  A    between atoms: C_6  and  N_7
REMARK    2  A    between atoms: C_19  and  C_21
REMARK    3  A    between atoms: C_21  and  C_22
REMARK    4  A    between atoms: N_24  and  C_25
REMARK                            x       y       z     vdW  Elec       q    Type
REMARK                         _______ _______ _______ _____ _____    ______ ____
ROOT
ATOM      1  N   UNL     1       3.587  -0.604  -0.164  0.00  0.00    -0.214 N 
ATOM      2  C   UNL     1       2.511   0.226  -0.097  0.00  0.00    +0.171 A 
ATOM      3  C   UNL     1       1.367  -0.589  -0.126  0.00  0.00    +0.103 A 
ATOM      4  C   UNL     1       1.816  -1.925  -0.212  0.00  0.00    +0.150 A 
ATOM      5  N   UNL     1       3.119  -1.922  -0.234  0.00  0.00    -0.172 NA
ATOM      6  C   UNL     1       0.095   0.020  -0.068  0.00  0.00    +0.266 A 
ATOM      7  O   UNL     1      -0.912  -0.666  -0.091  0.00  0.00    -0.267 OA
ATOM      8  N   UNL     1      -0.006   1.386   0.014  0.00  0.00    -0.283 N 
ATOM      9  C   UNL     1       1.158   2.100   0.037  0.00  0.00    +0.174 A 
ATOM     10  N   UNL     1       2.351   1.551  -0.015  0.00  0.00    -0.203 NA
ATOM     11  S   UNL     1       0.704   3.818   0.146  0.00  0.00    -0.085 S 
ATOM     12  C   UNL     1      -1.118   3.643   0.167  0.00  0.00    +0.103 C 
ATOM     13  C   UNL     1      -1.270   2.119   0.073  0.00  0.00    +0.112 C 
ENDROOT
BRANCH   1  19
ATOM     14  C   UNL     1       5.310   0.968  -0.797  0.00  0.00    +0.029 A 
ATOM     15  C   UNL     1       6.634   1.359  -0.792  0.00  0.00    +0.022 A 
ATOM     16  C   UNL     1       7.586   0.573  -0.166  0.00  0.00    +0.041 A 
ATOM     17  C   UNL     1       7.212  -0.603   0.461  0.00  0.00    +0.022 A 
ATOM     18  C   UNL     1       5.888  -0.995   0.463  0.00  0.00    +0.029 A 
ATOM     19  C   UNL     1       4.931  -0.208  -0.165  0.00  0.00    +0.068 A 
ATOM     20 CL   UNL     1       9.251   1.064  -0.165  0.00  0.00    -0.084 Cl
ENDBRANCH   1  19
BRANCH  13  21
ATOM     21  C   UNL     1      -2.083   1.784  -1.179  0.00  0.00    +0.122 C 
BRANCH  21  22
ATOM     22  C   UNL     1      -3.452   2.406  -1.070  0.00  0.00    +0.219 C 
ATOM     23  O   UNL     1      -3.731   3.094  -0.110  0.00  0.00    -0.275 OA
ATOM     24  N   UNL     1      -4.365   2.199  -2.039  0.00  0.00    -0.284 N 
ATOM     25  H   UNL     1      -4.170   1.587  -2.766  0.00  0.00    +0.155 HD
BRANCH  24  26
ATOM     26  C   UNL     1      -5.595   2.866  -1.996  0.00  0.00    +0.053 A 
ATOM     27  C   UNL     1      -6.170   3.185  -0.773  0.00  0.00    +0.044 A 
ATOM     28  C   UNL     1      -7.385   3.844  -0.734  0.00  0.00    +0.043 A 
ATOM     29  C   UNL     1      -8.027   4.185  -1.911  0.00  0.00    +0.021 A 
ATOM     30  C   UNL     1      -7.457   3.869  -3.130  0.00  0.00    +0.023 A 
ATOM     31  C   UNL     1      -6.240   3.215  -3.176  0.00  0.00    +0.062 A 
ATOM     32 CL   UNL     1      -5.521   2.824  -4.707  0.00  0.00    -0.082 Cl
ATOM     33 CL   UNL     1      -8.105   4.244   0.794  0.00  0.00    -0.083 Cl
ENDBRANCH  24  26
ENDBRANCH  21  22
ENDBRANCH  13  21
TORSDOF 4
