REMARK  Name = ZINC18050642
REMARK  11 active torsions:
REMARK  status: ('A' for Active; 'I' for Inactive)
REMARK    1  A    between atoms: C_1  and  C_2
REMARK    2  A    between atoms: C_2  and  O_3
REMARK    3  A    between atoms: O_3  and  C_4
REMARK    4  A    between atoms: C_5  and  O_31
REMARK    5  A    between atoms: C_7  and  C_11
REMARK    6  A    between atoms: N_13  and  N_14
REMARK    7  A    between atoms: C_15  and  C_17
REMARK    8  A    between atoms: C_17  and  C_19
REMARK    9  A    between atoms: C_17  and  O_20
REMARK   10  A    between atoms: O_20  and  C_21
REMARK   11  A    between atoms: O_31  and  C_32
REMARK                            x       y       z     vdW  Elec       q    Type
REMARK                         _______ _______ _______ _____ _____    ______ ____
ROOT
ATOM      1  N   UNL     1      -0.060   5.628  -0.257  0.00  0.00    -0.231 N 
ATOM      2  C   UNL     1      -1.224   6.304  -0.202  0.00  0.00    +0.270 C 
ATOM      3  O   UNL     1      -2.274   5.720  -0.366  0.00  0.00    -0.270 OA
ATOM      4  H   UNL     1       0.780   6.096  -0.126  0.00  0.00    +0.173 HD
ENDROOT
BRANCH   1   7
ATOM      5  C   UNL     1       1.102   3.572  -0.560  0.00  0.00    +0.260 C 
ATOM      6  O   UNL     1       2.154   4.158  -0.395  0.00  0.00    -0.269 OA
ATOM      7  N   UNL     1      -0.062   4.249  -0.504  0.00  0.00    -0.230 N 
ATOM      8  H   UNL     1      -0.902   3.781  -0.636  0.00  0.00    +0.173 HD
BRANCH   5  12
ATOM      9  C   UNL     1       1.090  -0.612  -1.310  0.00  0.00    +0.176 A 
ATOM     10  C   UNL     1       2.299   0.056  -1.121  0.00  0.00    +0.163 A 
ATOM     11  C   UNL     1       2.306   1.416  -0.877  0.00  0.00    +0.062 A 
ATOM     12  C   UNL     1       1.099   2.119  -0.820  0.00  0.00    +0.043 A 
ATOM     13  C   UNL     1      -0.108   1.444  -1.010  0.00  0.00    +0.032 A 
ATOM     14  C   UNL     1      -0.109   0.087  -1.253  0.00  0.00    +0.064 A 
ATOM     15 BR   UNL     1      -1.746  -0.825  -1.509  0.00  0.00    -0.046 Br
BRANCH  10  16
ATOM     16  O   UNL     1       3.471  -0.630  -1.177  0.00  0.00    -0.491 OA
ATOM     17  C   UNL     1       4.672   0.118  -0.975  0.00  0.00    +0.277 C 
ENDBRANCH  10  16
BRANCH   9  18
ATOM     18  O   UNL     1       1.085  -1.949  -1.549  0.00  0.00    -0.487 OA
BRANCH  18  20
ATOM     19  C   UNL     1       1.136  -3.892  -2.985  0.00  0.00    +0.048 C 
ATOM     20  C   UNL     1       1.153  -2.363  -2.915  0.00  0.00    +0.226 C 
ENDBRANCH  18  20
ENDBRANCH   9  18
ENDBRANCH   5  12
ENDBRANCH   1   7
BRANCH   2  21
ATOM     21  C   UNL     1      -1.222   7.788   0.065  0.00  0.00    +0.257 C 
ATOM     22  C   UNL     1      -0.540   8.513  -1.097  0.00  0.00    +0.062 C 
BRANCH  21  23
ATOM     23  O   UNL     1      -2.568   8.251   0.191  0.00  0.00    -0.480 OA
BRANCH  23  24
ATOM     24  C   UNL     1      -2.764   9.385   0.913  0.00  0.00    +0.122 A 
ATOM     25  C   UNL     1      -1.661  10.098   1.393  0.00  0.00    +0.046 A 
ATOM     26  C   UNL     1      -1.825  11.236   2.119  0.00  0.00    +0.012 A 
ATOM     27  C   UNL     1      -3.121  11.707   2.392  0.00  0.00    -0.018 A 
ATOM     28  C   UNL     1      -3.328  12.880   3.138  0.00  0.00    +0.008 A 
ATOM     29  C   UNL     1      -4.596  13.308   3.384  0.00  0.00    +0.001 A 
ATOM     30  C   UNL     1      -5.697  12.600   2.907  0.00  0.00    +0.001 A 
ATOM     31  C   UNL     1      -5.536  11.460   2.181  0.00  0.00    +0.008 A 
ATOM     32  C   UNL     1      -4.241  10.987   1.907  0.00  0.00    -0.014 A 
ATOM     33  C   UNL     1      -4.037   9.818   1.156  0.00  0.00    +0.054 A 
ENDBRANCH  23  24
ENDBRANCH  21  23
ENDBRANCH   2  21
TORSDOF 8
