REMARK  Name = ZINC39696303
REMARK  9 active torsions:
REMARK  status: ('A' for Active; 'I' for Inactive)
REMARK    1  A    between atoms: C_1  and  C_2
REMARK    2  A    between atoms: C_2  and  C_3
REMARK    3  A    between atoms: C_6  and  C_9
REMARK    4  A    between atoms: C_9  and  C_11
REMARK    5  A    between atoms: C_9  and  N_12
REMARK    6  A    between atoms: C_13  and  C_15
REMARK    7  A    between atoms: C_26  and  C_28
REMARK    8  A    between atoms: C_28  and  C_29
REMARK    9  A    between atoms: C_32  and  C_35
REMARK                            x       y       z     vdW  Elec       q    Type
REMARK                         _______ _______ _______ _____ _____    ______ ____
ROOT
ATOM      1  C   UNL     1       5.888  -0.338  -6.233  0.00  0.00    +0.100 C 
ATOM      2  C   UNL     1       5.729   1.166  -5.918  0.00  0.00    +0.121 C 
ATOM      3  N   UNL     1       6.631   1.847  -6.876  0.00  0.00    -0.300 N 
ATOM      4  C   UNL     1       6.470   1.086  -8.138  0.00  0.00    +0.115 C 
ATOM      5  C   UNL     1       6.374  -0.387  -7.692  0.00  0.00    -0.004 C 
ATOM      6  C   UNL     1       5.368  -1.136  -8.559  0.00  0.00    -0.010 C 
ATOM      7  C   UNL     1       5.900  -1.222  -9.993  0.00  0.00    -0.082 C 
ATOM      8  N   UNL     1       7.193  -1.918  -9.995  0.00  0.00    +0.379 N 
ATOM      9  C   UNL     1       8.181  -1.142  -9.235  0.00  0.00    -0.082 C 
ATOM     10  C   UNL     1       7.744  -1.053  -7.770  0.00  0.00    -0.010 C 
ATOM     11  C   UNL     1       7.419   2.917  -6.652  0.00  0.00    +0.220 C 
ATOM     12  O   UNL     1       8.106   3.363  -7.546  0.00  0.00    -0.275 OA
ATOM     13  H   UNL     1       7.084  -2.828  -9.573  0.00  0.00    -0.086 HD
ATOM     14  H   UNL     1       7.513  -2.027 -10.946  0.00  0.00    -0.086 HD
ENDROOT
BRANCH   1  16
ATOM     15  N   UNL     1       4.529  -2.348  -5.753  0.00  0.00    -0.308 N 
ATOM     16  C   UNL     1       4.564  -1.046  -6.098  0.00  0.00    +0.219 C 
ATOM     17  O   UNL     1       3.531  -0.444  -6.299  0.00  0.00    -0.275 OA
ATOM     18  H   UNL     1       5.355  -2.830  -5.592  0.00  0.00    +0.149 HD
BRANCH  15  19
ATOM     19  C   UNL     1       3.242  -3.036  -5.621  0.00  0.00    +0.100 C 
ATOM     20  C   UNL     1       2.789  -3.539  -6.993  0.00  0.00    +0.033 C 
BRANCH  19  24
ATOM     21  C   UNL     1       3.666  -6.353  -2.962  0.00  0.00    -0.048 A 
ATOM     22  C   UNL     1       2.529  -5.567  -2.911  0.00  0.00    +0.004 A 
ATOM     23  C   UNL     1       2.393  -4.494  -3.772  0.00  0.00    +0.006 A 
ATOM     24  C   UNL     1       3.392  -4.206  -4.682  0.00  0.00    -0.027 A 
ATOM     25  C   UNL     1       4.529  -4.991  -4.732  0.00  0.00    +0.006 A 
ATOM     26  C   UNL     1       4.667  -6.062  -3.869  0.00  0.00    +0.004 A 
BRANCH  21  28
ATOM     27  C   UNL     1       4.496  -7.059  -0.734  0.00  0.00    +0.009 C 
ATOM     28  C   UNL     1       3.815  -7.523  -2.024  0.00  0.00    +0.032 C 
ENDBRANCH  21  28
ENDBRANCH  19  24
ENDBRANCH  15  19
ENDBRANCH   1  16
BRANCH  11  29
ATOM     29  C   UNL     1       7.447   3.559  -5.288  0.00  0.00    +0.131 C 
BRANCH  29  30
ATOM     30  C   UNL     1       8.401   4.726  -5.302  0.00  0.00    -0.039 A 
ATOM     31  C   UNL     1       9.733   4.533  -4.990  0.00  0.00    +0.004 A 
ATOM     32  C   UNL     1      10.608   5.603  -5.003  0.00  0.00    +0.003 A 
ATOM     33  C   UNL     1      10.150   6.866  -5.328  0.00  0.00    -0.050 A 
ATOM     34  C   UNL     1       8.818   7.059  -5.641  0.00  0.00    +0.003 A 
ATOM     35  C   UNL     1       7.944   5.988  -5.633  0.00  0.00    +0.004 A 
ATOM     36  C   UNL     1      11.104   8.033  -5.341  0.00  0.00    +0.044 C 
ENDBRANCH  29  30
ENDBRANCH  11  29
TORSDOF 6
