REMARK  Name = ZINC18197667
REMARK  6 active torsions:
REMARK  status: ('A' for Active; 'I' for Inactive)
REMARK    1  A    between atoms: C_1  and  N_2
REMARK    2  A    between atoms: N_2  and  C_3
REMARK    3  A    between atoms: N_2  and  C_4
REMARK    4  A    between atoms: C_7  and  C_10
REMARK    5  A    between atoms: N_16  and  C_19
REMARK    6  A    between atoms: C_31  and  C_34
REMARK                            x       y       z     vdW  Elec       q    Type
REMARK                         _______ _______ _______ _____ _____    ______ ____
ROOT
ATOM      1  C   UNL     1      -0.006  -2.813  -4.924  0.00  0.00    +0.092 C 
ATOM      2  C   UNL     1       1.212  -2.434  -5.718  0.00  0.00    +0.070 A 
ATOM      3  C   UNL     1       1.148  -1.619  -6.821  0.00  0.00    +0.125 A 
ATOM      4  N   UNL     1       2.409  -1.465  -7.309  0.00  0.00    -0.277 N 
ATOM      5  H   UNL     1       2.661  -0.938  -8.083  0.00  0.00    +0.189 HD
ATOM      6  N   UNL     1       3.280  -2.204  -6.493  0.00  0.00    -0.218 N 
ATOM      7  C   UNL     1       2.546  -2.794  -5.524  0.00  0.00    +0.278 A 
ATOM      8  O   UNL     1       2.973  -3.513  -4.636  0.00  0.00    -0.265 OA
ATOM      9  N   UNL     1      -0.047  -1.108  -7.266  0.00  0.00    -0.303 N 
ATOM     10  C   UNL     1      -1.218  -1.649  -6.787  0.00  0.00    +0.017 C 
ATOM     11  C   UNL     1      -1.252  -2.455  -5.707  0.00  0.00    +0.024 C 
ATOM     12  C   UNL     1      -2.466  -3.008  -5.255  0.00  0.00    +0.162 C 
ATOM     13  O   UNL     1      -2.463  -3.721  -4.271  0.00  0.00    -0.292 OA
ATOM     14  C   UNL     1      -3.764  -2.738  -5.962  0.00  0.00    +0.088 C 
ATOM     15  C   UNL     1      -3.475  -2.458  -7.441  0.00  0.00    +0.039 C 
ATOM     16  C   UNL     1      -2.488  -1.294  -7.526  0.00  0.00    +0.060 C 
ATOM     17  H   UNL     1      -0.065  -0.379  -7.906  0.00  0.00    +0.153 HD
ENDROOT
BRANCH   1  21
ATOM     18  C   UNL     1       0.000  -0.696  -1.211  0.00  0.00    +0.029 A 
ATOM     19  C   UNL     1       0.013  -2.085  -1.221  0.00  0.00    +0.023 A 
ATOM     20  C   UNL     1       0.010  -2.766  -2.422  0.00  0.00    +0.006 A 
ATOM     21  C   UNL     1      -0.005  -2.066  -3.615  0.00  0.00    -0.035 A 
ATOM     22  C   UNL     1      -0.018  -0.684  -3.609  0.00  0.00    +0.006 A 
ATOM     23  C   UNL     1      -0.021   0.004  -2.411  0.00  0.00    +0.023 A 
BRANCH  18  25
ATOM     24  C   UNL     1      -0.018   1.461   0.010  0.00  0.00    +0.129 C 
ATOM     25  N   UNL     1       0.002  -0.004   0.002  0.00  0.00    -0.336 N 
ATOM     26  C   UNL     1       0.024  -0.743   1.267  0.00  0.00    +0.129 C 
ENDBRANCH  18  25
ENDBRANCH   1  21
BRANCH   6  27
ATOM     27  C   UNL     1       4.665  -2.311  -6.654  0.00  0.00    +0.067 A 
ATOM     28  C   UNL     1       5.411  -3.084  -5.774  0.00  0.00    +0.028 A 
ATOM     29  C   UNL     1       6.779  -3.187  -5.936  0.00  0.00    +0.002 A 
ATOM     30  C   UNL     1       7.406  -2.522  -6.973  0.00  0.00    +0.000 A 
ATOM     31  C   UNL     1       6.666  -1.751  -7.851  0.00  0.00    +0.002 A 
ATOM     32  C   UNL     1       5.297  -1.648  -7.698  0.00  0.00    +0.028 A 
ENDBRANCH   6  27
BRANCH  15  33
ATOM     33  C   UNL     1      -4.755  -2.093  -8.148  0.00  0.00    -0.006 A 
ATOM     34  C   UNL     1      -5.362  -2.712  -9.191  0.00  0.00    +0.011 A 
ATOM     35  C   UNL     1      -6.545  -2.193  -9.682  0.00  0.00    +0.008 A 
ATOM     36  C   UNL     1      -7.064  -1.081  -9.107  0.00  0.00    +0.045 A 
ATOM     37  S   UNL     1      -5.870  -0.736  -7.825  0.00  0.00    -0.101 S 
ENDBRANCH  15  33
TORSDOF 4
