REMARK  Name = ZINC01808558
REMARK  2 active torsions:
REMARK  status: ('A' for Active; 'I' for Inactive)
REMARK    1  A    between atoms: C_4  and  C_7
REMARK    2  A    between atoms: C_17  and  C_19
REMARK                            x       y       z     vdW  Elec       q    Type
REMARK                         _______ _______ _______ _____ _____    ______ ____
ROOT
ATOM      1  C   UNL     1       3.691  -0.691  -0.126  0.00  0.00    +0.019 C 
ATOM      2  C   UNL     1       3.780  -1.591  -1.360  0.00  0.00    +0.013 C 
ATOM      3  C   UNL     1       5.116  -2.335  -1.355  0.00  0.00    +0.067 C 
ATOM      4  C   UNL     1       5.213  -3.199  -0.092  0.00  0.00    +0.180 C 
ATOM      5  C   UNL     1       5.132  -2.293   1.141  0.00  0.00    +0.067 C 
ATOM      6  C   UNL     1       3.796  -1.548   1.137  0.00  0.00    +0.013 C 
ATOM      7  N   UNL     1       4.155  -4.178  -0.069  0.00  0.00    -0.177 NA
ATOM      8  C   UNL     1       4.354  -5.182  -1.159  0.00  0.00    +0.138 C 
ATOM      9  C   UNL     1       3.034  -5.901  -1.129  0.00  0.00    +0.023 C 
ATOM     10  C   UNL     1       2.181  -5.056  -0.513  0.00  0.00    +0.047 C 
ATOM     11  N   UNL     1       2.852  -3.864  -0.169  0.00  0.00    -0.273 N 
ATOM     12  C   UNL     1       5.542  -5.969  -0.689  0.00  0.00    +0.017 A 
ATOM     13  C   UNL     1       5.639  -7.332  -0.776  0.00  0.00    +0.009 A 
ATOM     14  C   UNL     1       6.773  -7.970  -0.299  0.00  0.00    +0.001 A 
ATOM     15  C   UNL     1       7.796  -7.227   0.261  0.00  0.00    +0.004 A 
ATOM     16  C   UNL     1       7.702  -5.852   0.344  0.00  0.00    +0.046 A 
ATOM     17  C   UNL     1       6.575  -5.202  -0.138  0.00  0.00    +0.128 A 
ATOM     18  O   UNL     1       6.485  -3.866  -0.089  0.00  0.00    -0.469 OA
ATOM     19  H   UNL     1       2.452  -2.991  -0.032  0.00  0.00    +0.167 HD
ENDROOT
BRANCH  10  20
ATOM     20  C   UNL     1       0.756  -5.337  -0.240  0.00  0.00    +0.004 A 
ATOM     21  C   UNL     1      -0.102  -5.673  -1.275  0.00  0.00    +0.010 A 
ATOM     22  C   UNL     1      -1.443  -5.939  -1.026  0.00  0.00    +0.001 A 
ATOM     23  C   UNL     1      -1.951  -5.877   0.237  0.00  0.00    +0.008 A 
ATOM     24  C   UNL     1      -1.117  -5.540   1.317  0.00  0.00    -0.017 A 
ATOM     25  C   UNL     1       0.254  -5.272   1.082  0.00  0.00    -0.009 A 
ATOM     26  C   UNL     1       1.086  -4.941   2.160  0.00  0.00    +0.009 A 
ATOM     27  C   UNL     1       0.569  -4.887   3.420  0.00  0.00    +0.001 A 
ATOM     28  C   UNL     1      -0.777  -5.156   3.653  0.00  0.00    +0.001 A 
ATOM     29  C   UNL     1      -1.617  -5.469   2.628  0.00  0.00    +0.008 A 
ENDBRANCH  10  20
BRANCH   1  33
ATOM     30  C   UNL     1      -0.045   1.379  -0.139  0.00  0.00    +0.000 A 
ATOM     31  C   UNL     1       1.139   2.091  -0.157  0.00  0.00    +0.000 A 
ATOM     32  C   UNL     1       2.349   1.421  -0.153  0.00  0.00    +0.004 A 
ATOM     33  C   UNL     1       2.373   0.039  -0.130  0.00  0.00    -0.044 A 
ATOM     34  C   UNL     1       1.188  -0.673  -0.111  0.00  0.00    +0.004 A 
ATOM     35  C   UNL     1      -0.021  -0.003  -0.117  0.00  0.00    +0.000 A 
ENDBRANCH   1  33
TORSDOF 2
