REMARK  Name = ZINC02191702
REMARK  10 active torsions:
REMARK  status: ('A' for Active; 'I' for Inactive)
REMARK    1  A    between atoms: C_1  and  C_2
REMARK    2  A    between atoms: C_3  and  C_12
REMARK    3  A    between atoms: N_10  and  C_11
REMARK    4  A    between atoms: C_12  and  C_13
REMARK    5  A    between atoms: C_13  and  N_52
REMARK    6  A    between atoms: C_14  and  C_15
REMARK    7  A    between atoms: C_14  and  C_19
REMARK    8  A    between atoms: C_14  and  N_23
REMARK    9  A    between atoms: C_14  and  N_52
REMARK   10  A    between atoms: C_24  and  C_26
REMARK                            x       y       z     vdW  Elec       q    Type
REMARK                         _______ _______ _______ _____ _____    ______ ____
ROOT
ATOM      1  C   UNL     1      -0.813   1.465  -3.639  0.00  0.00    +0.193 C 
ENDROOT
BRANCH   1   2
ATOM      2  C   UNL     1      -2.221   0.914  -3.402  0.00  0.00    +0.404 C 
ATOM      3  F   UNL     1      -2.611   1.184  -2.087  0.00  0.00    -0.170 F 
ATOM      4  F   UNL     1      -3.115   1.524  -4.289  0.00  0.00    -0.170 F 
ATOM      5  F   UNL     1      -2.222  -0.469  -3.615  0.00  0.00    -0.170 F 
ENDBRANCH   1   2
BRANCH   1   6
ATOM      6  C   UNL     1      -0.766   2.938  -3.229  0.00  0.00    +0.404 C 
ATOM      7  F   UNL     1       0.553   3.400  -3.302  0.00  0.00    -0.170 F 
ATOM      8  F   UNL     1      -1.571   3.688  -4.093  0.00  0.00    -0.170 F 
ATOM      9  F   UNL     1      -1.235   3.073  -1.919  0.00  0.00    -0.170 F 
ENDBRANCH   1   6
BRANCH   1  10
ATOM     10  N   UNL     1      -0.473   1.342  -5.059  0.00  0.00    -0.307 N 
ATOM     11  C   UNL     1      -0.127   0.143  -5.568  0.00  0.00    +0.243 C 
ATOM     12  O   UNL     1      -0.177  -0.851  -4.869  0.00  0.00    -0.270 OA
ATOM     13  H   UNL     1      -0.497   2.123  -5.633  0.00  0.00    +0.148 HD
BRANCH  11  14
ATOM     14  C   UNL     1       0.314   0.036  -6.974  0.00  0.00    +0.037 A 
ATOM     15  C   UNL     1       0.367   1.175  -7.780  0.00  0.00    +0.014 A 
ATOM     16  C   UNL     1       0.785   1.070  -9.090  0.00  0.00    +0.021 A 
ATOM     17  C   UNL     1       1.140  -0.164  -9.610  0.00  0.00    +0.041 A 
ATOM     18  C   UNL     1       1.084  -1.298  -8.817  0.00  0.00    +0.021 A 
ATOM     19  C   UNL     1       0.673  -1.205  -7.504  0.00  0.00    +0.014 A 
ATOM     20 CL   UNL     1       1.659  -0.289 -11.262  0.00  0.00    -0.084 Cl
ENDBRANCH  11  14
ENDBRANCH   1  10
BRANCH   1  21
ATOM     21  N   UNL     1       0.162   0.697  -2.841  0.00  0.00    +0.405 N 
ATOM     22  H   UNL     1       0.204  -0.266  -3.193  0.00  0.00    -0.082 HD
ATOM     23  H   UNL     1       1.087   1.133  -2.925  0.00  0.00    -0.082 HD
BRANCH  21  24
ATOM     24  C   UNL     1      -0.240   0.680  -1.421  0.00  0.00    -0.074 C 
BRANCH  24  25
ATOM     25  C   UNL     1       0.811  -0.083  -0.612  0.00  0.00    +0.018 C 
BRANCH  25  28
ATOM     26  C   UNL     1       1.589   2.020   1.534  0.00  0.00    +0.064 C 
ATOM     27  C   UNL     1       0.739   0.798   1.775  0.00  0.00    +0.020 A 
ATOM     28  C   UNL     1       0.407  -0.106   0.840  0.00  0.00    -0.021 A 
ATOM     29  C   UNL     1      -0.415  -1.123   1.500  0.00  0.00    +0.003 A 
ATOM     30  C   UNL     1      -1.043  -2.293   1.068  0.00  0.00    +0.010 A 
ATOM     31  C   UNL     1      -1.758  -3.046   1.956  0.00  0.00    +0.001 A 
ATOM     32  C   UNL     1      -1.865  -2.657   3.284  0.00  0.00    +0.002 A 
ATOM     33  C   UNL     1      -1.254  -1.506   3.731  0.00  0.00    +0.026 A 
ATOM     34  C   UNL     1      -0.521  -0.724   2.844  0.00  0.00    +0.049 A 
ATOM     35  N   UNL     1       0.188   0.449   2.978  0.00  0.00    -0.347 N 
ATOM     36  C   UNL     1       0.337   1.206   4.223  0.00  0.00    +0.149 C 
ENDBRANCH  25  28
ENDBRANCH  24  25
ENDBRANCH  21  24
ENDBRANCH   1  21
TORSDOF 8
