REMARK  Name = ZINC40813629
REMARK  9 active torsions:
REMARK  status: ('A' for Active; 'I' for Inactive)
REMARK    1  A    between atoms: C_1  and  C_2
REMARK    2  A    between atoms: C_6  and  C_7
REMARK    3  A    between atoms: N_9  and  C_10
REMARK    4  A    between atoms: C_12  and  C_18
REMARK    5  A    between atoms: C_12  and  C_19
REMARK    6  A    between atoms: C_14  and  C_16
REMARK    7  A    between atoms: C_14  and  C_17
REMARK    8  A    between atoms: N_24  and  N_25
REMARK    9  A    between atoms: C_26  and  C_28
REMARK                            x       y       z     vdW  Elec       q    Type
REMARK                         _______ _______ _______ _____ _____    ______ ____
ROOT
ATOM      1  C   UNL     1       0.368   1.726   0.070  0.00  0.00    +0.048 C 
ATOM      2  C   UNL     1       0.372   0.220   0.017  0.00  0.00    +0.009 A 
ATOM      3  C   UNL     1       0.402  -0.580  -1.131  0.00  0.00    +0.042 A 
ATOM      4  C   UNL     1       0.394  -1.892  -0.720  0.00  0.00    +0.115 A 
ATOM      5  O   UNL     1       0.363  -1.906   0.611  0.00  0.00    -0.454 OA
ATOM      6  C   UNL     1       0.354  -0.638   1.081  0.00  0.00    +0.193 A 
ATOM      7  C   UNL     1       0.414  -3.054  -1.681  0.00  0.00    +0.075 C 
ATOM      8  C   UNL     1      -0.067  -2.583  -3.057  0.00  0.00    +0.014 C 
ATOM      9  C   UNL     1       0.732  -1.360  -3.518  0.00  0.00    +0.058 C 
ATOM     10  C   UNL     1       0.440  -0.212  -2.564  0.00  0.00    +0.070 C 
ATOM     11  N   UNL     1       0.237   1.002  -2.976  0.00  0.00    -0.184 NA
ENDROOT
BRANCH   6  12
ATOM     12  C   UNL     1       0.326  -0.249   2.496  0.00  0.00    +0.280 C 
ATOM     13  O   UNL     1       0.317   0.929   2.803  0.00  0.00    -0.267 OA
ATOM     14  N   UNL     1       0.310  -1.195   3.455  0.00  0.00    -0.306 N 
ATOM     15  H   UNL     1       0.318  -2.134   3.210  0.00  0.00    +0.149 HD
BRANCH  14  16
ATOM     16  C   UNL     1       0.282  -0.806   4.870  0.00  0.00    +0.071 C 
ATOM     17  C   UNL     1       1.715  -0.590   5.361  0.00  0.00    +0.009 C 
ATOM     18  C   UNL     1       1.704  -0.195   6.837  0.00  0.00    -0.072 C 
ATOM     19  N   UNL     1       0.973  -1.152   7.654  0.00  0.00    +0.386 N 
ATOM     20  C   UNL     1      -0.328  -1.593   7.178  0.00  0.00    -0.072 C 
ATOM     21  C   UNL     1      -0.340  -1.935   5.691  0.00  0.00    +0.009 C 
ATOM     22  C   UNL     1      -1.422  -0.567   7.486  0.00  0.00    -0.010 C 
ATOM     23  C   UNL     1      -0.692  -2.885   7.948  0.00  0.00    -0.010 C 
ATOM     24  C   UNL     1       1.169   1.227   7.000  0.00  0.00    -0.010 C 
ATOM     25  C   UNL     1       3.171  -0.192   7.322  0.00  0.00    -0.010 C 
ATOM     26  H   UNL     1       1.563  -1.977   7.787  0.00  0.00    -0.084 HD
ATOM     27  H   UNL     1       0.855  -0.753   8.589  0.00  0.00    -0.084 HD
ENDBRANCH  14  16
ENDBRANCH   6  12
BRANCH  11  28
ATOM     28  N   UNL     1       0.285   1.294  -4.345  0.00  0.00    -0.203 N 
ATOM     29  C   UNL     1       0.075   2.554  -4.773  0.00  0.00    +0.264 C 
ATOM     30  O   UNL     1      -0.156   3.439  -3.970  0.00  0.00    -0.268 OA
ATOM     31  H   UNL     1       0.469   0.589  -4.985  0.00  0.00    +0.178 HD
BRANCH  29  32
ATOM     32  C   UNL     1       0.125   2.862  -6.214  0.00  0.00    +0.046 A 
ATOM     33  C   UNL     1       0.265   1.846  -7.151  0.00  0.00    +0.014 A 
ATOM     34  C   UNL     1       0.311   2.138  -8.507  0.00  0.00    +0.001 A 
ATOM     35  C   UNL     1       0.222   3.415  -8.970  0.00  0.00    +0.008 A 
ATOM     36  C   UNL     1       0.079   4.492  -8.080  0.00  0.00    -0.017 A 
ATOM     37  C   UNL     1       0.022   4.240  -6.687  0.00  0.00    -0.006 A 
ATOM     38  C   UNL     1      -0.126   5.310  -5.796  0.00  0.00    +0.009 A 
ATOM     39  C   UNL     1      -0.218   6.582  -6.279  0.00  0.00    +0.001 A 
ATOM     40  C   UNL     1      -0.167   6.832  -7.649  0.00  0.00    +0.001 A 
ATOM     41  C   UNL     1      -0.014   5.816  -8.542  0.00  0.00    +0.008 A 
ENDBRANCH  29  32
ENDBRANCH  11  28
TORSDOF 4
