REMARK  Name = ZINC03062096
REMARK  5 active torsions:
REMARK  status: ('A' for Active; 'I' for Inactive)
REMARK    1  A    between atoms: C_5  and  C_7
REMARK    2  A    between atoms: C_7  and  N_8
REMARK    3  A    between atoms: C_17  and  C_18
REMARK    4  A    between atoms: C_21  and  C_24
REMARK    5  A    between atoms: C_29  and  C_32
REMARK                            x       y       z     vdW  Elec       q    Type
REMARK                         _______ _______ _______ _____ _____    ______ ____
ROOT
ATOM      1  N   UNL     1      -4.692  -0.484   8.195  0.00  0.00    -0.262 N 
ATOM      2  C   UNL     1      -4.793  -0.185   9.547  0.00  0.00    +0.051 A 
ATOM      3  C   UNL     1      -4.879  -1.239  10.456  0.00  0.00    +0.024 A 
ATOM      4  C   UNL     1      -4.977  -0.989  11.809  0.00  0.00    +0.002 A 
ATOM      5  C   UNL     1      -4.992   0.310  12.284  0.00  0.00    +0.001 A 
ATOM      6  C   UNL     1      -4.909   1.367  11.397  0.00  0.00    +0.017 A 
ATOM      7  C   UNL     1      -4.811   1.122  10.037  0.00  0.00    +0.034 A 
ATOM      8  S   UNL     1      -4.704   2.472   8.907  0.00  0.00    -0.082 S 
ATOM      9  C   UNL     1      -3.862   1.723   7.537  0.00  0.00    +0.076 C 
ATOM     10  C   UNL     1      -2.930   2.392   6.814  0.00  0.00    +0.028 C 
ATOM     11  C   UNL     1      -4.233   0.320   7.232  0.00  0.00    +0.258 C 
ATOM     12  O   UNL     1      -4.118  -0.102   6.098  0.00  0.00    -0.269 OA
ENDROOT
BRANCH  10  13
ATOM     13  C   UNL     1      -2.040   1.659   5.905  0.00  0.00    -0.024 A 
ATOM     14  C   UNL     1      -1.461   0.451   6.315  0.00  0.00    +0.009 A 
ATOM     15  C   UNL     1      -0.633  -0.230   5.469  0.00  0.00    +0.013 A 
ATOM     16  C   UNL     1      -0.363   0.279   4.194  0.00  0.00    +0.037 A 
ATOM     17  C   UNL     1      -0.936   1.487   3.786  0.00  0.00    +0.013 A 
ATOM     18  C   UNL     1      -1.769   2.167   4.628  0.00  0.00    +0.009 A 
BRANCH  16  19
ATOM     19  C   UNL     1       0.532  -0.458   3.281  0.00  0.00    +0.247 C 
ATOM     20  O   UNL     1       1.511  -1.031   3.720  0.00  0.00    -0.270 OA
ATOM     21  N   UNL     1       0.265  -0.496   1.961  0.00  0.00    -0.297 N 
ATOM     22  C   UNL     1       1.191  -1.154   1.028  0.00  0.00    +0.109 C 
ATOM     23  C   UNL     1       0.414  -2.182   0.201  0.00  0.00    +0.032 C 
ATOM     24  C   UNL     1      -0.775  -1.495  -0.474  0.00  0.00    +0.078 C 
ATOM     25  C   UNL     1      -1.712  -0.928   0.594  0.00  0.00    +0.032 C 
ATOM     26  C   UNL     1      -0.960   0.115   1.426  0.00  0.00    +0.109 C 
BRANCH  24  27
ATOM     27  C   UNL     1      -1.522  -2.497  -1.317  0.00  0.00    +0.214 C 
ATOM     28  O   UNL     1      -1.141  -3.647  -1.372  0.00  0.00    -0.276 OA
ATOM     29  N   UNL     1      -2.613  -2.115  -2.009  0.00  0.00    -0.329 N 
ATOM     30  H   UNL     1      -2.918  -1.195  -1.965  0.00  0.00    +0.145 HD
ATOM     31  H   UNL     1      -3.094  -2.760  -2.551  0.00  0.00    +0.145 HD
ENDBRANCH  24  27
ENDBRANCH  16  19
ENDBRANCH  10  13
BRANCH   1  32
ATOM     32  C   UNL     1      -5.136  -1.818   7.782  0.00  0.00    +0.152 C 
BRANCH  32  37
ATOM     33  C   UNL     1      -8.833  -2.281   8.390  0.00  0.00    +0.000 A 
ATOM     34  C   UNL     1      -9.371  -1.797   7.212  0.00  0.00    +0.003 A 
ATOM     35  C   UNL     1      -8.539  -1.319   6.217  0.00  0.00    +0.038 A 
ATOM     36  C   UNL     1      -7.167  -1.325   6.401  0.00  0.00    +0.128 A 
ATOM     37  C   UNL     1      -6.629  -1.810   7.581  0.00  0.00    +0.005 A 
ATOM     38  C   UNL     1      -7.463  -2.293   8.572  0.00  0.00    +0.008 A 
ATOM     39  F   UNL     1      -6.353  -0.858   5.429  0.00  0.00    -0.205 F 
ENDBRANCH  32  37
ENDBRANCH   1  32
TORSDOF 5
