REMARK  Name = ZINC59385143
REMARK  6 active torsions:
REMARK  status: ('A' for Active; 'I' for Inactive)
REMARK    1  A    between atoms: C_1  and  C_2
REMARK    2  A    between atoms: C_3  and  C_17
REMARK    3  A    between atoms: C_4  and  C_10
REMARK    4  A    between atoms: C_15  and  O_16
REMARK    5  A    between atoms: N_19  and  N_20
REMARK    6  A    between atoms: C_21  and  C_22
REMARK                            x       y       z     vdW  Elec       q    Type
REMARK                         _______ _______ _______ _____ _____    ______ ____
ROOT
ATOM      1  C   UNL     1       0.564   1.311   0.470  0.00  0.00    +0.061 C 
ATOM      2  C   UNL     1       0.314  -0.147   0.182  0.00  0.00    +0.017 C 
ATOM      3  C   UNL     1      -0.956  -0.593   0.068  0.00  0.00    +0.057 C 
ATOM      4  C   UNL     1      -1.162  -2.066  -0.222  0.00  0.00    +0.143 C 
ATOM      5  N   UNL     1       0.047  -2.896  -0.357  0.00  0.00    -0.315 N 
ATOM      6  C   UNL     1       1.250  -2.304  -0.217  0.00  0.00    +0.135 C 
ATOM      7  S   UNL     1       2.664  -3.256  -0.372  0.00  0.00    -0.019 S 
ATOM      8  N   UNL     1       1.375  -0.995   0.035  0.00  0.00    -0.300 N 
ATOM      9  H   UNL     1      -0.021  -3.845  -0.543  0.00  0.00    +0.149 HD
ATOM     10  H   UNL     1       2.268  -0.629   0.121  0.00  0.00    +0.154 HD
ENDROOT
BRANCH   4  11
ATOM     11  C   UNL     1      -1.949  -2.181  -1.502  0.00  0.00    +0.019 A 
ATOM     12  C   UNL     1      -2.070  -1.089  -2.340  0.00  0.00    +0.009 A 
ATOM     13  C   UNL     1      -2.792  -1.194  -3.514  0.00  0.00    +0.001 A 
ATOM     14  C   UNL     1      -3.395  -2.392  -3.854  0.00  0.00    +0.004 A 
ATOM     15  C   UNL     1      -3.276  -3.486  -3.020  0.00  0.00    +0.046 A 
ATOM     16  C   UNL     1      -2.548  -3.385  -1.843  0.00  0.00    +0.122 A 
BRANCH  16  17
ATOM     17  O   UNL     1      -2.425  -4.462  -1.024  0.00  0.00    -0.506 OA
ATOM     18  H   UNL     1      -3.162  -4.574  -0.408  0.00  0.00    +0.292 HD
ENDBRANCH  16  17
ENDBRANCH   4  11
BRANCH   3  19
ATOM     19  C   UNL     1      -2.056   0.285   0.215  0.00  0.00    +0.263 C 
ATOM     20  O   UNL     1      -1.868   1.482   0.341  0.00  0.00    -0.269 OA
ATOM     21  N   UNL     1      -3.313  -0.203   0.217  0.00  0.00    -0.203 N 
ATOM     22  H   UNL     1      -3.468  -1.143   0.039  0.00  0.00    +0.178 HD
BRANCH  21  23
ATOM     23  N   UNL     1      -4.394   0.649   0.476  0.00  0.00    -0.187 NA
ATOM     24  C   UNL     1      -5.594   0.163   0.575  0.00  0.00    +0.139 C 
BRANCH  24  25
ATOM     25  C   UNL     1      -6.732   1.059   0.847  0.00  0.00    +0.013 A 
ATOM     26  C   UNL     1      -8.024   0.538   0.960  0.00  0.00    +0.012 A 
ATOM     27  C   UNL     1      -9.084   1.382   1.216  0.00  0.00    +0.021 A 
ATOM     28  C   UNL     1      -8.872   2.743   1.360  0.00  0.00    +0.042 A 
ATOM     29  C   UNL     1      -7.596   3.267   1.250  0.00  0.00    +0.040 A 
ATOM     30  C   UNL     1      -6.524   2.433   1.000  0.00  0.00    +0.051 A 
ATOM     31 CL   UNL     1      -4.922   3.090   0.869  0.00  0.00    -0.083 Cl
ATOM     32 CL   UNL     1     -10.214   3.797   1.681  0.00  0.00    -0.083 Cl
ENDBRANCH  24  25
ENDBRANCH  21  23
ENDBRANCH   3  19
TORSDOF 5
