REMARK  Name = ZINC03840519
REMARK  10 active torsions:
REMARK  status: ('A' for Active; 'I' for Inactive)
REMARK    1  A    between atoms: C_1  and  C_2
REMARK    2  A    between atoms: N_9  and  C_10
REMARK    3  A    between atoms: C_12  and  C_35
REMARK    4  A    between atoms: C_15  and  O_34
REMARK    5  A    between atoms: C_17  and  C_21
REMARK    6  A    between atoms: C_21  and  C_23
REMARK    7  A    between atoms: C_21  and  C_24
REMARK    8  A    between atoms: N_26  and  C_27
REMARK    9  A    between atoms: C_27  and  C_28
REMARK   10  A    between atoms: C_28  and  N_69
REMARK                            x       y       z     vdW  Elec       q    Type
REMARK                         _______ _______ _______ _____ _____    ______ ____
ROOT
ATOM      1  C   UNL     1      -1.449   3.106   0.395  0.00  0.00    +0.014 C 
ATOM      2  C   UNL     1      -0.099   3.648   0.868  0.00  0.00    +0.042 C 
ATOM      3  C   UNL     1      -0.219   5.140   1.139  0.00  0.00    +0.057 A 
ATOM      4  C   UNL     1       0.774   5.983   0.761  0.00  0.00    +0.015 A 
ATOM      5  S   UNL     1       0.169   7.562   1.293  0.00  0.00    -0.057 S 
ATOM      6  C   UNL     1      -1.332   6.999   1.965  0.00  0.00    +0.158 A 
ATOM      7  N   UNL     1      -1.265   5.702   1.744  0.00  0.00    -0.229 NA
ATOM      8  N   UNL     1      -2.341   7.728   2.576  0.00  0.00    -0.327 N 
ATOM      9  C   UNL     1      -2.211   9.180   2.721  0.00  0.00    +0.127 C 
ATOM     10  C   UNL     1       2.046   5.638   0.071  0.00  0.00    +0.051 C 
ATOM     11  C   UNL     1       2.264   4.115   0.149  0.00  0.00    -0.022 C 
ATOM     12  C   UNL     1       0.957   3.407  -0.218  0.00  0.00    +0.033 C 
ATOM     13  C   UNL     1       1.185   1.895  -0.310  0.00  0.00    +0.123 C 
ATOM     14  C   UNL     1       2.264   1.585  -1.345  0.00  0.00    +0.029 C 
ATOM     15  C   UNL     1       3.573   2.250  -0.907  0.00  0.00    +0.007 C 
ATOM     16  C   UNL     1       3.360   3.761  -0.861  0.00  0.00    +0.008 C 
ATOM     17  C   UNL     1       2.692   3.720   1.564  0.00  0.00    +0.012 C 
ATOM     18  H   UNL     1      -3.133   7.276   2.908  0.00  0.00    +0.148 HD
ENDROOT
BRANCH  14  19
ATOM     19  C   UNL     1       2.468   0.071  -1.437  0.00  0.00    +0.077 C 
ATOM     20  C   UNL     1       3.035  -0.448  -0.115  0.00  0.00    +0.017 C 
BRANCH  19  21
ATOM     21  C   UNL     1       3.432  -0.239  -2.553  0.00  0.00    +0.216 C 
ATOM     22  O   UNL     1       3.834   0.651  -3.272  0.00  0.00    -0.276 OA
ATOM     23  N   UNL     1       3.846  -1.506  -2.753  0.00  0.00    -0.317 N 
ATOM     24  H   UNL     1       3.525  -2.218  -2.178  0.00  0.00    +0.149 HD
BRANCH  23  25
ATOM     25  C   UNL     1       4.784  -1.808  -3.838  0.00  0.00    +0.085 C 
BRANCH  25  26
ATOM     26  C   UNL     1       5.090  -3.307  -3.845  0.00  0.00    -0.060 C 
BRANCH  26  32
ATOM     27  C   UNL     1       5.407  -3.380  -6.245  0.00  0.00    -0.050 C 
ATOM     28  C   UNL     1       6.437  -3.649  -7.346  0.00  0.00    +0.141 C 
ATOM     29  O   UNL     1       6.936  -4.982  -7.209  0.00  0.00    -0.383 OA
ATOM     30  C   UNL     1       7.549  -5.241  -5.943  0.00  0.00    +0.141 C 
ATOM     31  C   UNL     1       6.530  -4.987  -4.828  0.00  0.00    -0.050 C 
ATOM     32  N   UNL     1       6.051  -3.593  -4.932  0.00  0.00    +0.384 N 
ATOM     33  H   UNL     1       6.852  -2.957  -4.845  0.00  0.00    -0.082 HD
ENDBRANCH  26  32
ENDBRANCH  25  26
ENDBRANCH  23  25
ENDBRANCH  19  21
ENDBRANCH  14  19
BRANCH  13  34
ATOM     34  O   UNL     1      -0.034   1.255  -0.693  0.00  0.00    -0.391 OA
ATOM     35  H   UNL     1       0.045   0.300  -0.820  0.00  0.00    +0.210 HD
ENDBRANCH  13  34
TORSDOF 6
