REMARK  Name = ZINC09464447
REMARK  9 active torsions:
REMARK  status: ('A' for Active; 'I' for Inactive)
REMARK    1  A    between atoms: C_1  and  C_2
REMARK    2  A    between atoms: C_2  and  S_3
REMARK    3  A    between atoms: S_3  and  N_6
REMARK    4  A    between atoms: C_15  and  C_17
REMARK    5  A    between atoms: N_19  and  C_20
REMARK    6  A    between atoms: N_19  and  C_21
REMARK    7  A    between atoms: C_22  and  N_37
REMARK    8  A    between atoms: N_23  and  C_30
REMARK    9  A    between atoms: C_30  and  C_31
REMARK                            x       y       z     vdW  Elec       q    Type
REMARK                         _______ _______ _______ _____ _____    ______ ____
ROOT
ATOM      1  C   UNL     1      -1.257   2.931   2.322  0.00  0.00    +0.239 C 
ATOM      2  O   UNL     1      -1.192   2.252   3.326  0.00  0.00    -0.273 OA
ATOM      3  N   UNL     1      -1.795   4.167   2.378  0.00  0.00    -0.266 N 
ATOM      4  C   UNL     1      -1.788   5.023   1.188  0.00  0.00    +0.138 C 
ENDROOT
BRANCH   1  14
ATOM      5  N   UNL     1       0.731   2.500   0.979  0.00  0.00    -0.165 NA
ATOM      6  C   UNL     1       1.405   2.102  -0.262  0.00  0.00    +0.145 C 
ATOM      7  C   UNL     1       0.818   0.808  -0.766  0.00  0.00    -0.028 A 
ATOM      8  C   UNL     1       1.486   0.148  -1.788  0.00  0.00    +0.005 A 
ATOM      9  C   UNL     1       0.993  -1.035  -2.298  0.00  0.00    +0.000 A 
ATOM     10  C   UNL     1      -0.177  -1.567  -1.788  0.00  0.00    +0.000 A 
ATOM     11  C   UNL     1      -0.840  -0.914  -0.769  0.00  0.00    +0.004 A 
ATOM     12  C   UNL     1      -0.342   0.275  -0.249  0.00  0.00    -0.041 A 
ATOM     13  C   UNL     1      -1.103   0.916   0.880  0.00  0.00    +0.065 C 
ATOM     14  C   UNL     1      -0.737   2.393   1.014  0.00  0.00    +0.170 C 
BRANCH   5  15
ATOM     15  S   UNL     1       1.586   3.048   2.286  0.00  0.00    +0.033 S 
ATOM     16  O   UNL     1       0.834   2.624   3.415  0.00  0.00    -0.158 OA
ATOM     17  O   UNL     1       2.910   2.575   2.078  0.00  0.00    -0.158 OA
BRANCH  15  19
ATOM     18  C   UNL     1       2.280   5.478   3.335  0.00  0.00    +0.029 C 
ATOM     19  C   UNL     1       1.539   4.856   2.149  0.00  0.00    +0.182 C 
ENDBRANCH  15  19
ENDBRANCH   5  15
ENDBRANCH   1  14
BRANCH   3  20
ATOM     20  C   UNL     1      -2.363   4.636   3.581  0.00  0.00    +0.139 A 
ATOM     21  C   UNL     1      -1.579   4.826   4.700  0.00  0.00    +0.128 A 
ATOM     22  N   UNL     1      -2.163   5.284   5.859  0.00  0.00    -0.276 N 
ATOM     23  C   UNL     1      -3.482   5.545   5.899  0.00  0.00    +0.331 A 
ATOM     24  O   UNL     1      -3.979   5.949   6.933  0.00  0.00    -0.246 OA
ATOM     25  N   UNL     1      -4.261   5.366   4.818  0.00  0.00    -0.273 N 
ATOM     26  H   UNL     1      -5.240   5.564   4.876  0.00  0.00    +0.173 HD
ATOM     27  C   UNL     1      -3.739   4.924   3.658  0.00  0.00    +0.277 A 
ATOM     28  O   UNL     1      -4.454   4.770   2.682  0.00  0.00    -0.266 OA
BRANCH  21  29
ATOM     29  N   UNL     1      -0.232   4.559   4.659  0.00  0.00    -0.343 N 
ATOM     30  H   UNL     1       0.189   4.317   3.819  0.00  0.00    +0.144 HD
ATOM     31  H   UNL     1       0.298   4.613   5.469  0.00  0.00    +0.144 HD
ENDBRANCH  21  29
BRANCH  22  32
ATOM     32  C   UNL     1      -1.342   5.490   7.055  0.00  0.00    +0.163 C 
BRANCH  32  33
ATOM     33  C   UNL     1      -0.809   6.900   7.061  0.00  0.00    -0.028 A 
ATOM     34  C   UNL     1       0.407   7.182   6.468  0.00  0.00    +0.005 A 
ATOM     35  C   UNL     1       0.893   8.476   6.469  0.00  0.00    +0.000 A 
ATOM     36  C   UNL     1       0.169   9.486   7.075  0.00  0.00    +0.000 A 
ATOM     37  C   UNL     1      -1.045   9.203   7.673  0.00  0.00    +0.000 A 
ATOM     38  C   UNL     1      -1.534   7.910   7.667  0.00  0.00    +0.005 A 
ENDBRANCH  32  33
ENDBRANCH  22  32
ENDBRANCH   3  20
TORSDOF 7
