REMARK  Name = ZINC16431773
REMARK  16 active torsions:
REMARK  status: ('A' for Active; 'I' for Inactive)
REMARK    1  A    between atoms: C_1  and  C_2
REMARK    2  A    between atoms: C_2  and  N_3
REMARK    3  A    between atoms: N_3  and  C_4
REMARK    4  A    between atoms: N_3  and  S_24
REMARK    5  A    between atoms: C_4  and  C_5
REMARK    6  A    between atoms: N_7  and  C_8
REMARK    7  A    between atoms: C_10  and  C_20
REMARK    8  A    between atoms: N_12  and  C_13
REMARK    9  A    between atoms: C_20  and  C_21
REMARK   10  A    between atoms: C_20  and  C_22
REMARK   11  A    between atoms: C_20  and  C_23
REMARK   12  A    between atoms: S_24  and  C_27
REMARK   13  A    between atoms: C_30  and  C_33
REMARK   14  A    between atoms: C_33  and  C_34
REMARK   15  A    between atoms: C_33  and  C_35
REMARK   16  A    between atoms: C_33  and  C_36
REMARK                            x       y       z     vdW  Elec       q    Type
REMARK                         _______ _______ _______ _____ _____    ______ ____
ROOT
ATOM      1  C   UNL     1      -1.193   2.048   0.019  0.00  0.00    +0.234 C 
ATOM      2  O   UNL     1      -2.235   1.427   0.020  0.00  0.00    -0.274 OA
ATOM      3  N   UNL     1      -0.017   1.390   0.010  0.00  0.00    -0.269 N 
ATOM      4  H   UNL     1       0.817   1.887   0.004  0.00  0.00    +0.156 HD
ENDROOT
BRANCH   3   5
ATOM      5  C   UNL     1       0.002  -0.004   0.002  0.00  0.00    +0.129 A 
ATOM      6  C   UNL     1      -1.084  -0.824   0.007  0.00  0.00    +0.069 A 
ATOM      7  C   UNL     1      -0.625  -2.144  -0.004  0.00  0.00    +0.071 A 
ATOM      8  N   UNL     1       0.683  -2.129  -0.016  0.00  0.00    -0.169 NA
ATOM      9  N   UNL     1       1.110  -0.794  -0.018  0.00  0.00    -0.218 N 
BRANCH   9  10
ATOM     10  C   UNL     1       2.440  -0.352  -0.035  0.00  0.00    +0.068 A 
ATOM     11  C   UNL     1       2.780   0.802  -0.728  0.00  0.00    +0.029 A 
ATOM     12  C   UNL     1       4.090   1.239  -0.739  0.00  0.00    +0.022 A 
ATOM     13  C   UNL     1       5.066   0.521  -0.069  0.00  0.00    +0.041 A 
ATOM     14  C   UNL     1       4.730  -0.632   0.618  0.00  0.00    +0.022 A 
ATOM     15  C   UNL     1       3.420  -1.070   0.636  0.00  0.00    +0.029 A 
ATOM     16 CL   UNL     1       6.713   1.069  -0.090  0.00  0.00    -0.084 Cl
ENDBRANCH   9  10
BRANCH   7  17
ATOM     17  C   UNL     1      -1.491  -3.378  -0.003  0.00  0.00    +0.006 C 
ATOM     18  C   UNL     1      -2.102  -3.573  -1.391  0.00  0.00    +0.017 C 
ATOM     19  C   UNL     1      -0.640  -4.598   0.357  0.00  0.00    +0.017 C 
ATOM     20  C   UNL     1      -2.609  -3.215   1.029  0.00  0.00    +0.017 C 
ENDBRANCH   7  17
ENDBRANCH   3   5
BRANCH   1  21
ATOM     21  C   UNL     1      -1.214   3.555   0.027  0.00  0.00    +0.205 C 
BRANCH  21  22
ATOM     22  N   UNL     1      -2.601   4.024   0.036  0.00  0.00    -0.168 NA
BRANCH  22  23
ATOM     23  S   UNL     1      -3.352   4.416  -1.387  0.00  0.00    +0.061 S 
ATOM     24  O   UNL     1      -4.396   5.322  -1.059  0.00  0.00    -0.153 OA
ATOM     25  O   UNL     1      -2.324   4.741  -2.313  0.00  0.00    -0.153 OA
BRANCH  23  26
ATOM     26  C   UNL     1      -4.127   2.952  -1.987  0.00  0.00    +0.106 A 
ATOM     27  C   UNL     1      -3.436   2.100  -2.830  0.00  0.00    +0.029 A 
ATOM     28  C   UNL     1      -4.042   0.949  -3.297  0.00  0.00    +0.006 A 
ATOM     29  C   UNL     1      -5.342   0.654  -2.930  0.00  0.00    -0.042 A 
ATOM     30  C   UNL     1      -6.034   1.508  -2.091  0.00  0.00    +0.006 A 
ATOM     31  C   UNL     1      -5.426   2.657  -1.620  0.00  0.00    +0.029 A 
BRANCH  29  32
ATOM     32  C   UNL     1      -6.004  -0.598  -3.444  0.00  0.00    -0.013 C 
ATOM     33  C   UNL     1      -7.252  -0.223  -4.245  0.00  0.00    +0.015 C 
ATOM     34  C   UNL     1      -5.029  -1.358  -4.344  0.00  0.00    +0.015 C 
ATOM     35  C   UNL     1      -6.404  -1.484  -2.262  0.00  0.00    +0.015 C 
ENDBRANCH  29  32
ENDBRANCH  23  26
ENDBRANCH  22  23
BRANCH  22  37
ATOM     36  C   UNL     1      -3.015   5.505   1.938  0.00  0.00    +0.022 C 
ATOM     37  C   UNL     1      -3.325   4.148   1.304  0.00  0.00    +0.106 C 
ENDBRANCH  22  37
ENDBRANCH  21  22
ENDBRANCH   1  21
TORSDOF 9
