REMARK  Name = ZINC35397014
REMARK  11 active torsions:
REMARK  status: ('A' for Active; 'I' for Inactive)
REMARK    1  A    between atoms: C_1  and  N_2
REMARK    2  A    between atoms: N_15  and  C_16
REMARK    3  A    between atoms: C_16  and  C_17
REMARK    4  A    between atoms: C_17  and  C_18
REMARK    5  A    between atoms: C_18  and  C_19
REMARK    6  A    between atoms: N_21  and  C_22
REMARK    7  A    between atoms: C_22  and  C_23
REMARK    8  A    between atoms: C_23  and  C_24
REMARK    9  A    between atoms: C_24  and  N_25
REMARK   10  A    between atoms: C_28  and  C_31
REMARK   11  A    between atoms: C_31  and  C_32
REMARK                            x       y       z     vdW  Elec       q    Type
REMARK                         _______ _______ _______ _____ _____    ______ ____
ROOT
ATOM      1  C   UNL     1      -6.074  -2.252  -2.845  0.00  0.00    +0.213 C 
ATOM      2  O   UNL     1      -5.305  -2.403  -3.771  0.00  0.00    -0.276 OA
ATOM      3  N   UNL     1      -7.374  -1.991  -3.084  0.00  0.00    -0.315 N 
ATOM      4  H   UNL     1      -7.989  -1.870  -2.343  0.00  0.00    +0.149 HD
ENDROOT
BRANCH   1   5
ATOM      5  C   UNL     1      -5.574  -2.358  -1.427  0.00  0.00    +0.097 C 
BRANCH   5   6
ATOM      6  C   UNL     1      -4.074  -2.658  -1.435  0.00  0.00    +0.031 C 
BRANCH   6   7
ATOM      7  C   UNL     1      -3.567  -2.766   0.004  0.00  0.00    +0.123 C 
BRANCH   7  22
ATOM      8  C   UNL     1      -0.018   1.461   0.010  0.00  0.00    +0.176 C 
ATOM      9  N   UNL     1       0.002  -0.004   0.002  0.00  0.00    -0.231 N 
ATOM     10  C   UNL     1      -1.161  -0.685   0.004  0.00  0.00    +0.291 A 
ATOM     11  O   UNL     1      -2.225  -0.087   0.012  0.00  0.00    -0.264 OA
ATOM     12  C   UNL     1      -1.137  -2.100  -0.004  0.00  0.00    +0.118 A 
ATOM     13  C   UNL     1       0.100  -2.744  -0.013  0.00  0.00    +0.033 A 
ATOM     14  C   UNL     1       1.285  -1.980  -0.015  0.00  0.00    +0.143 A 
ATOM     15  N   UNL     1       1.227  -0.677  -0.013  0.00  0.00    -0.176 NA
ATOM     16  C   UNL     1      -0.181  -4.187  -0.019  0.00  0.00    +0.009 A 
ATOM     17  C   UNL     1       0.624  -5.326  -0.029  0.00  0.00    +0.010 A 
ATOM     18  C   UNL     1       0.050  -6.566  -0.032  0.00  0.00    +0.001 A 
ATOM     19  C   UNL     1      -1.331  -6.702  -0.026  0.00  0.00    +0.002 A 
ATOM     20  C   UNL     1      -2.145  -5.591  -0.017  0.00  0.00    +0.026 A 
ATOM     21  C   UNL     1      -1.580  -4.317  -0.013  0.00  0.00    +0.050 A 
ATOM     22  N   UNL     1      -2.131  -3.054  -0.004  0.00  0.00    -0.335 N 
ENDBRANCH   7  22
ENDBRANCH   6   7
ENDBRANCH   5   6
ENDBRANCH   1   5
BRANCH   3  23
ATOM     23  C   UNL     1      -7.859  -1.888  -4.462  0.00  0.00    +0.102 C 
BRANCH  23  24
ATOM     24  C   UNL     1      -9.360  -1.587  -4.454  0.00  0.00    +0.000 C 
BRANCH  24  25
ATOM     25  C   UNL     1      -9.866  -1.480  -5.893  0.00  0.00    -0.077 C 
BRANCH  25  26
ATOM     26  N   UNL     1     -11.307  -1.192  -5.885  0.00  0.00    +0.380 N 
ATOM     27  C   UNL     1     -12.028  -2.325  -5.294  0.00  0.00    -0.079 C 
ATOM     28  C   UNL     1     -13.520  -1.996  -5.209  0.00  0.00    -0.015 C 
ATOM     29  C   UNL     1     -14.059  -1.725  -6.616  0.00  0.00    -0.010 C 
ATOM     30  C   UNL     1     -13.250  -0.590  -7.251  0.00  0.00    -0.015 C 
ATOM     31  C   UNL     1     -11.768  -0.971  -7.261  0.00  0.00    -0.079 C 
ATOM     32  H   UNL     1     -11.479  -0.362  -5.336  0.00  0.00    -0.082 HD
BRANCH  29  33
ATOM     33  C   UNL     1     -15.531  -1.318  -6.531  0.00  0.00    +0.038 C 
BRANCH  33  34
ATOM     34  C   UNL     1     -16.093  -1.170  -7.922  0.00  0.00    -0.047 A 
ATOM     35  C   UNL     1     -16.027   0.050  -8.568  0.00  0.00    +0.003 A 
ATOM     36  C   UNL     1     -16.542   0.185  -9.843  0.00  0.00    +0.000 A 
ATOM     37  C   UNL     1     -17.123  -0.900 -10.473  0.00  0.00    +0.000 A 
ATOM     38  C   UNL     1     -17.188  -2.120  -9.827  0.00  0.00    +0.000 A 
ATOM     39  C   UNL     1     -16.669  -2.257  -8.553  0.00  0.00    +0.003 A 
ENDBRANCH  33  34
ENDBRANCH  29  33
ENDBRANCH  25  26
ENDBRANCH  24  25
ENDBRANCH  23  24
ENDBRANCH   3  23
TORSDOF 10
