REMARK  Name = ZINC38684207
REMARK  17 active torsions:
REMARK  status: ('A' for Active; 'I' for Inactive)
REMARK    1  A    between atoms: C_1  and  C_2
REMARK    2  A    between atoms: C_2  and  C_3
REMARK    3  A    between atoms: C_2  and  C_4
REMARK    4  A    between atoms: C_4  and  O_5
REMARK    5  A    between atoms: O_5  and  C_6
REMARK    6  A    between atoms: C_9  and  C_14
REMARK    7  A    between atoms: C_11  and  O_12
REMARK    8  A    between atoms: O_12  and  C_13
REMARK    9  A    between atoms: C_19  and  O_28
REMARK   10  A    between atoms: C_23  and  N_27
REMARK   11  A    between atoms: C_24  and  C_25
REMARK   12  A    between atoms: O_28  and  C_29
REMARK   13  A    between atoms: C_29  and  C_31
REMARK   14  A    between atoms: C_34  and  O_37
REMARK   15  A    between atoms: O_37  and  C_38
REMARK   16  A    between atoms: C_38  and  C_39
REMARK   17  A    between atoms: C_38  and  C_40
REMARK                            x       y       z     vdW  Elec       q    Type
REMARK                         _______ _______ _______ _____ _____    ______ ____
ROOT
ATOM      1  C   UNL     1       1.964  -1.275   7.344  0.00  0.00    +0.098 C 
ATOM      2  C   UNL     1       3.346  -0.701   7.513  0.00  0.00    +0.008 A 
ATOM      3  C   UNL     1       3.491   0.631   7.858  0.00  0.00    +0.012 A 
ATOM      4  C   UNL     1       4.751   1.175   8.018  0.00  0.00    +0.047 A 
ATOM      5  C   UNL     1       5.876   0.385   7.831  0.00  0.00    +0.135 A 
ATOM      6  C   UNL     1       5.734  -0.949   7.485  0.00  0.00    +0.093 A 
ATOM      7  C   UNL     1       4.467  -1.494   7.325  0.00  0.00    +0.138 A 
ATOM      8  O   UNL     1       4.344  -2.801   6.986  0.00  0.00    -0.441 OA
ATOM      9  C   UNL     1       3.184  -3.443   7.200  0.00  0.00    +0.199 C 
ATOM     10  C   UNL     1       2.022  -2.777   7.376  0.00  0.00    +0.098 C 
ENDROOT
BRANCH   1  14
ATOM     11  C   UNL     1       0.351  -0.002   3.594  0.00  0.00    +0.162 A 
ATOM     12  C   UNL     1       1.519  -0.748   3.632  0.00  0.00    +0.050 A 
ATOM     13  C   UNL     1       2.038  -1.158   4.846  0.00  0.00    +0.008 A 
ATOM     14  C   UNL     1       1.395  -0.826   6.024  0.00  0.00    -0.031 A 
ATOM     15  C   UNL     1       0.229  -0.082   5.993  0.00  0.00    +0.054 A 
ATOM     16  C   UNL     1      -0.293   0.337   4.779  0.00  0.00    +0.162 A 
BRANCH  16  17
ATOM     17  O   UNL     1      -1.436   1.073   4.747  0.00  0.00    -0.491 OA
ATOM     18  C   UNL     1      -2.043   1.384   6.003  0.00  0.00    +0.277 C 
ENDBRANCH  16  17
BRANCH  11  19
ATOM     19  O   UNL     1      -0.160   0.402   2.400  0.00  0.00    -0.488 OA
BRANCH  19  20
ATOM     20  C   UNL     1       0.554   0.017   1.224  0.00  0.00    +0.232 C 
BRANCH  20  22
ATOM     21  C   UNL     1      -0.127   2.088   0.004  0.00  0.00    +0.010 C 
ATOM     22  C   UNL     1      -0.167   0.559  -0.011  0.00  0.00    +0.020 C 
ATOM     23  C   UNL     1       0.526   0.043  -1.274  0.00  0.00    +0.010 C 
ENDBRANCH  20  22
ENDBRANCH  19  20
ENDBRANCH  11  19
ENDBRANCH   1  14
BRANCH   9  24
ATOM     24  N   UNL     1       3.179  -4.815   7.239  0.00  0.00    -0.328 N 
ATOM     25  H   UNL     1       4.006  -5.307   7.114  0.00  0.00    +0.145 HD
ATOM     26  H   UNL     1       2.349  -5.293   7.393  0.00  0.00    +0.145 HD
ENDBRANCH   9  24
BRANCH  10  27
ATOM     27  C   UNL     1       0.819  -3.520   7.599  0.00  0.00    +0.101 C 
ATOM     28  N   UNL     1      -0.136  -4.110   7.776  0.00  0.00    -0.191 NA
ENDBRANCH  10  27
BRANCH   5  29
ATOM     29  O   UNL     1       7.116   0.919   7.987  0.00  0.00    -0.422 OA
BRANCH  29  30
ATOM     30  C   UNL     1       7.489   1.302   9.224  0.00  0.00    +0.344 C 
ATOM     31  O   UNL     1       6.766   1.076  10.174  0.00  0.00    -0.245 OA
BRANCH  30  32
ATOM     32  C   UNL     1       8.775   1.994   9.425  0.00  0.00    +0.060 A 
ATOM     33  C   UNL     1       9.607   2.260   8.333  0.00  0.00    +0.018 A 
ATOM     34  C   UNL     1      10.806   2.908   8.526  0.00  0.00    +0.046 A 
ATOM     35  C   UNL     1      11.191   3.297   9.803  0.00  0.00    +0.121 A 
ATOM     36  C   UNL     1      10.368   3.034  10.892  0.00  0.00    +0.046 A 
ATOM     37  C   UNL     1       9.164   2.392  10.708  0.00  0.00    +0.018 A 
BRANCH  35  38
ATOM     38  O   UNL     1      12.375   3.935   9.989  0.00  0.00    -0.489 OA
BRANCH  38  39
ATOM     39  C   UNL     1      13.135   4.244   8.819  0.00  0.00    +0.167 C 
ATOM     40  C   UNL     1      12.612   5.541   8.199  0.00  0.00    +0.051 C 
ATOM     41  C   UNL     1      14.607   4.418   9.198  0.00  0.00    +0.051 C 
ENDBRANCH  38  39
ENDBRANCH  35  38
ENDBRANCH  30  32
ENDBRANCH  29  30
ENDBRANCH   5  29
TORSDOF 12
