REMARK  Name = ZINC59599368
REMARK  11 active torsions:
REMARK  status: ('A' for Active; 'I' for Inactive)
REMARK    1  A    between atoms: C_1  and  C_2
REMARK    2  A    between atoms: C_2  and  O_3
REMARK    3  A    between atoms: O_3  and  C_4
REMARK    4  A    between atoms: C_6  and  C_22
REMARK    5  A    between atoms: C_9  and  O_10
REMARK    6  A    between atoms: O_10  and  C_11
REMARK    7  A    between atoms: C_12  and  N_21
REMARK    8  A    between atoms: N_13  and  C_20
REMARK    9  A    between atoms: N_16  and  C_19
REMARK   10  A    between atoms: N_23  and  N_24
REMARK   11  A    between atoms: C_25  and  C_27
REMARK                            x       y       z     vdW  Elec       q    Type
REMARK                         _______ _______ _______ _____ _____    ______ ____
ROOT
ATOM      1  C   UNL     1      -1.503  -1.863   0.136  0.00  0.00    +0.163 A 
ATOM      2  C   UNL     1      -0.405  -2.691   0.272  0.00  0.00    +0.059 A 
ATOM      3  C   UNL     1      -0.588  -4.068   0.425  0.00  0.00    -0.002 A 
ATOM      4  C   UNL     1      -1.880  -4.601   0.440  0.00  0.00    +0.013 A 
ATOM      5  C   UNL     1      -2.970  -3.768   0.304  0.00  0.00    +0.050 A 
ATOM      6  C   UNL     1      -2.789  -2.400   0.158  0.00  0.00    +0.170 A 
ENDROOT
BRANCH   3   7
ATOM      7  C   UNL     1       0.579  -4.957   0.570  0.00  0.00    +0.138 C 
ATOM      8  N   UNL     1       0.408  -6.236   0.712  0.00  0.00    -0.187 NA
BRANCH   8   9
ATOM      9  N   UNL     1       1.517  -7.080   0.850  0.00  0.00    -0.203 N 
ATOM     10  C   UNL     1       1.339  -8.408   0.997  0.00  0.00    +0.264 C 
ATOM     11  O   UNL     1       0.215  -8.873   1.011  0.00  0.00    -0.268 OA
ATOM     12  H   UNL     1       2.413  -6.709   0.839  0.00  0.00    +0.178 HD
BRANCH  10  13
ATOM     13  C   UNL     1       2.509  -9.299   1.142  0.00  0.00    +0.052 A 
ATOM     14  C   UNL     1       3.800  -8.767   1.133  0.00  0.00    +0.014 A 
ATOM     15  C   UNL     1       4.888  -9.604   1.268  0.00  0.00    +0.001 A 
ATOM     16  C   UNL     1       4.702 -10.968   1.414  0.00  0.00    +0.001 A 
ATOM     17  C   UNL     1       3.427 -11.502   1.424  0.00  0.00    +0.016 A 
ATOM     18  C   UNL     1       2.328 -10.675   1.295  0.00  0.00    +0.030 A 
ATOM     19 BR   UNL     1       0.584 -11.406   1.318  0.00  0.00    -0.050 Br
ENDBRANCH  10  13
ENDBRANCH   8   9
ENDBRANCH   3   7
BRANCH   1  20
ATOM     20  O   UNL     1      -1.329  -0.522  -0.012  0.00  0.00    -0.489 OA
BRANCH  20  22
ATOM     21  C   UNL     1       0.012   1.480  -0.201  0.00  0.00    +0.048 C 
ATOM     22  C   UNL     1       0.016  -0.040  -0.025  0.00  0.00    +0.226 C 
ENDBRANCH  20  22
ENDBRANCH   1  20
BRANCH   6  23
ATOM     23  O   UNL     1      -3.867  -1.583   0.030  0.00  0.00    -0.443 OA
BRANCH  23  24
ATOM     24  C   UNL     1      -5.099  -2.160  -0.066  0.00  0.00    +0.230 A 
ATOM     25  C   UNL     1      -6.021  -1.998   0.932  0.00  0.00    +0.149 A 
ATOM     26  N   UNL     1      -7.257  -2.589   0.811  0.00  0.00    -0.282 N 
ATOM     27  C   UNL     1      -7.558  -3.321  -0.278  0.00  0.00    +0.333 A 
ATOM     28  O   UNL     1      -8.655  -3.837  -0.367  0.00  0.00    -0.246 OA
ATOM     29  N   UNL     1      -6.664  -3.490  -1.268  0.00  0.00    -0.261 N 
ATOM     30  C   UNL     1      -5.443  -2.925  -1.195  0.00  0.00    +0.301 A 
ATOM     31  O   UNL     1      -4.640  -3.079  -2.099  0.00  0.00    -0.263 OA
ATOM     32  C   UNL     1      -7.023  -4.293  -2.440  0.00  0.00    +0.157 C 
ATOM     33  C   UNL     1      -8.252  -2.422   1.874  0.00  0.00    +0.155 C 
BRANCH  25  34
ATOM     34  N   UNL     1      -5.715  -1.251   2.045  0.00  0.00    -0.341 N 
ATOM     35  H   UNL     1      -4.870  -0.778   2.094  0.00  0.00    +0.144 HD
ATOM     36  H   UNL     1      -6.343  -1.198   2.782  0.00  0.00    +0.144 HD
ENDBRANCH  25  34
ENDBRANCH  23  24
ENDBRANCH   6  23
TORSDOF 8
