REMARK  Name = ZINC38682788
REMARK  11 active torsions:
REMARK  status: ('A' for Active; 'I' for Inactive)
REMARK    1  A    between atoms: C_1  and  C_2
REMARK    2  A    between atoms: C_2  and  C_3
REMARK    3  A    between atoms: C_3  and  C_4
REMARK    4  A    between atoms: C_4  and  O_5
REMARK    5  A    between atoms: O_5  and  C_6
REMARK    6  A    between atoms: C_11  and  C_12
REMARK    7  A    between atoms: C_17  and  O_26
REMARK    8  A    between atoms: C_21  and  N_25
REMARK    9  A    between atoms: C_22  and  C_23
REMARK   10  A    between atoms: O_26  and  C_27
REMARK   11  A    between atoms: C_27  and  C_29
REMARK                            x       y       z     vdW  Elec       q    Type
REMARK                         _______ _______ _______ _____ _____    ______ ____
ROOT
ATOM      1  C   UNL     1       2.668  -3.416  -4.729  0.00  0.00    +0.101 C 
ATOM      2  C   UNL     1       2.018  -3.673  -6.063  0.00  0.00    +0.008 A 
ATOM      3  C   UNL     1       0.707  -3.281  -6.268  0.00  0.00    +0.012 A 
ATOM      4  C   UNL     1       0.095  -3.508  -7.485  0.00  0.00    +0.047 A 
ATOM      5  C   UNL     1       0.796  -4.132  -8.508  0.00  0.00    +0.135 A 
ATOM      6  C   UNL     1       2.108  -4.526  -8.306  0.00  0.00    +0.093 A 
ATOM      7  C   UNL     1       2.723  -4.297  -7.081  0.00  0.00    +0.138 A 
ATOM      8  O   UNL     1       4.008  -4.688  -6.900  0.00  0.00    -0.441 OA
ATOM      9  C   UNL     1       4.737  -4.153  -5.906  0.00  0.00    +0.199 C 
ATOM     10  C   UNL     1       4.161  -3.538  -4.850  0.00  0.00    +0.098 C 
ENDROOT
BRANCH   1  16
ATOM     11  C   UNL     1       1.496  -3.995  -2.590  0.00  0.00    +0.125 A 
ATOM     12  C   UNL     1       1.029  -4.924  -1.671  0.00  0.00    +0.046 A 
ATOM     13  C   UNL     1       1.237  -6.272  -1.889  0.00  0.00    +0.004 A 
ATOM     14  C   UNL     1       1.909  -6.696  -3.020  0.00  0.00    +0.001 A 
ATOM     15  C   UNL     1       2.375  -5.772  -3.937  0.00  0.00    +0.008 A 
ATOM     16  C   UNL     1       2.165  -4.423  -3.727  0.00  0.00    +0.007 A 
BRANCH  11  17
ATOM     17  O   UNL     1       1.292  -2.668  -2.379  0.00  0.00    -0.492 OA
BRANCH  17  18
ATOM     18  C   UNL     1       0.595  -2.300  -1.187  0.00  0.00    +0.229 C 
BRANCH  18  19
ATOM     19  C   UNL     1       0.463  -0.777  -1.123  0.00  0.00    +0.041 C 
BRANCH  19  21
ATOM     20  C   UNL     1      -0.416   1.140   0.217  0.00  0.00    +0.004 C 
ATOM     21  C   UNL     1      -0.284  -0.383   0.154  0.00  0.00    -0.000 C 
ENDBRANCH  19  21
ENDBRANCH  18  19
ENDBRANCH  17  18
ENDBRANCH  11  17
ENDBRANCH   1  16
BRANCH   9  22
ATOM     22  N   UNL     1       6.106  -4.235  -5.966  0.00  0.00    -0.328 N 
ATOM     23  H   UNL     1       6.533  -4.675  -6.718  0.00  0.00    +0.145 HD
ATOM     24  H   UNL     1       6.646  -3.854  -5.256  0.00  0.00    +0.145 HD
ENDBRANCH   9  22
BRANCH  10  25
ATOM     25  C   UNL     1       4.995  -2.988  -3.824  0.00  0.00    +0.101 C 
ATOM     26  N   UNL     1       5.657  -2.553  -3.010  0.00  0.00    -0.191 NA
ENDBRANCH  10  25
BRANCH   5  27
ATOM     27  O   UNL     1       0.195  -4.357  -9.706  0.00  0.00    -0.422 OA
BRANCH  27  28
ATOM     28  C   UNL     1      -0.085  -3.292 -10.483  0.00  0.00    +0.346 C 
ATOM     29  O   UNL     1       0.292  -2.184 -10.154  0.00  0.00    -0.244 OA
BRANCH  28  30
ATOM     30  C   UNL     1      -0.850  -3.470 -11.732  0.00  0.00    +0.078 A 
ATOM     31  C   UNL     1      -1.290  -4.742 -12.110  0.00  0.00    +0.018 A 
ATOM     32  C   UNL     1      -2.004  -4.902 -13.278  0.00  0.00    +0.021 A 
ATOM     33  C   UNL     1      -2.285  -3.806 -14.079  0.00  0.00    +0.042 A 
ATOM     34  C   UNL     1      -1.853  -2.544 -13.711  0.00  0.00    +0.040 A 
ATOM     35  C   UNL     1      -1.142  -2.368 -12.540  0.00  0.00    +0.056 A 
ATOM     36 CL   UNL     1      -0.607  -0.783 -12.077  0.00  0.00    -0.083 Cl
ATOM     37 CL   UNL     1      -3.184  -4.018 -15.549  0.00  0.00    -0.083 Cl
ENDBRANCH  28  30
ENDBRANCH  27  28
ENDBRANCH   5  27
TORSDOF 10
