REMARK  Name = ZINC59293517
REMARK  8 active torsions:
REMARK  status: ('A' for Active; 'I' for Inactive)
REMARK    1  A    between atoms: C_1  and  C_2
REMARK    2  A    between atoms: C_4  and  C_38
REMARK    3  A    between atoms: C_6  and  N_8
REMARK    4  A    between atoms: C_9  and  C_11
REMARK    5  A    between atoms: C_17  and  C_18
REMARK    6  A    between atoms: C_25  and  N_37
REMARK    7  A    between atoms: C_26  and  C_35
REMARK    8  A    between atoms: C_27  and  C_29
REMARK                            x       y       z     vdW  Elec       q    Type
REMARK                         _______ _______ _______ _____ _____    ______ ____
ROOT
ATOM      1  C   UNL     1      -0.468  -2.205   5.312  0.00  0.00    +0.058 C 
ATOM      2  C   UNL     1      -0.219  -1.635   6.521  0.00  0.00    +0.099 A 
ATOM      3  N   UNL     1       0.013  -2.344   7.682  0.00  0.00    -0.257 N 
ATOM      4  C   UNL     1       0.246  -1.641   8.809  0.00  0.00    +0.271 A 
ATOM      5  O   UNL     1       0.457  -2.207   9.864  0.00  0.00    -0.266 OA
ATOM      6  C   UNL     1       0.239  -0.174   8.730  0.00  0.00    +0.079 A 
ATOM      7  C   UNL     1       0.445   0.742   9.710  0.00  0.00    +0.028 C 
ATOM      8  S   UNL     1      -0.111   0.078   6.998  0.00  0.00    -0.065 S 
ATOM      9  C   UNL     1      -0.005  -3.743   7.642  0.00  0.00    +0.118 C 
ATOM     10  C   UNL     1      -0.238  -4.458   6.519  0.00  0.00    +0.079 C 
ATOM     11  C   UNL     1      -0.502  -3.717   5.224  0.00  0.00    +0.100 C 
ENDROOT
BRANCH   7  12
ATOM     12  C   UNL     1       0.223   2.169   9.440  0.00  0.00    -0.024 A 
ATOM     13  C   UNL     1      -0.510   2.567   8.316  0.00  0.00    +0.008 A 
ATOM     14  C   UNL     1      -0.713   3.908   8.070  0.00  0.00    +0.001 A 
ATOM     15  C   UNL     1      -0.195   4.860   8.930  0.00  0.00    +0.000 A 
ATOM     16  C   UNL     1       0.532   4.475  10.044  0.00  0.00    +0.001 A 
ATOM     17  C   UNL     1       0.740   3.138  10.308  0.00  0.00    +0.008 A 
ENDBRANCH   7  12
BRANCH  11  18
ATOM     18  C   UNL     1       0.531  -4.154   4.217  0.00  0.00    -0.035 A 
ATOM     19  C   UNL     1       1.864  -3.847   4.416  0.00  0.00    +0.004 A 
ATOM     20  C   UNL     1       2.811  -4.247   3.493  0.00  0.00    +0.000 A 
ATOM     21  C   UNL     1       2.425  -4.955   2.369  0.00  0.00    +0.000 A 
ATOM     22  C   UNL     1       1.092  -5.263   2.170  0.00  0.00    +0.000 A 
ATOM     23  C   UNL     1       0.146  -4.866   3.096  0.00  0.00    +0.004 A 
ENDBRANCH  11  18
BRANCH   1  25
ATOM     24  N   UNL     1      -0.946  -1.994   2.987  0.00  0.00    -0.282 N 
ATOM     25  C   UNL     1      -0.695  -1.412   4.176  0.00  0.00    +0.248 C 
ATOM     26  O   UNL     1      -0.664  -0.196   4.265  0.00  0.00    -0.270 OA
ATOM     27  H   UNL     1      -1.048  -2.958   2.931  0.00  0.00    +0.155 HD
BRANCH  24  33
ATOM     28  C   UNL     1      -2.990  -1.213  -1.415  0.00  0.00    +0.044 C 
ATOM     29  C   UNL     1      -2.042  -0.809  -0.316  0.00  0.00    -0.048 A 
ATOM     30  C   UNL     1      -1.282   0.340  -0.446  0.00  0.00    +0.006 A 
ATOM     31  C   UNL     1      -0.411   0.714   0.560  0.00  0.00    -0.048 A 
ATOM     32  C   UNL     1      -0.297  -0.057   1.700  0.00  0.00    +0.026 A 
ATOM     33  C   UNL     1      -1.059  -1.211   1.834  0.00  0.00    +0.034 A 
ATOM     34  C   UNL     1      -1.937  -1.582   0.824  0.00  0.00    +0.026 A 
ATOM     35  C   UNL     1       0.415   1.966   0.412  0.00  0.00    +0.044 C 
ENDBRANCH  24  33
ENDBRANCH   1  25
BRANCH   9  36
ATOM     36  N   UNL     1       0.228  -4.428   8.809  0.00  0.00    -0.343 N 
ATOM     37  H   UNL     1      -0.146  -5.314   8.935  0.00  0.00    +0.144 HD
ATOM     38  H   UNL     1       0.766  -4.025   9.509  0.00  0.00    +0.144 HD
ENDBRANCH   9  36
BRANCH  10  39
ATOM     39  C   UNL     1      -0.240  -5.889   6.554  0.00  0.00    +0.099 C 
ATOM     40  N   UNL     1      -0.241  -7.025   6.582  0.00  0.00    -0.191 NA
ENDBRANCH  10  39
TORSDOF 6
