REMARK  Name = ZINC64348468
REMARK  7 active torsions:
REMARK  status: ('A' for Active; 'I' for Inactive)
REMARK    1  A    between atoms: C_7  and  C_10
REMARK    2  A    between atoms: C_10  and  C_11
REMARK    3  A    between atoms: C_11  and  C_13
REMARK    4  A    between atoms: C_11  and  N_23
REMARK    5  A    between atoms: N_15  and  C_16
REMARK    6  A    between atoms: C_16  and  C_17
REMARK    7  A    between atoms: C_24  and  O_35
REMARK                            x       y       z     vdW  Elec       q    Type
REMARK                         _______ _______ _______ _____ _____    ______ ____
ROOT
ATOM      1  C   UNL     1       0.457  -3.653  -1.462  0.00  0.00    +0.170 C 
ENDROOT
BRANCH   1   2
ATOM      2  N   UNL     1      -0.238  -2.603  -2.210  0.00  0.00    -0.244 N 
ATOM      3  C   UNL     1       0.394  -2.030  -3.399  0.00  0.00    +0.300 C 
ATOM      4  N   UNL     1      -0.625  -1.650  -4.384  0.00  0.00    -0.303 N 
ATOM      5  C   UNL     1      -1.774  -1.002  -3.944  0.00  0.00    +0.042 A 
ATOM      6  C   UNL     1      -2.469  -0.121  -4.755  0.00  0.00    +0.024 A 
ATOM      7  C   UNL     1      -3.612   0.492  -4.277  0.00  0.00    +0.002 A 
ATOM      8  C   UNL     1      -4.067   0.231  -2.994  0.00  0.00    +0.001 A 
ATOM      9  C   UNL     1      -3.384  -0.641  -2.172  0.00  0.00    +0.015 A 
ATOM     10  C   UNL     1      -2.227  -1.262  -2.639  0.00  0.00    +0.058 A 
ATOM     11  C   UNL     1      -1.451  -2.185  -1.794  0.00  0.00    +0.252 C 
ATOM     12  O   UNL     1      -1.898  -2.564  -0.729  0.00  0.00    -0.270 OA
ATOM     13  H   UNL     1      -0.500  -1.848  -5.326  0.00  0.00    +0.150 HD
BRANCH   3  14
ATOM     14  O   UNL     1       1.141  -0.870  -3.025  0.00  0.00    -0.359 OA
ATOM     15  H   UNL     1       1.588  -0.436  -3.764  0.00  0.00    +0.213 HD
ENDBRANCH   3  14
ENDBRANCH   1   2
BRANCH   1  16
ATOM     16  C   UNL     1      -0.385  -4.904  -1.452  0.00  0.00    +0.234 C 
ATOM     17  O   UNL     1      -1.574  -4.836  -1.679  0.00  0.00    -0.274 OA
ATOM     18  N   UNL     1       0.185  -6.097  -1.193  0.00  0.00    -0.311 N 
ATOM     19  H   UNL     1       1.136  -6.151  -1.011  0.00  0.00    +0.149 HD
BRANCH  18  20
ATOM     20  C   UNL     1      -0.633  -7.313  -1.184  0.00  0.00    +0.135 C 
BRANCH  20  21
ATOM     21  C   UNL     1       0.251  -8.520  -0.864  0.00  0.00    +0.135 C 
ATOM     22  C   UNL     1      -0.577  -9.818  -0.971  0.00  0.00    +0.035 C 
ATOM     23  C   UNL     1      -0.037 -10.653   0.222  0.00  0.00    +0.031 C 
ATOM     24  C   UNL     1       0.254  -9.535   1.255  0.00  0.00    +0.160 C 
ATOM     25  O   UNL     1       0.738  -8.424   0.479  0.00  0.00    -0.375 OA
ENDBRANCH  20  21
ENDBRANCH  18  20
ENDBRANCH   1  16
BRANCH   1  26
ATOM     26  C   UNL     1       0.691  -3.186  -0.024  0.00  0.00    +0.065 C 
BRANCH  26  33
ATOM     27  C   UNL     1      -0.016   1.348   0.009  0.00  0.00    +0.001 A 
ATOM     28  C   UNL     1       1.166   2.101   0.002  0.00  0.00    +0.002 A 
ATOM     29  C   UNL     1       2.391   1.535  -0.013  0.00  0.00    +0.026 A 
ATOM     30  C   UNL     1       2.529   0.120  -0.022  0.00  0.00    +0.043 A 
ATOM     31  N   UNL     1       3.587  -0.654  -0.037  0.00  0.00    -0.380 N 
ATOM     32  C   UNL     1       3.143  -2.053  -0.041  0.00  0.00    +0.144 C 
ATOM     33  C   UNL     1       1.631  -2.008  -0.025  0.00  0.00    -0.039 C 
ATOM     34  C   UNL     1       1.295  -0.698  -0.014  0.00  0.00    -0.001 A 
ATOM     35  C   UNL     1       0.002  -0.004   0.002  0.00  0.00    +0.010 A 
ATOM     36  H   UNL     1       4.509  -0.353  -0.045  0.00  0.00    +0.160 HD
ENDBRANCH  26  33
ENDBRANCH   1  26
TORSDOF 7
