REMARK  Name = ZINC13979831
REMARK  12 active torsions:
REMARK  status: ('A' for Active; 'I' for Inactive)
REMARK    1  A    between atoms: C_1  and  C_2
REMARK    2  A    between atoms: C_4  and  O_9
REMARK    3  A    between atoms: O_9  and  C_10
REMARK    4  A    between atoms: C_10  and  C_11
REMARK    5  A    between atoms: N_13  and  N_14
REMARK    6  A    between atoms: N_14  and  C_15
REMARK    7  A    between atoms: C_15  and  N_17
REMARK    8  A    between atoms: C_18  and  C_20
REMARK    9  A    between atoms: C_23  and  C_27
REMARK   10  A    between atoms: C_27  and  C_28
REMARK   11  A    between atoms: C_27  and  C_29
REMARK   12  A    between atoms: C_27  and  C_30
REMARK                            x       y       z     vdW  Elec       q    Type
REMARK                         _______ _______ _______ _____ _____    ______ ____
ROOT
ATOM      1  C   UNL     1       0.022  -7.711  -5.115  0.00  0.00    +0.153 C 
ATOM      2  S   UNL     1      -0.165  -8.284  -6.717  0.00  0.00    -0.017 S 
ENDROOT
BRANCH   1   3
ATOM      3  N   UNL     1       0.071  -8.584  -4.089  0.00  0.00    -0.263 N 
ATOM      4  C   UNL     1      -0.025  -9.907  -4.324  0.00  0.00    +0.250 C 
ATOM      5  O   UNL     1      -0.158 -10.314  -5.462  0.00  0.00    -0.270 OA
ATOM      6  H   UNL     1       0.177  -8.259  -3.181  0.00  0.00    +0.157 HD
BRANCH   4   7
ATOM      7  C   UNL     1       0.029 -10.864  -3.199  0.00  0.00    +0.038 A 
ATOM      8  C   UNL     1       0.175 -10.399  -1.891  0.00  0.00    +0.013 A 
ATOM      9  C   UNL     1       0.226 -11.297  -0.845  0.00  0.00    +0.006 A 
ATOM     10  C   UNL     1       0.131 -12.656  -1.090  0.00  0.00    -0.028 A 
ATOM     11  C   UNL     1      -0.013 -13.123  -2.385  0.00  0.00    +0.022 A 
ATOM     12  C   UNL     1      -0.071 -12.235  -3.440  0.00  0.00    +0.028 A 
ATOM     13 BR   UNL     1      -0.141 -14.982  -2.708  0.00  0.00    -0.050 Br
BRANCH  10  14
ATOM     14  C   UNL     1       0.186 -13.631   0.058  0.00  0.00    -0.012 C 
ATOM     15  C   UNL     1       0.332 -12.862   1.373  0.00  0.00    +0.015 C 
ATOM     16  C   UNL     1      -1.102 -14.456   0.089  0.00  0.00    +0.015 C 
ATOM     17  C   UNL     1       1.385 -14.564  -0.122  0.00  0.00    +0.015 C 
ENDBRANCH  10  14
ENDBRANCH   4   7
ENDBRANCH   1   3
BRANCH   1  18
ATOM     18  N   UNL     1       0.118  -6.388  -4.880  0.00  0.00    -0.245 N 
ATOM     19  H   UNL     1       0.082  -5.760  -5.618  0.00  0.00    +0.172 HD
BRANCH  18  22
ATOM     20  C   UNL     1       0.368  -4.595  -3.333  0.00  0.00    +0.267 C 
ATOM     21  O   UNL     1       0.323  -3.810  -4.256  0.00  0.00    -0.271 OA
ATOM     22  N   UNL     1       0.271  -5.919  -3.568  0.00  0.00    -0.232 N 
ATOM     23  H   UNL     1       0.307  -6.547  -2.830  0.00  0.00    +0.173 HD
BRANCH  20  24
ATOM     24  C   UNL     1       0.532  -4.091  -1.922  0.00  0.00    +0.326 C 
BRANCH  24  25
ATOM     25  O   UNL     1       0.611  -2.664  -1.933  0.00  0.00    -0.483 OA
BRANCH  25  29
ATOM     26  C   UNL     1       1.088   1.467   0.623  0.00  0.00    +0.045 C 
ATOM     27  C   UNL     1       0.997  -0.036   0.553  0.00  0.00    -0.029 A 
ATOM     28  C   UNL     1       0.844  -0.663  -0.668  0.00  0.00    +0.050 A 
ATOM     29  C   UNL     1       0.761  -2.046  -0.732  0.00  0.00    +0.122 A 
ATOM     30  C   UNL     1       0.830  -2.797   0.433  0.00  0.00    +0.047 A 
ATOM     31  C   UNL     1       0.983  -2.167   1.652  0.00  0.00    +0.024 A 
ATOM     32  C   UNL     1       1.071  -0.787   1.713  0.00  0.00    +0.044 A 
ATOM     33 CL   UNL     1       1.270   0.003   3.246  0.00  0.00    -0.083 Cl
ENDBRANCH  25  29
ENDBRANCH  24  25
ENDBRANCH  20  24
ENDBRANCH  18  22
ENDBRANCH   1  18
TORSDOF 8
