REMARK  Name = ZINC08327000
REMARK  9 active torsions:
REMARK  status: ('A' for Active; 'I' for Inactive)
REMARK    1  A    between atoms: C_1  and  C_2
REMARK    2  A    between atoms: C_2  and  C_4
REMARK    3  A    between atoms: C_2  and  N_46
REMARK    4  A    between atoms: C_11  and  C_13
REMARK    5  A    between atoms: C_11  and  C_14
REMARK    6  A    between atoms: C_11  and  N_46
REMARK    7  A    between atoms: N_16  and  C_17
REMARK    8  A    between atoms: C_20  and  N_23
REMARK    9  A    between atoms: C_24  and  C_26
REMARK                            x       y       z     vdW  Elec       q    Type
REMARK                         _______ _______ _______ _____ _____    ______ ____
ROOT
ATOM      1  C   UNL     1      -0.131   8.414   0.367  0.00  0.00    +0.203 C 
ATOM      2  O   UNL     1       0.929   7.833   0.268  0.00  0.00    -0.277 OA
ATOM      3  N   UNL     1      -1.277   7.713   0.470  0.00  0.00    -0.287 N 
ATOM      4  H   UNL     1      -2.117   8.175   0.617  0.00  0.00    +0.155 HD
ENDROOT
BRANCH   3   5
ATOM      5  C   UNL     1      -1.255   6.316   0.364  0.00  0.00    +0.033 A 
ATOM      6  C   UNL     1      -2.312   5.649  -0.242  0.00  0.00    +0.025 A 
ATOM      7  C   UNL     1      -2.290   4.272  -0.346  0.00  0.00    +0.025 A 
ATOM      8  C   UNL     1      -1.212   3.555   0.155  0.00  0.00    +0.033 A 
ATOM      9  C   UNL     1      -0.158   4.222   0.766  0.00  0.00    +0.025 A 
ATOM     10  C   UNL     1      -0.177   5.598   0.866  0.00  0.00    +0.025 A 
BRANCH   8  11
ATOM     11  N   UNL     1      -1.190   2.159   0.049  0.00  0.00    -0.286 N 
ATOM     12  C   UNL     1      -0.013   1.503   0.030  0.00  0.00    +0.214 C 
ATOM     13  O   UNL     1       1.028   2.125  -0.004  0.00  0.00    -0.276 OA
ATOM     14  C   UNL     1       0.011  -0.004   0.045  0.00  0.00    +0.109 C 
ATOM     15  H   UNL     1      -2.022   1.663  -0.011  0.00  0.00    +0.155 HD
ENDBRANCH   8  11
ENDBRANCH   3   5
BRANCH   1  16
ATOM     16  C   UNL     1      -0.166   9.921   0.376  0.00  0.00    +0.014 C 
ATOM     17  C   UNL     1      -0.782  10.409   1.688  0.00  0.00    -0.004 C 
BRANCH  16  18
ATOM     18  N   UNL     1       1.210  10.438   0.255  0.00  0.00    +0.391 N 
ATOM     19  H   UNL     1       1.642  10.471   1.186  0.00  0.00    -0.084 HD
ATOM     20  H   UNL     1       1.754   9.814  -0.353  0.00  0.00    -0.084 HD
BRANCH  18  22
ATOM     21  C   UNL     1       1.168  11.696  -1.852  0.00  0.00    -0.009 C 
ATOM     22  C   UNL     1       1.198  11.794  -0.325  0.00  0.00    -0.043 C 
BRANCH  22  23
ATOM     23  C   UNL     1       2.442  12.527   0.107  0.00  0.00    -0.062 A 
ATOM     24  C   UNL     1       3.652  11.861   0.165  0.00  0.00    +0.003 A 
ATOM     25  C   UNL     1       4.794  12.534   0.556  0.00  0.00    +0.020 A 
ATOM     26  C   UNL     1       4.724  13.873   0.899  0.00  0.00    +0.041 A 
ATOM     27  C   UNL     1       3.512  14.538   0.846  0.00  0.00    +0.020 A 
ATOM     28  C   UNL     1       2.372  13.865   0.450  0.00  0.00    +0.003 A 
ATOM     29 CL   UNL     1       6.157  14.717   1.397  0.00  0.00    -0.084 Cl
ENDBRANCH  22  23
ENDBRANCH  18  22
ENDBRANCH  16  18
ENDBRANCH   1  16
TORSDOF 6
