REMARK  Name = ZINC64538661
REMARK  11 active torsions:
REMARK  status: ('A' for Active; 'I' for Inactive)
REMARK    1  A    between atoms: C_1  and  C_2
REMARK    2  A    between atoms: C_2  and  C_3
REMARK    3  A    between atoms: C_3  and  O_4
REMARK    4  A    between atoms: O_4  and  C_5
REMARK    5  A    between atoms: C_8  and  C_11
REMARK    6  A    between atoms: C_11  and  N_12
REMARK    7  A    between atoms: C_13  and  C_15
REMARK    8  A    between atoms: C_17  and  N_27
REMARK    9  A    between atoms: C_20  and  O_25
REMARK   10  A    between atoms: O_25  and  C_26
REMARK   11  A    between atoms: C_28  and  C_30
REMARK                            x       y       z     vdW  Elec       q    Type
REMARK                         _______ _______ _______ _____ _____    ______ ____
ROOT
ATOM      1  C   UNL     1      -8.476  -5.755  -3.471  0.00  0.00    +0.211 C 
ATOM      2  C   UNL     1      -9.116  -4.385  -3.498  0.00  0.00    +0.051 C 
ATOM      3  C   UNL     1     -10.461  -4.593  -3.251  0.00  0.00    +0.021 A 
ATOM      4  C   UNL     1     -11.562  -3.707  -3.152  0.00  0.00    +0.057 A 
ATOM      5  C   UNL     1     -12.802  -4.200  -2.894  0.00  0.00    +0.121 A 
ATOM      6  C   UNL     1     -13.023  -5.574  -2.721  0.00  0.00    +0.047 A 
ATOM      7  C   UNL     1     -12.015  -6.475  -2.803  0.00  0.00    +0.029 A 
ATOM      8  C   UNL     1     -10.692  -6.036  -3.069  0.00  0.00    +0.045 A 
ATOM      9  N   UNL     1      -9.561  -6.703  -3.195  0.00  0.00    -0.369 N 
ATOM     10  H   UNL     1      -9.461  -7.665  -3.118  0.00  0.00    +0.161 HD
ENDROOT
BRANCH   1  12
ATOM     11  N   UNL     1      -6.207  -5.318  -2.590  0.00  0.00    -0.309 N 
ATOM     12  C   UNL     1      -7.439  -5.822  -2.380  0.00  0.00    +0.241 C 
ATOM     13  O   UNL     1      -7.712  -6.330  -1.313  0.00  0.00    -0.273 OA
ATOM     14  H   UNL     1      -5.988  -4.912  -3.444  0.00  0.00    +0.149 HD
BRANCH  11  15
ATOM     15  C   UNL     1      -5.198  -5.383  -1.530  0.00  0.00    +0.139 C 
BRANCH  15  19
ATOM     16  C   UNL     1      -1.565  -3.603  -2.908  0.00  0.00    +0.121 A 
ATOM     17  C   UNL     1      -2.522  -2.826  -2.270  0.00  0.00    +0.046 A 
ATOM     18  C   UNL     1      -3.695  -3.404  -1.826  0.00  0.00    +0.009 A 
ATOM     19  C   UNL     1      -3.917  -4.756  -2.016  0.00  0.00    -0.030 A 
ATOM     20  C   UNL     1      -2.965  -5.532  -2.651  0.00  0.00    +0.009 A 
ATOM     21  C   UNL     1      -1.793  -4.958  -3.102  0.00  0.00    +0.046 A 
BRANCH  16  22
ATOM     22  O   UNL     1      -0.410  -3.037  -3.346  0.00  0.00    -0.492 OA
BRANCH  22  23
ATOM     23  C   UNL     1      -0.244  -1.637  -3.111  0.00  0.00    +0.229 C 
BRANCH  23  25
ATOM     24  C   UNL     1       1.284   0.316  -3.419  0.00  0.00    +0.007 C 
ATOM     25  C   UNL     1       1.106  -1.183  -3.670  0.00  0.00    +0.038 C 
ENDBRANCH  23  25
ENDBRANCH  22  23
ENDBRANCH  16  22
ENDBRANCH  15  19
ENDBRANCH  11  15
ENDBRANCH   1  12
BRANCH   2  26
ATOM     26  N   UNL     1      -8.495  -3.192  -3.720  0.00  0.00    -0.282 N 
ATOM     27  C   UNL     1      -9.160  -2.190  -4.327  0.00  0.00    +0.248 C 
ATOM     28  O   UNL     1     -10.323  -2.338  -4.648  0.00  0.00    -0.270 OA
ATOM     29  H   UNL     1      -7.575  -3.065  -3.440  0.00  0.00    +0.155 HD
BRANCH  27  30
ATOM     30  C   UNL     1      -8.475  -0.910  -4.604  0.00  0.00    +0.037 A 
ATOM     31  C   UNL     1      -7.137  -0.739  -4.243  0.00  0.00    +0.013 A 
ATOM     32  C   UNL     1      -6.503   0.458  -4.505  0.00  0.00    +0.001 A 
ATOM     33  C   UNL     1      -7.190   1.488  -5.124  0.00  0.00    +0.000 A 
ATOM     34  C   UNL     1      -8.516   1.325  -5.484  0.00  0.00    +0.001 A 
ATOM     35  C   UNL     1      -9.160   0.131  -5.234  0.00  0.00    +0.013 A 
ENDBRANCH  27  30
ENDBRANCH   2  26
BRANCH   5  36
ATOM     36  O   UNL     1     -13.853  -3.342  -2.801  0.00  0.00    -0.495 OA
ATOM     37  C   UNL     1     -15.135  -3.912  -2.529  0.00  0.00    +0.277 C 
ENDBRANCH   5  36
TORSDOF 9
