REMARK  Name = ZINC00628861
REMARK  8 active torsions:
REMARK  status: ('A' for Active; 'I' for Inactive)
REMARK    1  A    between atoms: C_4  and  C_7
REMARK    2  A    between atoms: C_7  and  N_8
REMARK    3  A    between atoms: C_9  and  C_15
REMARK    4  A    between atoms: C_18  and  C_21
REMARK    5  A    between atoms: N_23  and  C_24
REMARK    6  A    between atoms: C_29  and  C_30
REMARK    7  A    between atoms: N_32  and  C_33
REMARK    8  A    between atoms: C_33  and  C_34
REMARK                            x       y       z     vdW  Elec       q    Type
REMARK                         _______ _______ _______ _____ _____    ______ ____
ROOT
ATOM      1  C   UNL     1       2.695   1.302   0.246  0.00  0.00    +0.248 C 
ATOM      2  O   UNL     1       2.419   0.118   0.252  0.00  0.00    -0.270 OA
ATOM      3  N   UNL     1       3.982   1.694   0.165  0.00  0.00    -0.281 N 
ATOM      4  H   UNL     1       4.199   2.637   0.098  0.00  0.00    +0.155 HD
ENDROOT
BRANCH   1   8
ATOM      5  C   UNL     1      -0.397   4.205   0.476  0.00  0.00    -0.017 A 
ATOM      6  C   UNL     1      -0.715   2.858   0.478  0.00  0.00    +0.007 A 
ATOM      7  C   UNL     1       0.285   1.910   0.409  0.00  0.00    +0.013 A 
ATOM      8  C   UNL     1       1.619   2.312   0.326  0.00  0.00    +0.037 A 
ATOM      9  C   UNL     1       1.932   3.672   0.318  0.00  0.00    +0.013 A 
ATOM     10  C   UNL     1       0.923   4.610   0.393  0.00  0.00    +0.007 A 
BRANCH   5  12
ATOM     11  N   UNL     1      -2.696   4.788  -0.172  0.00  0.00    -0.280 N 
ATOM     12  C   UNL     1      -1.495   5.234   0.558  0.00  0.00    +0.165 C 
ATOM     13  S   UNL     1      -2.147   5.372   2.278  0.00  0.00    -0.124 S 
ATOM     14  C   UNL     1      -3.931   5.467   1.817  0.00  0.00    +0.167 C 
ATOM     15  C   UNL     1      -3.884   4.892   0.410  0.00  0.00    +0.227 C 
ATOM     16  O   UNL     1      -4.896   4.540  -0.159  0.00  0.00    -0.275 OA
BRANCH  11  17
ATOM     17  C   UNL     1      -2.579   4.237  -1.524  0.00  0.00    +0.144 C 
BRANCH  17  21
ATOM     18  C   UNL     1      -2.554   7.428  -4.364  0.00  0.00    +0.000 A 
ATOM     19  C   UNL     1      -1.361   6.903  -3.903  0.00  0.00    +0.000 A 
ATOM     20  C   UNL     1      -1.369   5.871  -2.984  0.00  0.00    +0.005 A 
ATOM     21  C   UNL     1      -2.570   5.363  -2.526  0.00  0.00    -0.030 A 
ATOM     22  C   UNL     1      -3.763   5.884  -2.991  0.00  0.00    +0.005 A 
ATOM     23  C   UNL     1      -3.755   6.919  -3.907  0.00  0.00    +0.000 A 
ENDBRANCH  17  21
ENDBRANCH  11  17
ENDBRANCH   5  12
ENDBRANCH   1   8
BRANCH   3  24
ATOM     24  C   UNL     1       5.000   0.745   0.179  0.00  0.00    +0.046 A 
ATOM     25  C   UNL     1       4.814  -0.487  -0.434  0.00  0.00    +0.024 A 
ATOM     26  C   UNL     1       5.827  -1.425  -0.424  0.00  0.00    +0.002 A 
ATOM     27  C   UNL     1       7.031  -1.150   0.205  0.00  0.00    +0.001 A 
ATOM     28  C   UNL     1       7.232   0.065   0.823  0.00  0.00    +0.015 A 
ATOM     29  C   UNL     1       6.218   1.026   0.817  0.00  0.00    +0.058 A 
BRANCH  29  30
ATOM     30  C   UNL     1       6.426   2.329   1.476  0.00  0.00    +0.246 C 
ATOM     31  O   UNL     1       5.509   3.123   1.558  0.00  0.00    -0.270 OA
ATOM     32  N   UNL     1       7.633   2.639   1.989  0.00  0.00    -0.304 N 
ATOM     33  H   UNL     1       8.365   2.006   1.924  0.00  0.00    +0.149 HD
BRANCH  32  34
ATOM     34  C   UNL     1       7.840   3.933   2.644  0.00  0.00    +0.179 C 
BRANCH  34  35
ATOM     35  C   UNL     1       9.265   4.030   3.126  0.00  0.00    +0.122 A 
ATOM     36  C   UNL     1      10.302   4.518   2.422  0.00  0.00    +0.046 A 
ATOM     37  C   UNL     1      11.442   4.420   3.252  0.00  0.00    +0.041 A 
ATOM     38  C   UNL     1      11.034   3.879   4.413  0.00  0.00    +0.195 A 
ATOM     39  O   UNL     1       9.713   3.650   4.334  0.00  0.00    -0.466 OA
ENDBRANCH  34  35
ENDBRANCH  32  34
ENDBRANCH  29  30
ENDBRANCH   3  24
TORSDOF 8
