REMARK  Name = ZINC09348647
REMARK  8 active torsions:
REMARK  status: ('A' for Active; 'I' for Inactive)
REMARK    1  A    between atoms: C_1  and  C_2
REMARK    2  A    between atoms: C_2  and  C_3
REMARK    3  A    between atoms: C_3  and  C_4
REMARK    4  A    between atoms: C_4  and  N_5
REMARK    5  A    between atoms: C_10  and  C_27
REMARK    6  A    between atoms: C_27  and  C_28
REMARK    7  A    between atoms: C_28  and  S_29
REMARK    8  A    between atoms: S_29  and  C_30
REMARK                            x       y       z     vdW  Elec       q    Type
REMARK                         _______ _______ _______ _____ _____    ______ ____
ROOT
ATOM      1  N   UNL     1      -3.069  -3.074   1.420  0.00  0.00    -0.242 N 
ATOM      2  C   UNL     1      -1.863  -2.499   1.480  0.00  0.00    +0.224 C 
ATOM      3  O   UNL     1      -1.212  -2.341   2.491  0.00  0.00    -0.275 OA
ATOM      4  C   UNL     1      -1.437  -2.075   0.092  0.00  0.00    +0.073 C 
ATOM      5  C   UNL     1      -1.433  -0.534   0.013  0.00  0.00    -0.057 C 
ATOM      6  C   UNL     1      -3.200  -1.208  -1.359  0.00  0.00    +0.050 C 
ATOM      7  C   UNL     1      -2.620  -2.518  -0.813  0.00  0.00    +0.088 C 
ATOM      8  C   UNL     1      -3.592  -3.138   0.190  0.00  0.00    +0.225 C 
ATOM      9  O   UNL     1      -4.670  -3.618  -0.088  0.00  0.00    -0.275 OA
ATOM     10  C   UNL     1      -3.692  -1.368  -2.769  0.00  0.00    -0.027 A 
ATOM     11  C   UNL     1      -3.087  -1.743  -3.947  0.00  0.00    +0.019 A 
ATOM     12  C   UNL     1      -3.824  -1.802  -5.117  0.00  0.00    +0.018 A 
ATOM     13  C   UNL     1      -5.170  -1.479  -5.099  0.00  0.00    +0.017 A 
ATOM     14  C   UNL     1      -5.779  -1.100  -3.922  0.00  0.00    +0.024 A 
ATOM     15  C   UNL     1      -5.044  -1.040  -2.740  0.00  0.00    +0.036 A 
ATOM     16  N   UNL     1      -5.429  -0.692  -1.443  0.00  0.00    -0.286 N 
ATOM     17  C   UNL     1      -4.404  -0.770  -0.572  0.00  0.00    +0.211 C 
ATOM     18  O   UNL     1      -4.445  -0.532   0.617  0.00  0.00    -0.277 OA
ATOM     19 BR   UNL     1      -2.995  -2.321  -6.736  0.00  0.00    -0.050 Br
ATOM     20  H   UNL     1      -6.329  -0.426  -1.198  0.00  0.00    +0.155 HD
ATOM     21  N   UNL     1      -2.121  -0.241  -1.247  0.00  0.00    +0.394 N 
ATOM     22  H   UNL     1      -1.472  -0.340  -2.036  0.00  0.00    -0.083 HD
ATOM     23  H   UNL     1      -2.499   0.713  -1.231  0.00  0.00    -0.083 HD
ENDROOT
BRANCH   1  24
ATOM     24  C   UNL     1      -3.760  -3.592   2.603  0.00  0.00    +0.116 C 
BRANCH  24  25
ATOM     25  C   UNL     1      -4.623  -2.487   3.214  0.00  0.00    +0.019 C 
BRANCH  25  27
ATOM     26  C   UNL     1      -6.209  -1.923   5.061  0.00  0.00    +0.004 C 
ATOM     27  C   UNL     1      -5.345  -3.028   4.450  0.00  0.00    -0.002 C 
ENDBRANCH  25  27
ENDBRANCH  24  25
ENDBRANCH   1  24
BRANCH   5  28
ATOM     28  C   UNL     1       0.002  -0.004   0.002  0.00  0.00    -0.004 C 
BRANCH  28  29
ATOM     29  C   UNL     1      -0.019   1.526   0.010  0.00  0.00    +0.067 C 
BRANCH  29  30
ATOM     30  S   UNL     1       1.683   2.154  -0.002  0.00  0.00    -0.164 S 
ATOM     31  C   UNL     1       1.486   3.957   0.009  0.00  0.00    +0.084 C 
ENDBRANCH  29  30
ENDBRANCH  28  29
ENDBRANCH   5  28
TORSDOF 6
