REMARK  Name = ZINC12603451
REMARK  13 active torsions:
REMARK  status: ('A' for Active; 'I' for Inactive)
REMARK    1  A    between atoms: C_1  and  N_55
REMARK    2  A    between atoms: C_2  and  C_3
REMARK    3  A    between atoms: C_2  and  N_55
REMARK    4  A    between atoms: N_5  and  C_8
REMARK    5  A    between atoms: C_8  and  C_9
REMARK    6  A    between atoms: C_11  and  O_32
REMARK    7  A    between atoms: C_13  and  O_31
REMARK    8  A    between atoms: C_15  and  C_18
REMARK    9  A    between atoms: C_18  and  C_19
REMARK   10  A    between atoms: N_21  and  C_22
REMARK   11  A    between atoms: C_22  and  C_23
REMARK   12  A    between atoms: C_26  and  O_29
REMARK   13  A    between atoms: O_29  and  C_30
REMARK                            x       y       z     vdW  Elec       q    Type
REMARK                         _______ _______ _______ _____ _____    ______ ____
ROOT
ATOM      1  C   UNL     1       2.712   3.338   1.175  0.00  0.00    +0.171 C 
ATOM      2  C   UNL     1       3.128   4.823   1.273  0.00  0.00    +0.176 C 
ATOM      3  C   UNL     1       4.612   4.769   1.699  0.00  0.00    +0.175 C 
ATOM      4  C   UNL     1       4.917   3.259   1.808  0.00  0.00    +0.159 C 
ATOM      5  O   UNL     1       3.946   2.623   0.949  0.00  0.00    -0.366 OA
ENDROOT
BRANCH   3   6
ATOM      6  O   UNL     1       4.794   5.410   2.963  0.00  0.00    -0.387 OA
ATOM      7  H   UNL     1       4.559   6.348   2.966  0.00  0.00    +0.210 HD
ENDBRANCH   3   6
BRANCH   2   8
ATOM      8  O   UNL     1       2.345   5.498   2.259  0.00  0.00    -0.387 OA
ATOM      9  H   UNL     1       2.565   6.435   2.362  0.00  0.00    +0.210 HD
ENDBRANCH   2   8
BRANCH   1  10
ATOM     10  C   UNL     1       1.753   3.130   0.002  0.00  0.00    +0.179 C 
BRANCH  10  13
ATOM     11  C   UNL     1       0.002  -0.004   0.002  0.00  0.00    +0.066 A 
ATOM     12  C   UNL     1      -0.016   1.349   0.009  0.00  0.00    +0.131 A 
ATOM     13  N   UNL     1       1.278   1.744  -0.001  0.00  0.00    -0.249 N 
ATOM     14  N   UNL     1       2.020   0.692  -0.013  0.00  0.00    -0.065 NA
ATOM     15  N   UNL     1       1.290  -0.366  -0.012  0.00  0.00    -0.136 NA
BRANCH  11  16
ATOM     16  C   UNL     1      -1.193  -0.922   0.008  0.00  0.00    -0.023 C 
BRANCH  16  18
ATOM     17  C   UNL     1      -2.683  -2.206  -1.404  0.00  0.00    -0.100 C 
ATOM     18  N   UNL     1      -1.515  -1.305  -1.379  0.00  0.00    +0.381 N 
ATOM     19  H   UNL     1      -1.727  -0.461  -1.924  0.00  0.00    -0.086 HD
ATOM     20  H   UNL     1      -0.708  -1.786  -1.794  0.00  0.00    -0.086 HD
ENDBRANCH  16  18
ENDBRANCH  11  16
ENDBRANCH  10  13
ENDBRANCH   1  10
BRANCH   4  21
ATOM     21  C   UNL     1       6.336   2.965   1.317  0.00  0.00    +0.130 C 
BRANCH  21  22
ATOM     22  C   UNL     1       6.656   1.510   1.547  0.00  0.00    +0.216 C 
ATOM     23  O   UNL     1       5.830   0.780   2.053  0.00  0.00    -0.276 OA
ATOM     24  N   UNL     1       7.859   1.020   1.189  0.00  0.00    -0.311 N 
ATOM     25  H   UNL     1       8.520   1.604   0.784  0.00  0.00    +0.149 HD
BRANCH  24  26
ATOM     26  C   UNL     1       8.170  -0.394   1.412  0.00  0.00    +0.139 C 
BRANCH  26  27
ATOM     27  C   UNL     1       9.568  -0.684   0.929  0.00  0.00    -0.030 A 
ATOM     28  C   UNL     1       9.776  -1.088  -0.377  0.00  0.00    +0.009 A 
ATOM     29  C   UNL     1      11.057  -1.348  -0.825  0.00  0.00    +0.046 A 
ATOM     30  C   UNL     1      12.133  -1.216   0.041  0.00  0.00    +0.120 A 
ATOM     31  C   UNL     1      11.921  -0.816   1.352  0.00  0.00    +0.046 A 
ATOM     32  C   UNL     1      10.639  -0.550   1.793  0.00  0.00    +0.009 A 
BRANCH  30  33
ATOM     33  O   UNL     1      13.394  -1.478  -0.395  0.00  0.00    -0.495 OA
ATOM     34  C   UNL     1      13.537  -1.885  -1.757  0.00  0.00    +0.277 C 
ENDBRANCH  30  33
ENDBRANCH  26  27
ENDBRANCH  24  26
ENDBRANCH  21  22
ENDBRANCH   4  21
TORSDOF 11
