REMARK  Name = ZINC39631307
REMARK  11 active torsions:
REMARK  status: ('A' for Active; 'I' for Inactive)
REMARK    1  A    between atoms: C_1  and  C_2
REMARK    2  A    between atoms: C_2  and  C_4
REMARK    3  A    between atoms: C_2  and  N_11
REMARK    4  A    between atoms: C_4  and  C_5
REMARK    5  A    between atoms: C_5  and  C_6
REMARK    6  A    between atoms: C_6  and  C_7
REMARK    7  A    between atoms: C_7  and  C_8
REMARK    8  A    between atoms: C_7  and  C_9
REMARK    9  A    between atoms: C_7  and  O_10
REMARK   10  A    between atoms: C_12  and  C_14
REMARK   11  A    between atoms: C_25  and  C_27
REMARK                            x       y       z     vdW  Elec       q    Type
REMARK                         _______ _______ _______ _____ _____    ______ ____
ROOT
ATOM      1  C   UNL     1      -2.968  -1.559  -1.322  0.00  0.00    +0.100 C 
ATOM      2  C   UNL     1      -3.277  -2.957  -0.740  0.00  0.00    +0.121 C 
ATOM      3  N   UNL     1      -4.375  -3.480  -1.587  0.00  0.00    -0.296 N 
ATOM      4  C   UNL     1      -4.023  -3.043  -2.959  0.00  0.00    +0.115 C 
ATOM      5  C   UNL     1      -3.458  -1.620  -2.779  0.00  0.00    -0.004 C 
ATOM      6  C   UNL     1      -2.295  -1.389  -3.738  0.00  0.00    -0.010 C 
ATOM      7  C   UNL     1      -2.817  -1.396  -5.178  0.00  0.00    -0.082 C 
ATOM      8  N   UNL     1      -3.827  -0.343  -5.339  0.00  0.00    +0.379 N 
ATOM      9  C   UNL     1      -4.984  -0.623  -4.480  0.00  0.00    -0.082 C 
ATOM     10  C   UNL     1      -4.553  -0.584  -3.011  0.00  0.00    -0.010 C 
ATOM     11  C   UNL     1      -5.451  -4.192  -1.196  0.00  0.00    +0.247 C 
ATOM     12  O   UNL     1      -5.669  -4.364  -0.013  0.00  0.00    -0.270 OA
ATOM     13  H   UNL     1      -3.427   0.547  -5.082  0.00  0.00    -0.086 HD
ATOM     14  H   UNL     1      -4.125  -0.310  -6.302  0.00  0.00    -0.086 HD
ENDROOT
BRANCH  11  15
ATOM     15  C   UNL     1      -6.365  -4.762  -2.207  0.00  0.00    +0.037 A 
ATOM     16  C   UNL     1      -5.911  -4.967  -3.523  0.00  0.00    +0.013 A 
ATOM     17  C   UNL     1      -6.732  -5.490  -4.469  0.00  0.00    +0.009 A 
ATOM     18  C   UNL     1      -8.056  -5.833  -4.140  0.00  0.00    -0.018 A 
ATOM     19  C   UNL     1      -8.925  -6.376  -5.102  0.00  0.00    +0.008 A 
ATOM     20  C   UNL     1     -10.200  -6.699  -4.754  0.00  0.00    +0.001 A 
ATOM     21  C   UNL     1     -10.663  -6.500  -3.455  0.00  0.00    +0.001 A 
ATOM     22  C   UNL     1      -9.851  -5.977  -2.495  0.00  0.00    +0.008 A 
ATOM     23  C   UNL     1      -8.526  -5.631  -2.817  0.00  0.00    -0.017 A 
ATOM     24  C   UNL     1      -7.662  -5.096  -1.851  0.00  0.00    +0.021 A 
ENDBRANCH  11  15
BRANCH   1  26
ATOM     25  N   UNL     1      -1.035  -0.025  -1.144  0.00  0.00    -0.312 N 
ATOM     26  C   UNL     1      -1.486  -1.288  -1.279  0.00  0.00    +0.218 C 
ATOM     27  O   UNL     1      -0.699  -2.207  -1.365  0.00  0.00    -0.275 OA
ATOM     28  H   UNL     1      -1.664   0.709  -1.075  0.00  0.00    +0.149 HD
BRANCH  25  30
ATOM     29  C   UNL     1       0.945   0.353  -2.528  0.00  0.00    +0.028 C 
ATOM     30  C   UNL     1       0.406   0.237  -1.101  0.00  0.00    +0.070 C 
BRANCH  30  31
ATOM     31  C   UNL     1       0.663   1.546  -0.351  0.00  0.00    +0.022 C 
BRANCH  31  32
ATOM     32  C   UNL     1       0.237   1.388   1.110  0.00  0.00    +0.005 C 
BRANCH  32  33
ATOM     33  C   UNL     1       0.495   2.696   1.861  0.00  0.00    +0.034 C 
BRANCH  33  34
ATOM     34  C   UNL     1       0.070   2.538   3.322  0.00  0.00    +0.061 C 
ATOM     35  C   UNL     1       0.210   3.881   4.042  0.00  0.00    +0.041 C 
ATOM     36  C   UNL     1      -1.388   2.078   3.381  0.00  0.00    +0.041 C 
BRANCH  34  37
ATOM     37  O   UNL     1       0.902   1.567   3.958  0.00  0.00    -0.389 OA
ATOM     38  H   UNL     1       1.842   1.794   3.958  0.00  0.00    +0.210 HD
ENDBRANCH  34  37
ENDBRANCH  33  34
ENDBRANCH  32  33
ENDBRANCH  31  32
ENDBRANCH  30  31
ENDBRANCH  25  30
ENDBRANCH   1  26
TORSDOF 8
