REMARK  Name = ZINC61117842
REMARK  6 active torsions:
REMARK  status: ('A' for Active; 'I' for Inactive)
REMARK    1  A    between atoms: C_1  and  C_2
REMARK    2  A    between atoms: C_4  and  N_9
REMARK    3  A    between atoms: N_9  and  S_10
REMARK    4  A    between atoms: S_10  and  C_13
REMARK    5  A    between atoms: C_16  and  C_18
REMARK    6  A    between atoms: C_18  and  C_19
REMARK                            x       y       z     vdW  Elec       q    Type
REMARK                         _______ _______ _______ _____ _____    ______ ____
ROOT
ATOM      1  S   UNL     1       0.050  -4.426  -2.426  0.00  0.00    +0.098 S 
ATOM      2  O   UNL     1       1.304  -4.817  -1.883  0.00  0.00    -0.148 OA
ATOM      3  O   UNL     1      -1.187  -4.851  -1.871  0.00  0.00    -0.148 OA
ENDROOT
BRANCH   1   4
ATOM      4  C   UNL     1       0.049  -4.940  -4.112  0.00  0.00    +0.148 A 
ATOM      5  C   UNL     1       1.101  -5.180  -4.932  0.00  0.00    +0.037 A 
ATOM      6  C   UNL     1       0.859  -5.580  -6.233  0.00  0.00    +0.014 A 
ATOM      7  C   UNL     1      -0.423  -5.720  -6.650  0.00  0.00    +0.002 A 
ATOM      8  S   UNL     1      -1.339  -5.287  -5.180  0.00  0.00    -0.073 S 
BRANCH   7   9
ATOM      9  C   UNL     1      -0.941  -6.138  -8.002  0.00  0.00    +0.167 C 
BRANCH   9  10
ATOM     10  C   UNL     1      -1.100  -7.636  -8.037  0.00  0.00    +0.361 C 
ATOM     11  O   UNL     1      -0.819  -8.303  -7.056  0.00  0.00    -0.246 OA
ATOM     12  O   UNL     1      -1.510  -8.182  -9.048  0.00  0.00    -0.246 OA
ENDBRANCH   9  10
ENDBRANCH   7   9
ENDBRANCH   1   4
BRANCH   1  13
ATOM     13  N   UNL     1       0.028  -2.770  -2.419  0.00  0.00    -0.097 NA
BRANCH  13  17
ATOM     14  C   UNL     1      -0.018   1.503   0.010  0.00  0.00    +0.047 C 
ATOM     15  C   UNL     1       0.002  -0.004   0.002  0.00  0.00    -0.013 A 
ATOM     16  C   UNL     1       0.006  -0.688  -1.198  0.00  0.00    +0.032 A 
ATOM     17  C   UNL     1       0.025  -2.076  -1.205  0.00  0.00    +0.075 A 
ATOM     18  C   UNL     1       0.040  -2.775  -0.005  0.00  0.00    +0.029 A 
ATOM     19  C   UNL     1       0.036  -2.087   1.193  0.00  0.00    +0.040 A 
ATOM     20  C   UNL     1       0.023  -0.702   1.197  0.00  0.00    +0.126 A 
ATOM     21  F   UNL     1       0.025  -0.032   2.370  0.00  0.00    -0.205 F 
ENDBRANCH  13  17
ENDBRANCH   1  13
TORSDOF 5
