REMARK  Name = ZINC39597016
REMARK  6 active torsions:
REMARK  status: ('A' for Active; 'I' for Inactive)
REMARK    1  A    between atoms: C_1  and  C_2
REMARK    2  A    between atoms: C_2  and  C_4
REMARK    3  A    between atoms: C_2  and  N_10
REMARK    4  A    between atoms: C_11  and  C_13
REMARK    5  A    between atoms: C_24  and  C_26
REMARK    6  A    between atoms: C_29  and  C_31
REMARK                            x       y       z     vdW  Elec       q    Type
REMARK                         _______ _______ _______ _____ _____    ______ ____
ROOT
ATOM      1  C   UNL     1      -3.465  -1.164  -1.134  0.00  0.00    +0.100 C 
ATOM      2  C   UNL     1      -4.361  -0.271  -0.248  0.00  0.00    +0.121 C 
ATOM      3  N   UNL     1      -4.986   0.685  -1.192  0.00  0.00    -0.294 N 
ATOM      4  C   UNL     1      -5.292  -0.128  -2.393  0.00  0.00    +0.115 C 
ATOM      5  C   UNL     1      -4.080  -1.071  -2.540  0.00  0.00    -0.004 C 
ATOM      6  C   UNL     1      -3.071  -0.482  -3.521  0.00  0.00    -0.010 C 
ATOM      7  C   UNL     1      -3.687  -0.452  -4.923  0.00  0.00    -0.082 C 
ATOM      8  N   UNL     1      -4.055  -1.815  -5.327  0.00  0.00    +0.379 N 
ATOM      9  C   UNL     1      -5.094  -2.339  -4.432  0.00  0.00    -0.082 C 
ATOM     10  C   UNL     1      -4.538  -2.449  -3.010  0.00  0.00    -0.010 C 
ATOM     11  C   UNL     1      -5.224   1.998  -1.002  0.00  0.00    +0.282 C 
ATOM     12  O   UNL     1      -5.750   2.655  -1.881  0.00  0.00    -0.267 OA
ATOM     13  H   UNL     1      -4.403  -1.801  -6.274  0.00  0.00    -0.086 HD
ATOM     14  H   UNL     1      -3.241  -2.409  -5.280  0.00  0.00    -0.086 HD
ENDROOT
BRANCH  11  15
ATOM     15  C   UNL     1      -4.848   2.635   0.263  0.00  0.00    +0.190 A 
ATOM     16  C   UNL     1      -5.038   3.960   0.590  0.00  0.00    +0.055 A 
ATOM     17  C   UNL     1      -4.535   4.133   1.884  0.00  0.00    +0.050 A 
ATOM     18  C   UNL     1      -4.063   2.920   2.296  0.00  0.00    +0.136 A 
ATOM     19  O   UNL     1      -4.262   2.025   1.314  0.00  0.00    -0.450 OA
BRANCH  18  20
ATOM     20  C   UNL     1      -3.442   2.638   3.606  0.00  0.00    +0.017 A 
ATOM     21  C   UNL     1      -3.302   3.658   4.550  0.00  0.00    +0.011 A 
ATOM     22  C   UNL     1      -2.721   3.388   5.771  0.00  0.00    +0.001 A 
ATOM     23  C   UNL     1      -2.277   2.110   6.062  0.00  0.00    +0.000 A 
ATOM     24  C   UNL     1      -2.412   1.095   5.132  0.00  0.00    +0.001 A 
ATOM     25  C   UNL     1      -2.996   1.350   3.908  0.00  0.00    +0.011 A 
ENDBRANCH  18  20
ENDBRANCH  11  15
BRANCH   1  27
ATOM     26  N   UNL     1      -1.021  -1.491  -1.338  0.00  0.00    -0.308 N 
ATOM     27  C   UNL     1      -2.051  -0.643  -1.145  0.00  0.00    +0.219 C 
ATOM     28  O   UNL     1      -1.840   0.540  -0.980  0.00  0.00    -0.275 OA
ATOM     29  H   UNL     1      -1.190  -2.437  -1.470  0.00  0.00    +0.149 HD
BRANCH  26  31
ATOM     30  C   UNL     1       0.879  -0.905   0.087  0.00  0.00    +0.033 C 
ATOM     31  C   UNL     1       0.353  -0.984  -1.348  0.00  0.00    +0.100 C 
BRANCH  31  32
ATOM     32  C   UNL     1       1.226  -1.913  -2.152  0.00  0.00    -0.027 A 
ATOM     33  C   UNL     1       1.051  -3.281  -2.055  0.00  0.00    +0.005 A 
ATOM     34  C   UNL     1       1.851  -4.133  -2.793  0.00  0.00    +0.000 A 
ATOM     35  C   UNL     1       2.825  -3.618  -3.627  0.00  0.00    +0.000 A 
ATOM     36  C   UNL     1       2.999  -2.250  -3.725  0.00  0.00    +0.000 A 
ATOM     37  C   UNL     1       2.196  -1.397  -2.990  0.00  0.00    +0.005 A 
ENDBRANCH  31  32
ENDBRANCH  26  31
ENDBRANCH   1  27
TORSDOF 5
