REMARK  Name = ZINC63752699
REMARK  6 active torsions:
REMARK  status: ('A' for Active; 'I' for Inactive)
REMARK    1  A    between atoms: C_1  and  C_2
REMARK    2  A    between atoms: C_7  and  C_22
REMARK    3  A    between atoms: C_9  and  N_12
REMARK    4  A    between atoms: C_13  and  C_15
REMARK    5  A    between atoms: N_24  and  C_25
REMARK    6  A    between atoms: C_25  and  C_26
REMARK                            x       y       z     vdW  Elec       q    Type
REMARK                         _______ _______ _______ _____ _____    ______ ____
ROOT
ATOM      1  C   UNL     1      -2.448   0.922   0.250  0.00  0.00    +0.044 C 
ATOM      2  C   UNL     1      -1.737  -0.405   0.170  0.00  0.00    -0.050 A 
ATOM      3  C   UNL     1      -1.587  -1.023  -1.075  0.00  0.00    +0.005 A 
ATOM      4  C   UNL     1      -0.958  -2.215  -1.210  0.00  0.00    +0.026 A 
ATOM      5  C   UNL     1      -0.430  -2.869  -0.067  0.00  0.00    +0.045 A 
ATOM      6  N   UNL     1       0.212  -4.012   0.065  0.00  0.00    -0.369 N 
ATOM      7  C   UNL     1       0.537  -4.219   1.480  0.00  0.00    +0.211 C 
ATOM      8  C   UNL     1      -0.009  -3.014   2.213  0.00  0.00    +0.051 C 
ATOM      9  C   UNL     1      -0.590  -2.215   1.243  0.00  0.00    +0.018 A 
ATOM     10  C   UNL     1      -1.254  -0.967   1.305  0.00  0.00    +0.015 A 
ATOM     11  H   UNL     1       0.434  -4.620  -0.657  0.00  0.00    +0.161 HD
ENDROOT
BRANCH   8  12
ATOM     12  N   UNL     1       0.056  -2.767   3.550  0.00  0.00    -0.282 N 
ATOM     13  C   UNL     1       0.143  -1.498   3.997  0.00  0.00    +0.248 C 
ATOM     14  O   UNL     1       0.126  -0.573   3.209  0.00  0.00    -0.270 OA
ATOM     15  H   UNL     1       0.041  -3.503   4.181  0.00  0.00    +0.155 HD
BRANCH  13  16
ATOM     16  C   UNL     1       0.257  -1.232   5.445  0.00  0.00    +0.037 A 
ATOM     17  C   UNL     1       0.281  -2.293   6.353  0.00  0.00    +0.016 A 
ATOM     18  C   UNL     1       0.389  -2.039   7.703  0.00  0.00    +0.039 A 
ATOM     19  C   UNL     1       0.471  -0.732   8.161  0.00  0.00    +0.123 A 
ATOM     20  C   UNL     1       0.448   0.325   7.264  0.00  0.00    +0.039 A 
ATOM     21  C   UNL     1       0.346   0.082   5.911  0.00  0.00    +0.016 A 
ATOM     22  F   UNL     1       0.576  -0.489   9.486  0.00  0.00    -0.205 F 
ENDBRANCH  13  16
ENDBRANCH   8  12
BRANCH   7  23
ATOM     23  C   UNL     1      -0.120  -5.477   1.985  0.00  0.00    +0.241 C 
ATOM     24  O   UNL     1      -1.049  -5.963   1.375  0.00  0.00    -0.273 OA
ATOM     25  N   UNL     1       0.324  -6.063   3.115  0.00  0.00    -0.309 N 
ATOM     26  H   UNL     1       1.067  -5.674   3.603  0.00  0.00    +0.149 HD
BRANCH  25  27
ATOM     27  C   UNL     1      -0.315  -7.286   3.606  0.00  0.00    +0.139 C 
BRANCH  27  28
ATOM     28  C   UNL     1       0.364  -7.734   4.875  0.00  0.00    -0.030 A 
ATOM     29  C   UNL     1       1.446  -8.592   4.813  0.00  0.00    +0.008 A 
ATOM     30  C   UNL     1       2.070  -9.003   5.976  0.00  0.00    +0.038 A 
ATOM     31  C   UNL     1       1.612  -8.553   7.202  0.00  0.00    +0.123 A 
ATOM     32  C   UNL     1       0.529  -7.693   7.263  0.00  0.00    +0.038 A 
ATOM     33  C   UNL     1      -0.091  -7.280   6.099  0.00  0.00    +0.008 A 
ATOM     34  F   UNL     1       2.221  -8.954   8.340  0.00  0.00    -0.205 F 
ENDBRANCH  27  28
ENDBRANCH  25  27
ENDBRANCH   7  23
TORSDOF 5
