REMARK  Name = ZINC35851890
REMARK  5 active torsions:
REMARK  status: ('A' for Active; 'I' for Inactive)
REMARK    1  A    between atoms: C_1  and  C_2
REMARK    2  A    between atoms: C_5  and  C_8
REMARK    3  A    between atoms: C_8  and  C_10
REMARK    4  A    between atoms: C_12  and  C_30
REMARK    5  A    between atoms: C_33  and  N_36
REMARK                            x       y       z     vdW  Elec       q    Type
REMARK                         _______ _______ _______ _____ _____    ______ ____
ROOT
ATOM      1  C   UNL     1       0.076  -4.820   1.773  0.00  0.00    +0.103 C 
ATOM      2  C   UNL     1       1.527  -5.369   1.694  0.00  0.00    +0.050 C 
ATOM      3  C   UNL     1       1.430  -6.459   0.605  0.00  0.00    +0.077 C 
ATOM      4  C   UNL     1       2.035  -5.910  -0.707  0.00  0.00    +0.090 C 
ATOM      5  S   UNL     1       0.878  -6.666  -1.935  0.00  0.00    -0.144 S 
ATOM      6  C   UNL     1      -0.603  -6.700  -0.833  0.00  0.00    +0.155 C 
ATOM      7  N   UNL     1       0.022  -6.849   0.490  0.00  0.00    -0.271 NA
ATOM      8  C   UNL     1      -0.750  -6.088   1.486  0.00  0.00    +0.137 C 
ATOM      9  C   UNL     1      -0.982  -6.880   2.740  0.00  0.00    +0.004 A 
ATOM     10  C   UNL     1      -0.142  -7.478   3.654  0.00  0.00    +0.008 A 
ATOM     11  C   UNL     1      -0.669  -8.156   4.739  0.00  0.00    +0.000 A 
ATOM     12  C   UNL     1      -2.041  -8.230   4.903  0.00  0.00    +0.002 A 
ATOM     13  C   UNL     1      -2.885  -7.633   3.991  0.00  0.00    +0.023 A 
ATOM     14  C   UNL     1      -2.363  -6.949   2.896  0.00  0.00    +0.039 A 
ATOM     15  N   UNL     1      -3.001  -6.273   1.853  0.00  0.00    -0.283 N 
ATOM     16  C   UNL     1      -2.123  -5.739   0.982  0.00  0.00    +0.243 C 
ATOM     17  O   UNL     1      -2.388  -5.100  -0.014  0.00  0.00    -0.273 OA
ATOM     18  H   UNL     1      -3.964  -6.198   1.766  0.00  0.00    +0.155 HD
ENDROOT
BRANCH   2  19
ATOM     19  C   UNL     1       2.486  -4.283   1.281  0.00  0.00    -0.042 A 
ATOM     20  C   UNL     1       3.683  -4.124   1.955  0.00  0.00    +0.006 A 
ATOM     21  C   UNL     1       4.563  -3.127   1.576  0.00  0.00    +0.033 A 
ATOM     22  C   UNL     1       4.246  -2.290   0.523  0.00  0.00    +0.126 A 
ATOM     23  C   UNL     1       3.050  -2.449  -0.151  0.00  0.00    +0.033 A 
ATOM     24  C   UNL     1       2.172  -3.448   0.225  0.00  0.00    +0.006 A 
BRANCH  22  25
ATOM     25  N   UNL     1       5.188  -1.222   0.118  0.00  0.00    +0.056 N 
ATOM     26  O   UNL     1       6.234  -1.083   0.709  0.00  0.00    -0.126 OA
ATOM     27  O   UNL     1       4.911  -0.489  -0.803  0.00  0.00    -0.126 OA
ENDBRANCH  22  25
ENDBRANCH   2  19
BRANCH   1  28
ATOM     28  C   UNL     1      -0.162  -3.770   0.718  0.00  0.00    +0.169 C 
ATOM     29  O   UNL     1      -0.429  -4.101  -0.417  0.00  0.00    -0.292 OA
BRANCH  28  34
ATOM     30  C   UNL     1       0.194   1.804   2.079  0.00  0.00    +0.044 C 
ATOM     31  C   UNL     1       0.101   0.343   1.722  0.00  0.00    -0.050 A 
ATOM     32  C   UNL     1      -0.203  -0.031   0.424  0.00  0.00    +0.004 A 
ATOM     33  C   UNL     1      -0.291  -1.366   0.090  0.00  0.00    +0.011 A 
ATOM     34  C   UNL     1      -0.070  -2.343   1.066  0.00  0.00    +0.018 A 
ATOM     35  C   UNL     1       0.237  -1.957   2.375  0.00  0.00    +0.011 A 
ATOM     36  C   UNL     1       0.326  -0.618   2.692  0.00  0.00    +0.004 A 
ENDBRANCH  28  34
ENDBRANCH   1  28
TORSDOF 4
