REMARK  Name = ZINC24226751
REMARK  9 active torsions:
REMARK  status: ('A' for Active; 'I' for Inactive)
REMARK    1  A    between atoms: C_1  and  C_2
REMARK    2  A    between atoms: C_3  and  C_7
REMARK    3  A    between atoms: C_10  and  S_18
REMARK    4  A    between atoms: N_11  and  C_12
REMARK    5  A    between atoms: S_18  and  C_19
REMARK    6  A    between atoms: C_19  and  C_21
REMARK    7  A    between atoms: C_19  and  C_22
REMARK    8  A    between atoms: C_22  and  C_24
REMARK    9  A    between atoms: C_24  and  C_34
REMARK                            x       y       z     vdW  Elec       q    Type
REMARK                         _______ _______ _______ _____ _____    ______ ____
ROOT
ATOM      1  S   UNL     1       1.902   3.414   0.002  0.00  0.00    -0.075 S 
ENDROOT
BRANCH   1   5
ATOM      2  C   UNL     1       0.002  -0.004   0.002  0.00  0.00    +0.173 A 
ATOM      3  N   UNL     1       1.262  -0.371  -0.012  0.00  0.00    -0.128 NA
ATOM      4  N   UNL     1       2.023   0.664  -0.014  0.00  0.00    -0.122 NA
ATOM      5  C   UNL     1       1.298   1.758  -0.001  0.00  0.00    +0.197 A 
ATOM      6  N   UNL     1      -0.017   1.373   0.010  0.00  0.00    -0.270 N 
BRANCH   2   9
ATOM      7  C   UNL     1       0.052  -3.139  -0.028  0.00  0.00    +0.087 C 
ATOM      8  C   UNL     1      -1.172  -2.260  -0.004  0.00  0.00    +0.112 A 
ATOM      9  C   UNL     1      -1.175  -0.899   0.008  0.00  0.00    +0.060 A 
ATOM     10  C   UNL     1      -2.589  -0.505   0.024  0.00  0.00    +0.053 A 
ATOM     11  C   UNL     1      -3.293  -1.648   0.024  0.00  0.00    +0.196 A 
ATOM     12  O   UNL     1      -2.443  -2.686   0.011  0.00  0.00    -0.467 OA
ENDBRANCH   2   9
BRANCH   6  13
ATOM     13  C   UNL     1      -1.144   2.206   0.020  0.00  0.00    +0.051 A 
ATOM     14  C   UNL     1      -2.008   2.220  -1.067  0.00  0.00    +0.026 A 
ATOM     15  C   UNL     1      -3.121   3.038  -1.052  0.00  0.00    +0.002 A 
ATOM     16  C   UNL     1      -3.370   3.849   0.040  0.00  0.00    +0.000 A 
ATOM     17  C   UNL     1      -2.509   3.841   1.121  0.00  0.00    +0.002 A 
ATOM     18  C   UNL     1      -1.397   3.022   1.114  0.00  0.00    +0.026 A 
ENDBRANCH   6  13
ENDBRANCH   1   5
BRANCH   1  19
ATOM     19  C   UNL     1       3.684   3.097  -0.017  0.00  0.00    +0.123 C 
ATOM     20  C   UNL     1       4.092   2.401   1.283  0.00  0.00    +0.028 C 
BRANCH  19  21
ATOM     21  C   UNL     1       4.425   4.404  -0.141  0.00  0.00    +0.189 C 
ATOM     22  O   UNL     1       3.904   5.436   0.235  0.00  0.00    -0.290 OA
BRANCH  21  23
ATOM     23  C   UNL     1       5.718   4.429  -0.691  0.00  0.00    +0.131 C 
ATOM     24  C   UNL     1       6.409   5.648  -0.807  0.00  0.00    +0.114 C 
ATOM     25  N   UNL     1       5.931   6.862  -0.429  0.00  0.00    -0.300 N 
ATOM     26  C   UNL     1       6.905   7.817  -0.700  0.00  0.00    +0.054 A 
ATOM     27  C   UNL     1       6.959   9.193  -0.521  0.00  0.00    +0.025 A 
ATOM     28  C   UNL     1       8.086   9.892  -0.902  0.00  0.00    +0.002 A 
ATOM     29  C   UNL     1       9.165   9.227  -1.461  0.00  0.00    +0.002 A 
ATOM     30  C   UNL     1       9.121   7.859  -1.644  0.00  0.00    +0.025 A 
ATOM     31  C   UNL     1       7.992   7.147  -1.264  0.00  0.00    +0.054 A 
ATOM     32  N   UNL     1       7.658   5.799  -1.320  0.00  0.00    -0.300 N 
ATOM     33  H   UNL     1       4.925   6.946   0.006  0.00  0.00    +0.153 HD
ATOM     34  H   UNL     1       8.211   4.921  -1.686  0.00  0.00    +0.153 HD
BRANCH  23  35
ATOM     35  C   UNL     1       6.331   3.213  -1.134  0.00  0.00    +0.106 C 
ATOM     36  N   UNL     1       6.818   2.248  -1.485  0.00  0.00    -0.191 NA
ENDBRANCH  23  35
ENDBRANCH  21  23
ENDBRANCH  19  21
ENDBRANCH   1  19
TORSDOF 7
