REMARK  Name = ZINC33276680
REMARK  8 active torsions:
REMARK  status: ('A' for Active; 'I' for Inactive)
REMARK    1  A    between atoms: C_1  and  C_2
REMARK    2  A    between atoms: C_2  and  C_3
REMARK    3  A    between atoms: C_4  and  C_15
REMARK    4  A    between atoms: C_18  and  C_33
REMARK    5  A    between atoms: C_19  and  S_21
REMARK    6  A    between atoms: S_21  and  N_24
REMARK    7  A    between atoms: N_24  and  C_25
REMARK    8  A    between atoms: C_28  and  C_32
REMARK                            x       y       z     vdW  Elec       q    Type
REMARK                         _______ _______ _______ _____ _____    ______ ____
ROOT
ATOM      1  C   UNL     1       0.172   6.796  -0.497  0.00  0.00    -0.011 A 
ATOM      2  C   UNL     1       1.534   6.511  -0.576  0.00  0.00    +0.009 A 
ATOM      3  C   UNL     1       2.002   5.275  -0.181  0.00  0.00    +0.006 A 
ATOM      4  C   UNL     1       1.122   4.318   0.293  0.00  0.00    -0.024 A 
ATOM      5  C   UNL     1      -0.231   4.595   0.373  0.00  0.00    +0.112 A 
ATOM      6  C   UNL     1      -0.711   5.826  -0.024  0.00  0.00    +0.037 A 
ATOM      7  C   UNL     1       1.640   2.970   0.722  0.00  0.00    +0.046 C 
ENDROOT
BRANCH   1   9
ATOM      8  C   UNL     1      -1.200   8.377  -2.003  0.00  0.00    +0.073 A 
ATOM      9  C   UNL     1      -0.337   8.123  -0.920  0.00  0.00    +0.045 A 
ATOM     10  C   UNL     1      -0.055   9.343  -0.316  0.00  0.00    +0.139 A 
ATOM     11  N   UNL     1      -0.773  10.286  -0.978  0.00  0.00    -0.185 N 
ATOM     12  N   UNL     1      -1.437   9.655  -2.048  0.00  0.00    -0.167 NA
ATOM     13  C   UNL     1      -0.920  11.601  -0.709  0.00  0.00    +0.250 C 
ATOM     14  O   UNL     1      -1.540  12.281  -1.492  0.00  0.00    -0.271 OA
ATOM     15  C   UNL     1      -0.364  12.248   0.493  0.00  0.00    +0.110 C 
ATOM     16  C   UNL     1      -0.329  11.372   1.718  0.00  0.00    +0.105 C 
ATOM     17  C   UNL     1       0.809  10.408   1.677  0.00  0.00    +0.219 C 
ATOM     18  O   UNL     1       1.679  10.459   2.520  0.00  0.00    -0.275 OA
ATOM     19  N   UNL     1       0.870   9.479   0.700  0.00  0.00    -0.270 N 
ATOM     20  H   UNL     1       1.734   8.801   0.751  0.00  0.00    +0.156 HD
BRANCH   8  22
ATOM     21  C   UNL     1      -3.080   6.812  -2.407  0.00  0.00    +0.010 C 
ATOM     22  C   UNL     1      -1.753   7.344  -2.951  0.00  0.00    +0.054 C 
ENDBRANCH   8  22
ENDBRANCH   1   9
BRANCH   5  23
ATOM     23  S   UNL     1      -1.344   3.370   0.978  0.00  0.00    +0.073 S 
ATOM     24  O   UNL     1      -2.650   3.918   0.867  0.00  0.00    -0.150 OA
ATOM     25  O   UNL     1      -0.812   2.912   2.213  0.00  0.00    -0.150 OA
BRANCH  23  26
ATOM     26  N   UNL     1      -1.278   2.089  -0.070  0.00  0.00    -0.216 N 
ATOM     27  H   UNL     1      -0.942   1.104   0.286  0.00  0.00    +0.174 HD
BRANCH  26  28
ATOM     28  C   UNL     1      -1.650   2.259  -1.405  0.00  0.00    +0.051 A 
ATOM     29  C   UNL     1      -2.823   2.933  -1.721  0.00  0.00    +0.025 A 
ATOM     30  C   UNL     1      -3.192   3.095  -3.042  0.00  0.00    +0.008 A 
ATOM     31  C   UNL     1      -2.395   2.587  -4.051  0.00  0.00    -0.015 A 
ATOM     32  C   UNL     1      -1.224   1.915  -3.741  0.00  0.00    +0.128 A 
ATOM     33  C   UNL     1      -0.850   1.750  -2.420  0.00  0.00    +0.063 A 
ATOM     34  F   UNL     1      -0.448   1.420  -4.730  0.00  0.00    -0.205 F 
ATOM     35  C   UNL     1      -2.801   2.766  -5.492  0.00  0.00    +0.047 C 
ENDBRANCH  26  28
ENDBRANCH  23  26
ENDBRANCH   5  23
TORSDOF 5
