REMARK  Name = ZINC04230140
REMARK  8 active torsions:
REMARK  status: ('A' for Active; 'I' for Inactive)
REMARK    1  A    between atoms: C_8  and  C_10
REMARK    2  A    between atoms: N_12  and  C_13
REMARK    3  A    between atoms: C_13  and  C_14
REMARK    4  A    between atoms: N_16  and  N_17
REMARK    5  A    between atoms: C_18  and  C_19
REMARK    6  A    between atoms: C_22  and  O_25
REMARK    7  A    between atoms: O_25  and  C_26
REMARK    8  A    between atoms: C_26  and  C_28
REMARK                            x       y       z     vdW  Elec       q    Type
REMARK                         _______ _______ _______ _____ _____    ______ ____
ROOT
ATOM      1  C   UNL     1       3.201  10.155  -0.117  0.00  0.00    +0.249 C 
ATOM      2  O   UNL     1       1.992  10.215  -0.193  0.00  0.00    -0.272 OA
ATOM      3  N   UNL     1       3.928  11.286  -0.025  0.00  0.00    -0.206 N 
ATOM      4  H   UNL     1       4.895  11.238   0.036  0.00  0.00    +0.177 HD
ENDROOT
BRANCH   3   5
ATOM      5  N   UNL     1       3.287  12.532  -0.019  0.00  0.00    -0.188 NA
ATOM      6  C   UNL     1       3.987  13.621   0.069  0.00  0.00    +0.138 C 
BRANCH   6   7
ATOM      7  C   UNL     1       3.312  14.932   0.075  0.00  0.00    -0.005 A 
ATOM      8  C   UNL     1       1.920  15.004  -0.019  0.00  0.00    +0.013 A 
ATOM      9  C   UNL     1       1.293  16.231  -0.007  0.00  0.00    +0.047 A 
ATOM     10  C   UNL     1       2.044  17.396   0.087  0.00  0.00    +0.132 A 
ATOM     11  C   UNL     1       3.429  17.329   0.175  0.00  0.00    +0.047 A 
ATOM     12  C   UNL     1       4.063  16.106   0.170  0.00  0.00    +0.013 A 
BRANCH  10  13
ATOM     13  O   UNL     1       1.422  18.604   0.092  0.00  0.00    -0.422 OA
BRANCH  13  14
ATOM     14  C   UNL     1       1.579  19.401  -0.985  0.00  0.00    +0.351 C 
ATOM     15  O   UNL     1       2.172  18.991  -1.965  0.00  0.00    -0.244 OA
BRANCH  14  16
ATOM     16  C   UNL     1       1.034  20.760  -0.975  0.00  0.00    +0.097 A 
ATOM     17  C   UNL     1       1.085  21.730  -1.966  0.00  0.00    +0.022 A 
ATOM     18  C   UNL     1       0.486  22.934  -1.692  0.00  0.00    +0.008 A 
ATOM     19  C   UNL     1      -0.116  23.117  -0.488  0.00  0.00    +0.046 A 
ATOM     20  S   UNL     1       0.127  21.599   0.312  0.00  0.00    -0.090 S 
ENDBRANCH  14  16
ENDBRANCH  13  14
ENDBRANCH  10  13
ENDBRANCH   6   7
ENDBRANCH   3   5
BRANCH   1  21
ATOM     21  C   UNL     1       3.891   8.815  -0.123  0.00  0.00    +0.202 C 
BRANCH  21  24
ATOM     22  C   UNL     1       3.278   6.460  -0.255  0.00  0.00    +0.253 C 
ATOM     23  O   UNL     1       4.460   6.179  -0.188  0.00  0.00    -0.270 OA
ATOM     24  N   UNL     1       2.890   7.751  -0.230  0.00  0.00    -0.302 N 
ATOM     25  H   UNL     1       1.948   7.975  -0.283  0.00  0.00    +0.150 HD
BRANCH  22  33
ATOM     26  C   UNL     1       0.194   1.076  -0.663  0.00  0.00    +0.001 A 
ATOM     27  C   UNL     1      -1.033   1.726  -0.724  0.00  0.00    +0.001 A 
ATOM     28  C   UNL     1      -1.076   3.104  -0.669  0.00  0.00    +0.016 A 
ATOM     29  C   UNL     1       0.100   3.817  -0.564  0.00  0.00    +0.021 A 
ATOM     30  C   UNL     1       1.363   3.182  -0.506  0.00  0.00    +0.008 A 
ATOM     31  C   UNL     1       1.360   1.765  -0.561  0.00  0.00    +0.010 A 
ATOM     32  C   UNL     1       2.469   4.047  -0.401  0.00  0.00    +0.068 A 
ATOM     33  C   UNL     1       2.274   5.394  -0.361  0.00  0.00    +0.093 A 
ATOM     34  S   UNL     1       0.500   5.544  -0.471  0.00  0.00    -0.082 S 
ATOM     35 CL   UNL     1       4.077   3.398  -0.321  0.00  0.00    -0.082 Cl
ENDBRANCH  22  33
ENDBRANCH  21  24
ENDBRANCH   1  21
TORSDOF 8
