REMARK  Name = ZINC02160791
REMARK  10 active torsions:
REMARK  status: ('A' for Active; 'I' for Inactive)
REMARK    1  A    between atoms: C_1  and  C_2
REMARK    2  A    between atoms: C_2  and  C_3
REMARK    3  A    between atoms: C_3  and  O_4
REMARK    4  A    between atoms: O_4  and  C_5
REMARK    5  A    between atoms: C_8  and  C_14
REMARK    6  A    between atoms: C_10  and  O_11
REMARK    7  A    between atoms: O_11  and  C_12
REMARK    8  A    between atoms: C_12  and  C_13
REMARK    9  A    between atoms: N_20  and  C_35
REMARK   10  A    between atoms: C_23  and  C_34
REMARK                            x       y       z     vdW  Elec       q    Type
REMARK                         _______ _______ _______ _____ _____    ______ ____
ROOT
ATOM      1  C   UNL     1       1.143   3.603  -0.022  0.00  0.00    +0.069 C 
ATOM      2  C   UNL     1       0.457   4.085   1.265  0.00  0.00    +0.123 C 
ATOM      3  N   UNL     1      -0.005   5.455   1.036  0.00  0.00    -0.265 N 
ATOM      4  C   UNL     1       0.385   6.605   1.587  0.00  0.00    +0.317 C 
ATOM      5  O   UNL     1       1.043   6.684   2.605  0.00  0.00    -0.252 OA
ATOM      6  N   UNL     1      -0.038   7.665   0.880  0.00  0.00    -0.192 N 
ATOM      7  C   UNL     1      -0.837   7.294  -0.145  0.00  0.00    +0.257 C 
ATOM      8  O   UNL     1      -1.320   8.010  -0.996  0.00  0.00    -0.272 OA
ATOM      9  C   UNL     1      -1.000   5.798  -0.009  0.00  0.00    +0.153 C 
ATOM     10  C   UNL     1      -0.542   5.074  -1.252  0.00  0.00    +0.054 A 
ATOM     11  C   UNL     1       0.393   4.097  -1.232  0.00  0.00    -0.008 A 
ATOM     12  C   UNL     1       0.529   3.628  -2.600  0.00  0.00    +0.004 A 
ATOM     13  C   UNL     1       1.327   2.638  -3.182  0.00  0.00    +0.010 A 
ATOM     14  C   UNL     1       1.198   2.456  -4.537  0.00  0.00    +0.001 A 
ATOM     15  C   UNL     1       0.325   3.212  -5.302  0.00  0.00    +0.002 A 
ATOM     16  C   UNL     1      -0.476   4.198  -4.751  0.00  0.00    +0.026 A 
ATOM     17  C   UNL     1      -0.368   4.403  -3.377  0.00  0.00    +0.047 A 
ATOM     18  N   UNL     1      -0.996   5.269  -2.529  0.00  0.00    -0.356 N 
ATOM     19  H   UNL     1      -1.662   5.923  -2.791  0.00  0.00    +0.166 HD
ATOM     20  C   UNL     1      -2.426   5.411   0.386  0.00  0.00    +0.048 C 
ENDROOT
BRANCH   6  21
ATOM     21  C   UNL     1       0.305   8.993   1.169  0.00  0.00    +0.048 A 
ATOM     22  C   UNL     1       1.032   9.290   2.314  0.00  0.00    +0.024 A 
ATOM     23  C   UNL     1       1.371  10.598   2.598  0.00  0.00    +0.005 A 
ATOM     24  C   UNL     1       0.987  11.614   1.742  0.00  0.00    +0.038 A 
ATOM     25  C   UNL     1       0.262  11.323   0.599  0.00  0.00    +0.125 A 
ATOM     26  C   UNL     1      -0.075  10.013   0.308  0.00  0.00    +0.062 A 
ATOM     27  F   UNL     1      -0.112  12.318  -0.236  0.00  0.00    -0.205 F 
ENDBRANCH   6  21
BRANCH   1  31
ATOM     28  C   UNL     1       1.224  -0.673  -0.062  0.00  0.00    +0.162 A 
ATOM     29  C   UNL     1       0.013  -0.001  -0.027  0.00  0.00    +0.050 A 
ATOM     30  C   UNL     1      -0.010   1.382  -0.014  0.00  0.00    +0.008 A 
ATOM     31  C   UNL     1       1.174   2.096  -0.036  0.00  0.00    -0.035 A 
ATOM     32  C   UNL     1       2.385   1.431  -0.071  0.00  0.00    +0.053 A 
ATOM     33  C   UNL     1       2.416   0.046  -0.085  0.00  0.00    +0.162 A 
BRANCH  28  34
ATOM     34  O   UNL     1       1.249  -2.033  -0.076  0.00  0.00    -0.488 OA
BRANCH  34  35
ATOM     35  C   UNL     1      -0.013  -2.704  -0.052  0.00  0.00    +0.229 C 
BRANCH  35  37
ATOM     36  C   UNL     1      -1.135  -4.936  -0.046  0.00  0.00    +0.007 C 
ATOM     37  C   UNL     1       0.215  -4.217  -0.072  0.00  0.00    +0.038 C 
ENDBRANCH  35  37
ENDBRANCH  34  35
ENDBRANCH  28  34
BRANCH  33  38
ATOM     38  O   UNL     1       3.607  -0.610  -0.120  0.00  0.00    -0.489 OA
BRANCH  38  39
ATOM     39  C   UNL     1       4.788   0.193  -0.141  0.00  0.00    +0.226 C 
ATOM     40  C   UNL     1       6.020  -0.714  -0.179  0.00  0.00    +0.048 C 
ENDBRANCH  38  39
ENDBRANCH  33  38
ENDBRANCH   1  31
TORSDOF 7
