REMARK  Name = ZINC40009174
REMARK  7 active torsions:
REMARK  status: ('A' for Active; 'I' for Inactive)
REMARK    1  A    between atoms: C_7  and  C_10
REMARK    2  A    between atoms: C_13  and  S_16
REMARK    3  A    between atoms: S_16  and  C_17
REMARK    4  A    between atoms: C_17  and  C_18
REMARK    5  A    between atoms: N_20  and  C_21
REMARK    6  A    between atoms: C_24  and  S_27
REMARK    7  A    between atoms: S_27  and  N_30
REMARK                            x       y       z     vdW  Elec       q    Type
REMARK                         _______ _______ _______ _____ _____    ______ ____
ROOT
ATOM      1  C   UNL     1      -0.012  -5.097   2.832  0.00  0.00    +0.170 C 
ENDROOT
BRANCH   1   2
ATOM      2  C   UNL     1      -0.050  -5.838   4.144  0.00  0.00    +0.227 C 
ATOM      3  O   UNL     1      -0.169  -7.045   4.155  0.00  0.00    -0.275 OA
ATOM      4  N   UNL     1       0.048  -5.160   5.304  0.00  0.00    -0.285 N 
ATOM      5  H   UNL     1       0.209  -4.203   5.295  0.00  0.00    +0.155 HD
BRANCH   4   6
ATOM      6  C   UNL     1      -0.085  -5.835   6.522  0.00  0.00    +0.034 A 
ATOM      7  C   UNL     1      -0.701  -5.212   7.600  0.00  0.00    +0.025 A 
ATOM      8  C   UNL     1      -0.830  -5.881   8.801  0.00  0.00    +0.030 A 
ATOM      9  C   UNL     1      -0.346  -7.170   8.932  0.00  0.00    +0.106 A 
ATOM     10  C   UNL     1       0.268  -7.793   7.861  0.00  0.00    +0.030 A 
ATOM     11  C   UNL     1       0.395  -7.131   6.655  0.00  0.00    +0.025 A 
BRANCH   9  12
ATOM     12  S   UNL     1      -0.513  -8.020  10.466  0.00  0.00    +0.061 S 
ATOM     13  O   UNL     1       0.506  -9.010  10.494  0.00  0.00    -0.153 OA
ATOM     14  O   UNL     1      -0.635  -7.023  11.472  0.00  0.00    -0.153 OA
BRANCH  12  15
ATOM     15  N   UNL     1      -1.958  -8.828  10.424  0.00  0.00    -0.177 NA
ATOM     16  C   UNL     1      -3.253  -8.291  10.864  0.00  0.00    +0.109 C 
ATOM     17  C   UNL     1      -4.303  -9.404  10.663  0.00  0.00    +0.018 C 
ATOM     18  C   UNL     1      -3.443 -10.695  10.649  0.00  0.00    +0.018 C 
ATOM     19  C   UNL     1      -2.159 -10.204   9.931  0.00  0.00    +0.109 C 
ENDBRANCH  12  15
ENDBRANCH   9  12
ENDBRANCH   4   6
ENDBRANCH   1   2
BRANCH   1  20
ATOM     20  S   UNL     1      -0.165  -6.279   1.465  0.00  0.00    -0.087 S 
BRANCH  20  24
ATOM     21  C   UNL     1       0.704  -3.136  -0.020  0.00  0.00    +0.238 C 
ATOM     22  N   UNL     1      -0.597  -3.006  -0.016  0.00  0.00    -0.145 NA
ATOM     23  N   UNL     1      -1.207  -4.269  -0.017  0.00  0.00    -0.219 N 
ATOM     24  C   UNL     1      -0.102  -5.242  -0.022  0.00  0.00    +0.339 C 
ATOM     25  O   UNL     1       1.085  -4.436  -0.029  0.00  0.00    -0.443 OA
ATOM     26  H   UNL     1      -2.158  -4.461  -0.014  0.00  0.00    +0.173 HD
BRANCH  21  33
ATOM     27  C   UNL     1       0.043   1.352   0.007  0.00  0.00    +0.001 A 
ATOM     28  C   UNL     1       1.228   2.091   0.003  0.00  0.00    +0.002 A 
ATOM     29  C   UNL     1       2.444   1.493  -0.009  0.00  0.00    +0.026 A 
ATOM     30  C   UNL     1       2.533   0.077  -0.017  0.00  0.00    +0.043 A 
ATOM     31  N   UNL     1       3.575  -0.732  -0.029  0.00  0.00    -0.380 N 
ATOM     32  C   UNL     1       3.110  -2.122  -0.032  0.00  0.00    +0.154 C 
ATOM     33  C   UNL     1       1.598  -2.057  -0.021  0.00  0.00    +0.043 C 
ATOM     34  C   UNL     1       1.281  -0.697  -0.012  0.00  0.00    +0.008 A 
ATOM     35  C   UNL     1       0.052  -0.006   0.000  0.00  0.00    +0.010 A 
ATOM     36  H   UNL     1       4.504  -0.450  -0.034  0.00  0.00    +0.160 HD
ENDBRANCH  21  33
ENDBRANCH  20  24
ENDBRANCH   1  20
TORSDOF 7
