REMARK  Name = ZINC03382513
REMARK  13 active torsions:
REMARK  status: ('A' for Active; 'I' for Inactive)
REMARK    1  A    between atoms: C_1  and  C_2
REMARK    2  A    between atoms: C_5  and  C_31
REMARK    3  A    between atoms: C_7  and  S_8
REMARK    4  A    between atoms: S_8  and  N_11
REMARK    5  A    between atoms: N_11  and  C_12
REMARK    6  A    between atoms: C_15  and  C_18
REMARK    7  A    between atoms: N_20  and  N_21
REMARK    8  A    between atoms: C_22  and  C_24
REMARK    9  A    between atoms: C_26  and  C_30
REMARK   10  A    between atoms: C_28  and  C_29
REMARK   11  A    between atoms: C_31  and  C_32
REMARK   12  A    between atoms: C_31  and  C_33
REMARK   13  A    between atoms: C_31  and  C_34
REMARK                            x       y       z     vdW  Elec       q    Type
REMARK                         _______ _______ _______ _____ _____    ______ ____
ROOT
ATOM      1  C   UNL     1       1.333  -0.584  -0.033  0.00  0.00    +0.048 A 
ATOM      2  C   UNL     1       0.164   0.169   0.045  0.00  0.00    +0.025 A 
ATOM      3  C   UNL     1       0.227   1.543   0.034  0.00  0.00    +0.015 A 
ATOM      4  C   UNL     1       1.466   2.184  -0.056  0.00  0.00    +0.038 A 
ATOM      5  C   UNL     1       2.638   1.426  -0.134  0.00  0.00    +0.015 A 
ATOM      6  C   UNL     1       2.568   0.052  -0.123  0.00  0.00    +0.025 A 
ENDROOT
BRANCH   4   7
ATOM      7  C   UNL     1       1.536   3.658  -0.069  0.00  0.00    +0.260 C 
ATOM      8  O   UNL     1       0.516   4.316  -0.000  0.00  0.00    -0.269 OA
ATOM      9  N   UNL     1       2.732   4.274  -0.155  0.00  0.00    -0.230 N 
ATOM     10  H   UNL     1       3.546   3.749  -0.210  0.00  0.00    +0.173 HD
BRANCH   9  11
ATOM     11  N   UNL     1       2.799   5.674  -0.167  0.00  0.00    -0.230 N 
ATOM     12  C   UNL     1       3.994   6.290  -0.254  0.00  0.00    +0.263 C 
ATOM     13  O   UNL     1       5.015   5.632  -0.322  0.00  0.00    -0.269 OA
ATOM     14  H   UNL     1       1.985   6.199  -0.113  0.00  0.00    +0.173 HD
BRANCH  12  15
ATOM     15  C   UNL     1       4.065   7.762  -0.266  0.00  0.00    +0.079 A 
ATOM     16  C   UNL     1       2.940   8.707  -0.199  0.00  0.00    +0.057 A 
ATOM     17  C   UNL     1       3.485   9.932  -0.237  0.00  0.00    +0.103 A 
ATOM     18  O   UNL     1       4.819   9.818  -0.329  0.00  0.00    -0.464 OA
ATOM     19  C   UNL     1       5.187   8.533  -0.349  0.00  0.00    +0.114 A 
ATOM     20  C   UNL     1       6.602   8.023  -0.445  0.00  0.00    +0.087 C 
ATOM     21  C   UNL     1       2.720  11.230  -0.190  0.00  0.00    +0.086 C 
ENDBRANCH  12  15
ENDBRANCH   9  11
ENDBRANCH   4   7
BRANCH   1  22
ATOM     22  N   UNL     1       1.266  -1.972  -0.022  0.00  0.00    -0.216 N 
ATOM     23  H   UNL     1       0.707  -2.426   0.628  0.00  0.00    +0.174 HD
BRANCH  22  24
ATOM     24  S   UNL     1       2.142  -2.853  -1.117  0.00  0.00    +0.073 S 
ATOM     25  O   UNL     1       3.485  -2.400  -1.022  0.00  0.00    -0.150 OA
ATOM     26  O   UNL     1       1.781  -4.214  -0.926  0.00  0.00    -0.150 OA
BRANCH  24  33
ATOM     27  C   UNL     1      -0.670  -3.340  -2.121  0.00  0.00    +0.046 C 
ATOM     28  C   UNL     1       0.266  -2.667  -3.091  0.00  0.00    -0.024 A 
ATOM     29  C   UNL     1      -0.183  -2.308  -4.349  0.00  0.00    +0.005 A 
ATOM     30  C   UNL     1       0.677  -1.696  -5.241  0.00  0.00    +0.004 A 
ATOM     31  C   UNL     1       1.984  -1.436  -4.874  0.00  0.00    -0.040 A 
ATOM     32  C   UNL     1       2.431  -1.789  -3.615  0.00  0.00    +0.033 A 
ATOM     33  C   UNL     1       1.571  -2.402  -2.723  0.00  0.00    +0.112 A 
BRANCH  31  34
ATOM     34  C   UNL     1       2.921  -0.768  -5.847  0.00  0.00    -0.013 C 
ATOM     35  C   UNL     1       4.112  -1.689  -6.122  0.00  0.00    +0.015 C 
ATOM     36  C   UNL     1       2.182  -0.486  -7.156  0.00  0.00    +0.015 C 
ATOM     37  C   UNL     1       3.423   0.548  -5.250  0.00  0.00    +0.015 C 
ENDBRANCH  31  34
ENDBRANCH  24  33
ENDBRANCH  22  24
ENDBRANCH   1  22
TORSDOF 7
