REMARK  Name = ZINC15015394
REMARK  2 active torsions:
REMARK  status: ('A' for Active; 'I' for Inactive)
REMARK    1  A    between atoms: C_5  and  C_7
REMARK    2  A    between atoms: N_9  and  N_10
REMARK                            x       y       z     vdW  Elec       q    Type
REMARK                         _______ _______ _______ _____ _____    ______ ____
ROOT
ATOM      1  N   UNL     1       0.123  -4.256  -0.022  0.00  0.00    -0.174 NA
ATOM      2  C   UNL     1      -1.000  -4.933  -0.015  0.00  0.00    +0.153 C 
ATOM      3  C   UNL     1      -1.166  -6.405  -0.015  0.00  0.00    +0.029 A 
ATOM      4  C   UNL     1      -0.266  -7.465  -0.023  0.00  0.00    +0.026 A 
ATOM      5  C   UNL     1      -0.737  -8.763  -0.022  0.00  0.00    +0.014 A 
ATOM      6  C   UNL     1      -2.100  -9.007  -0.013  0.00  0.00    +0.016 A 
ATOM      7  C   UNL     1      -3.001  -7.961  -0.005  0.00  0.00    +0.025 A 
ATOM      8  C   UNL     1      -2.546  -6.647  -0.006  0.00  0.00    +0.043 A 
ATOM      9  N   UNL     1      -3.226  -5.434  -0.000  0.00  0.00    -0.280 N 
ATOM     10  C   UNL     1      -2.375  -4.394   0.002  0.00  0.00    +0.269 C 
ATOM     11  O   UNL     1      -2.683  -3.217   0.012  0.00  0.00    -0.268 OA
ATOM     12  I   UNL     1       0.613 -10.365  -0.035  0.00  0.00    -0.044 I 
ATOM     13  H   UNL     1      -4.192  -5.350   0.006  0.00  0.00    +0.155 HD
ENDROOT
BRANCH   1  16
ATOM     14  C   UNL     1       1.250  -2.159  -0.021  0.00  0.00    +0.264 C 
ATOM     15  O   UNL     1       2.314  -2.747  -0.035  0.00  0.00    -0.268 OA
ATOM     16  N   UNL     1       0.096  -2.855  -0.014  0.00  0.00    -0.202 N 
ATOM     17  H   UNL     1      -0.753  -2.386  -0.004  0.00  0.00    +0.178 HD
BRANCH  14  22
ATOM     18  C   UNL     1      -0.017   1.375   0.010  0.00  0.00    +0.001 A 
ATOM     19  C   UNL     1       1.170   2.087   0.002  0.00  0.00    +0.001 A 
ATOM     20  C   UNL     1       2.383   1.422  -0.013  0.00  0.00    +0.016 A 
ATOM     21  C   UNL     1       2.417   0.042  -0.021  0.00  0.00    +0.030 A 
ATOM     22  C   UNL     1       1.223  -0.683  -0.013  0.00  0.00    +0.052 A 
ATOM     23  C   UNL     1       0.002  -0.004   0.002  0.00  0.00    +0.014 A 
ATOM     24 BR   UNL     1       4.076  -0.865  -0.042  0.00  0.00    -0.050 Br
ENDBRANCH  14  22
ENDBRANCH   1  16
TORSDOF 2
