REMARK  Name = ZINC49644813
REMARK  6 active torsions:
REMARK  status: ('A' for Active; 'I' for Inactive)
REMARK    1  A    between atoms: C_1  and  C_2
REMARK    2  A    between atoms: N_10  and  C_14
REMARK    3  A    between atoms: C_14  and  C_15
REMARK    4  A    between atoms: C_15  and  N_17
REMARK    5  A    between atoms: N_24  and  C_27
REMARK    6  A    between atoms: C_27  and  C_28
REMARK                            x       y       z     vdW  Elec       q    Type
REMARK                         _______ _______ _______ _____ _____    ______ ____
ROOT
ATOM      1  N   UNL     1       3.947  -7.420  -1.740  0.00  0.00    -0.155 NA
ATOM      2  C   UNL     1       4.091  -7.830  -3.002  0.00  0.00    +0.163 A 
ATOM      3  N   UNL     1       3.829  -7.146  -4.148  0.00  0.00    -0.339 N 
ATOM      4  C   UNL     1       4.044  -7.747  -5.357  0.00  0.00    +0.024 A 
ATOM      5  C   UNL     1       4.512  -9.005  -5.297  0.00  0.00    -0.004 A 
ATOM      6  S   UNL     1       4.649  -9.317  -3.561  0.00  0.00    -0.059 S 
ATOM      7  C   UNL     1       4.831  -9.896  -6.452  0.00  0.00    -0.033 C 
ATOM      8  N   UNL     1       4.208  -9.329  -7.663  0.00  0.00    +0.386 N 
ATOM      9  C   UNL     1       4.553  -7.905  -7.770  0.00  0.00    -0.072 C 
ATOM     10  C   UNL     1       3.797  -7.096  -6.712  0.00  0.00    +0.035 C 
ATOM     11  H   UNL     1       3.490  -6.238  -4.107  0.00  0.00    +0.167 HD
ATOM     12  H   UNL     1       3.205  -9.428  -7.603  0.00  0.00    -0.081 HD
ENDROOT
BRANCH   1  13
ATOM     13  C   UNL     1       3.488  -6.201  -1.487  0.00  0.00    +0.256 C 
ATOM     14  O   UNL     1       3.199  -5.457  -2.405  0.00  0.00    -0.272 OA
BRANCH  13  15
ATOM     15  C   UNL     1       3.325  -5.738  -0.062  0.00  0.00    +0.215 C 
BRANCH  15  25
ATOM     16  C   UNL     1      -0.019   1.526   0.010  0.00  0.00    +0.007 C 
ATOM     17  C   UNL     1       0.002  -0.004   0.002  0.00  0.00    -0.014 C 
ATOM     18  C   UNL     1       0.716  -0.497  -1.258  0.00  0.00    +0.006 C 
ATOM     19  C   UNL     1       0.727  -2.028  -1.271  0.00  0.00    +0.035 C 
ATOM     20  C   UNL     1       1.442  -2.543  -0.027  0.00  0.00    +0.113 C 
ATOM     21  C   UNL     1       0.753  -2.041   1.238  0.00  0.00    +0.035 C 
ATOM     22  C   UNL     1       0.742  -0.510   1.242  0.00  0.00    +0.006 C 
ATOM     23  C   UNL     1       1.495  -4.053  -0.035  0.00  0.00    +0.247 C 
ATOM     24  O   UNL     1       0.556  -4.821  -0.030  0.00  0.00    -0.273 OA
ATOM     25  N   UNL     1       2.807  -4.367  -0.051  0.00  0.00    -0.215 N 
ATOM     26  C   UNL     1       3.576  -3.272  -0.053  0.00  0.00    +0.310 C 
ATOM     27  O   UNL     1       4.791  -3.300  -0.065  0.00  0.00    -0.252 OA
ATOM     28  N   UNL     1       2.853  -2.136  -0.039  0.00  0.00    -0.285 N 
ATOM     29  H   UNL     1       3.196  -1.229  -0.038  0.00  0.00    +0.151 HD
ENDBRANCH  15  25
ENDBRANCH  13  15
ENDBRANCH   1  13
BRANCH   8  30
ATOM     30  C   UNL     1       4.700 -10.043  -8.848  0.00  0.00    -0.043 C 
BRANCH  30  31
ATOM     31  C   UNL     1       4.241 -11.478  -8.797  0.00  0.00    -0.064 A 
ATOM     32  C   UNL     1       5.023 -12.433  -8.175  0.00  0.00    +0.002 A 
ATOM     33  C   UNL     1       4.602 -13.748  -8.128  0.00  0.00    +0.000 A 
ATOM     34  C   UNL     1       3.398 -14.109  -8.703  0.00  0.00    +0.000 A 
ATOM     35  C   UNL     1       2.615 -13.154  -9.324  0.00  0.00    +0.000 A 
ATOM     36  C   UNL     1       3.034 -11.838  -9.367  0.00  0.00    +0.002 A 
ENDBRANCH  30  31
ENDBRANCH   8  30
TORSDOF 5
