REMARK  Name = ZINC38547685
REMARK  7 active torsions:
REMARK  status: ('A' for Active; 'I' for Inactive)
REMARK    1  A    between atoms: C_1  and  C_2
REMARK    2  A    between atoms: C_3  and  C_33
REMARK    3  A    between atoms: C_5  and  N_25
REMARK    4  A    between atoms: C_6  and  C_7
REMARK    5  A    between atoms: C_7  and  C_9
REMARK    6  A    between atoms: C_7  and  N_18
REMARK    7  A    between atoms: C_26  and  C_28
REMARK                            x       y       z     vdW  Elec       q    Type
REMARK                         _______ _______ _______ _____ _____    ______ ____
ROOT
ATOM      1  C   UNL     1       0.031  -0.232   2.550  0.00  0.00    +0.135 C 
ENDROOT
BRANCH   1   2
ATOM      2  C   UNL     1       1.376  -0.305   3.225  0.00  0.00    -0.019 A 
ATOM      3  C   UNL     1       1.835  -1.512   3.719  0.00  0.00    +0.009 A 
ATOM      4  C   UNL     1       3.068  -1.584   4.339  0.00  0.00    +0.050 A 
ATOM      5  C   UNL     1       3.847  -0.445   4.468  0.00  0.00    +0.166 A 
ATOM      6  C   UNL     1       3.385   0.770   3.971  0.00  0.00    +0.167 A 
ATOM      7  C   UNL     1       2.150   0.834   3.345  0.00  0.00    +0.055 A 
ATOM      8  O   UNL     1       4.324   1.729   4.218  0.00  0.00    -0.453 OA
ATOM      9  C   UNL     1       5.183   1.173   5.231  0.00  0.00    +0.466 C 
ATOM     10  O   UNL     1       5.077  -0.248   5.027  0.00  0.00    -0.453 OA
ENDBRANCH   1   2
BRANCH   1  11
ATOM     11  N   UNL     1      -0.952  -0.985   3.334  0.00  0.00    -0.320 N 
ATOM     12  C   UNL     1      -1.517  -0.416   4.470  0.00  0.00    +0.097 A 
ATOM     13  C   UNL     1      -1.149   0.870   4.853  0.00  0.00    +0.041 A 
ATOM     14  C   UNL     1      -1.720   1.423   5.985  0.00  0.00    +0.005 A 
ATOM     15  C   UNL     1      -2.642   0.669   6.699  0.00  0.00    +0.018 A 
ATOM     16  C   UNL     1      -2.959  -0.601   6.262  0.00  0.00    +0.084 A 
ATOM     17  N   UNL     1      -2.404  -1.101   5.175  0.00  0.00    -0.350 N 
ATOM     18  H   UNL     1      -1.207  -1.879   3.061  0.00  0.00    +0.148 HD
ATOM     19  H   UNL     1      -2.648  -1.995   4.887  0.00  0.00    +0.166 HD
ENDBRANCH   1  11
BRANCH   1  25
ATOM     20  C   UNL     1       0.240   1.492   0.210  0.00  0.00    +0.045 C 
ATOM     21  C   UNL     1       0.230  -0.007   0.057  0.00  0.00    -0.033 A 
ATOM     22  C   UNL     1       0.323  -0.573  -1.171  0.00  0.00    -0.008 A 
ATOM     23  S   UNL     1       0.264  -2.314  -0.784  0.00  0.00    -0.078 S 
ATOM     24  C   UNL     1       0.119  -2.175   0.990  0.00  0.00    +0.078 A 
ATOM     25  C   UNL     1       0.130  -0.825   1.168  0.00  0.00    +0.009 A 
ATOM     26  C   UNL     1       0.445   0.096  -2.515  0.00  0.00    +0.052 C 
BRANCH  24  27
ATOM     27  N   UNL     1       0.023  -3.188   1.946  0.00  0.00    -0.273 N 
ATOM     28  C   UNL     1      -0.059  -4.476   1.558  0.00  0.00    +0.284 C 
ATOM     29  O   UNL     1      -0.051  -4.757   0.374  0.00  0.00    -0.266 OA
ATOM     30  H   UNL     1       0.016  -2.964   2.890  0.00  0.00    +0.156 HD
BRANCH  28  31
ATOM     31  C   UNL     1      -0.160  -5.539   2.563  0.00  0.00    +0.189 A 
ATOM     32  C   UNL     1      -0.243  -6.878   2.309  0.00  0.00    +0.054 A 
ATOM     33  C   UNL     1      -0.322  -7.522   3.554  0.00  0.00    +0.042 A 
ATOM     34  C   UNL     1      -0.283  -6.559   4.502  0.00  0.00    +0.196 A 
ATOM     35  O   UNL     1      -0.179  -5.367   3.901  0.00  0.00    -0.458 OA
ENDBRANCH  28  31
ENDBRANCH  24  27
ENDBRANCH   1  25
TORSDOF 5
