REMARK  Name = ZINC09968476
REMARK  6 active torsions:
REMARK  status: ('A' for Active; 'I' for Inactive)
REMARK    1  A    between atoms: C_1  and  N_2
REMARK    2  A    between atoms: C_6  and  C_8
REMARK    3  A    between atoms: C_8  and  S_9
REMARK    4  A    between atoms: S_9  and  C_10
REMARK    5  A    between atoms: C_13  and  C_23
REMARK    6  A    between atoms: N_14  and  C_15
REMARK                            x       y       z     vdW  Elec       q    Type
REMARK                         _______ _______ _______ _____ _____    ______ ____
ROOT
ATOM      1  C   UNL     1      -2.846   0.121   0.946  0.00  0.00    +0.197 A 
ATOM      2  N   UNL     1      -4.049  -0.272   0.590  0.00  0.00    -0.122 NA
ATOM      3  N   UNL     1      -4.392   0.296  -0.510  0.00  0.00    -0.128 NA
ATOM      4  C   UNL     1      -3.433   1.092  -0.923  0.00  0.00    +0.171 A 
ATOM      5  N   UNL     1      -2.409   1.001  -0.006  0.00  0.00    -0.270 N 
ENDROOT
BRANCH   5   6
ATOM      6  C   UNL     1      -1.179   1.673  -0.038  0.00  0.00    +0.052 A 
ATOM      7  C   UNL     1      -0.002   0.960  -0.219  0.00  0.00    +0.029 A 
ATOM      8  C   UNL     1       1.209   1.624  -0.256  0.00  0.00    +0.042 A 
ATOM      9  C   UNL     1       1.250   3.000  -0.107  0.00  0.00    +0.142 A 
ATOM     10  C   UNL     1       0.077   3.713   0.079  0.00  0.00    +0.078 A 
ATOM     11  C   UNL     1      -1.137   3.052   0.116  0.00  0.00    +0.049 A 
ATOM     12 CL   UNL     1       0.130   5.439   0.265  0.00  0.00    -0.081 Cl
ATOM     13  F   UNL     1       2.435   3.647  -0.143  0.00  0.00    -0.204 F 
ENDBRANCH   5   6
BRANCH   4  14
ATOM     14  C   UNL     1      -3.448   1.926  -2.143  0.00  0.00    +0.038 A 
ATOM     15  C   UNL     1      -2.349   1.927  -3.005  0.00  0.00    +0.014 A 
ATOM     16  C   UNL     1      -2.370   2.703  -4.145  0.00  0.00    +0.021 A 
ATOM     17  C   UNL     1      -3.474   3.489  -4.431  0.00  0.00    +0.042 A 
ATOM     18  C   UNL     1      -4.565   3.497  -3.578  0.00  0.00    +0.040 A 
ATOM     19  C   UNL     1      -4.558   2.721  -2.437  0.00  0.00    +0.053 A 
ATOM     20 CL   UNL     1      -5.927   2.732  -1.369  0.00  0.00    -0.083 Cl
ATOM     21 CL   UNL     1      -3.490   4.468  -5.864  0.00  0.00    -0.083 Cl
ENDBRANCH   4  14
BRANCH   1  22
ATOM     22  S   UNL     1      -1.962  -0.391   2.382  0.00  0.00    -0.076 S 
BRANCH  22  23
ATOM     23  C   UNL     1      -3.171  -1.525   3.108  0.00  0.00    +0.173 C 
BRANCH  23  29
ATOM     24  C   UNL     1      -3.040  -4.929   8.204  0.00  0.00    +0.129 C 
ATOM     25  N   UNL     1      -3.580  -4.368   6.963  0.00  0.00    -0.302 N 
ATOM     26  C   UNL     1      -2.849  -3.493   6.245  0.00  0.00    +0.306 C 
ATOM     27  O   UNL     1      -1.742  -3.168   6.627  0.00  0.00    -0.252 OA
ATOM     28  N   UNL     1      -3.346  -2.977   5.103  0.00  0.00    -0.240 N 
ATOM     29  C   UNL     1      -2.615  -2.101   4.385  0.00  0.00    +0.231 C 
ATOM     30  O   UNL     1      -1.511  -1.778   4.766  0.00  0.00    -0.274 OA
ATOM     31  H   UNL     1      -4.464  -4.627   6.659  0.00  0.00    +0.150 HD
ATOM     32  H   UNL     1      -4.230  -3.236   4.799  0.00  0.00    +0.159 HD
ENDBRANCH  23  29
ENDBRANCH  22  23
ENDBRANCH   1  22
TORSDOF 5
