REMARK  Name = ZINC06477329
REMARK  4 active torsions:
REMARK  status: ('A' for Active; 'I' for Inactive)
REMARK    1  A    between atoms: C_1  and  C_2
REMARK    2  A    between atoms: C_6  and  N_9
REMARK    3  A    between atoms: C_7  and  O_8
REMARK    4  A    between atoms: N_10  and  C_11
REMARK                            x       y       z     vdW  Elec       q    Type
REMARK                         _______ _______ _______ _____ _____    ______ ____
ROOT
ATOM      1  N   UNL     1       0.051  -2.802   2.358  0.00  0.00    -0.146 NA
ATOM      2  N   UNL     1       0.069  -4.092   2.342  0.00  0.00    -0.148 NA
ENDROOT
BRANCH   2   3
ATOM      3  C   UNL     1       0.084  -4.790   3.516  0.00  0.00    +0.106 A 
ATOM      4  C   UNL     1       0.075  -4.110   4.737  0.00  0.00    +0.052 A 
ATOM      5  C   UNL     1       0.090  -4.821   5.920  0.00  0.00    +0.061 A 
ATOM      6  C   UNL     1       0.114  -6.207   5.898  0.00  0.00    +0.061 A 
ATOM      7  C   UNL     1       0.124  -6.888   4.692  0.00  0.00    +0.043 A 
ATOM      8  C   UNL     1       0.102  -6.189   3.502  0.00  0.00    +0.070 A 
ATOM      9 CL   UNL     1       0.105  -7.043   1.991  0.00  0.00    -0.081 Cl
ATOM     10 CL   UNL     1       0.134  -7.094   7.390  0.00  0.00    -0.082 Cl
ATOM     11 CL   UNL     1       0.079  -3.978   7.437  0.00  0.00    -0.082 Cl
ENDBRANCH   2   3
BRANCH   1  17
ATOM     12  C   UNL     1      -0.018   1.503   0.010  0.00  0.00    +0.047 C 
ATOM     13  C   UNL     1       0.002  -0.004   0.002  0.00  0.00    -0.006 A 
ATOM     14  C   UNL     1       0.006  -0.687  -1.199  0.00  0.00    +0.022 A 
ATOM     15  C   UNL     1       0.025  -2.073  -1.218  0.00  0.00    +0.020 A 
ATOM     16  C   UNL     1       0.040  -2.784  -0.036  0.00  0.00    +0.048 A 
ATOM     17  C   UNL     1       0.037  -2.105   1.185  0.00  0.00    +0.129 A 
ATOM     18  C   UNL     1       0.023  -0.702   1.198  0.00  0.00    +0.147 A 
ATOM     19 BR   UNL     1       0.029  -2.992  -2.870  0.00  0.00    -0.050 Br
BRANCH  18  20
ATOM     20  O   UNL     1       0.025  -0.031   2.379  0.00  0.00    -0.504 OA
ATOM     21  H   UNL     1      -0.858   0.151   2.729  0.00  0.00    +0.292 HD
ENDBRANCH  18  20
ENDBRANCH   1  17
TORSDOF 3
