REMARK  Name = ZINC10795080
REMARK  9 active torsions:
REMARK  status: ('A' for Active; 'I' for Inactive)
REMARK    1  A    between atoms: C_4  and  C_7
REMARK    2  A    between atoms: C_7  and  C_9
REMARK    3  A    between atoms: C_13  and  N_14
REMARK    4  A    between atoms: C_15  and  C_17
REMARK    5  A    between atoms: C_17  and  O_18
REMARK    6  A    between atoms: O_18  and  C_19
REMARK    7  A    between atoms: C_19  and  C_21
REMARK    8  A    between atoms: C_24  and  S_27
REMARK    9  A    between atoms: S_27  and  N_30
REMARK                            x       y       z     vdW  Elec       q    Type
REMARK                         _______ _______ _______ _____ _____    ______ ____
ROOT
ATOM      1  N   UNL     1      -1.580   6.443  -2.776  0.00  0.00    -0.277 N 
ATOM      2  C   UNL     1      -1.541   7.696  -2.282  0.00  0.00    +0.255 C 
ATOM      3  O   UNL     1      -1.308   7.877  -1.106  0.00  0.00    -0.272 OA
ATOM      4  H   UNL     1      -1.767   6.298  -3.717  0.00  0.00    +0.155 HD
ENDROOT
BRANCH   1   9
ATOM      5  C   UNL     1      -1.249   4.016  -2.277  0.00  0.00    +0.054 A 
ATOM      6  C   UNL     1      -1.005   3.073  -1.199  0.00  0.00    -0.024 A 
ATOM      7  C   UNL     1      -0.905   3.619   0.032  0.00  0.00    -0.005 A 
ATOM      8  S   UNL     1      -1.128   5.357  -0.223  0.00  0.00    -0.077 S 
ATOM      9  C   UNL     1      -1.353   5.362  -1.941  0.00  0.00    +0.083 A 
ATOM     10  C   UNL     1      -0.659   2.899   1.322  0.00  0.00    +0.043 C 
ATOM     11  C   UNL     1      -0.911   1.401   1.094  0.00  0.00    +0.005 C 
ATOM     12  C   UNL     1      -0.178   0.966  -0.178  0.00  0.00    +0.005 C 
ATOM     13  C   UNL     1      -0.866   1.569  -1.404  0.00  0.00    +0.037 C 
BRANCH   5  14
ATOM     14  C   UNL     1      -1.380   3.567  -3.665  0.00  0.00    +0.196 C 
ATOM     15  O   UNL     1      -0.412   3.578  -4.403  0.00  0.00    -0.287 OA
BRANCH  14  19
ATOM     16  C   UNL     1      -5.141   2.227  -5.117  0.00  0.00    +0.000 A 
ATOM     17  C   UNL     1      -4.020   2.137  -5.923  0.00  0.00    +0.001 A 
ATOM     18  C   UNL     1      -2.796   2.570  -5.457  0.00  0.00    +0.012 A 
ATOM     19  C   UNL     1      -2.690   3.101  -4.171  0.00  0.00    +0.022 A 
ATOM     20  C   UNL     1      -3.824   3.184  -3.361  0.00  0.00    +0.012 A 
ATOM     21  C   UNL     1      -5.043   2.752  -3.841  0.00  0.00    +0.001 A 
ENDBRANCH  14  19
ENDBRANCH   5  14
ENDBRANCH   1   9
BRANCH   2  22
ATOM     22  C   UNL     1      -1.788   8.873  -3.191  0.00  0.00    +0.328 C 
BRANCH  22  23
ATOM     23  O   UNL     1      -1.693  10.103  -2.426  0.00  0.00    -0.452 OA
BRANCH  23  24
ATOM     24  C   UNL     1      -1.889  11.256  -3.095  0.00  0.00    +0.340 C 
ATOM     25  O   UNL     1      -2.134  11.233  -4.285  0.00  0.00    -0.245 OA
BRANCH  24  26
ATOM     26  C   UNL     1      -1.807  12.547  -2.382  0.00  0.00    +0.059 A 
ATOM     27  C   UNL     1      -1.532  12.576  -1.014  0.00  0.00    +0.017 A 
ATOM     28  C   UNL     1      -1.451  13.786  -0.355  0.00  0.00    +0.029 A 
ATOM     29  C   UNL     1      -1.654  14.968  -1.046  0.00  0.00    +0.105 A 
ATOM     30  C   UNL     1      -1.932  14.946  -2.401  0.00  0.00    +0.029 A 
ATOM     31  C   UNL     1      -2.010  13.743  -3.073  0.00  0.00    +0.017 A 
BRANCH  29  32
ATOM     32  S   UNL     1      -1.555  16.508  -0.196  0.00  0.00    +0.056 S 
ATOM     33  O   UNL     1      -0.745  16.288   0.951  0.00  0.00    -0.153 OA
ATOM     34  O   UNL     1      -1.243  17.492  -1.172  0.00  0.00    -0.153 OA
BRANCH  32  35
ATOM     35  N   UNL     1      -3.075  16.858   0.360  0.00  0.00    -0.204 NA
ATOM     36  H   UNL     1      -3.808  16.247   0.186  0.00  0.00    +0.144 HD
ATOM     37  H   UNL     1      -3.233  17.674   0.860  0.00  0.00    +0.144 HD
ENDBRANCH  32  35
ENDBRANCH  29  32
ENDBRANCH  24  26
ENDBRANCH  23  24
ENDBRANCH  22  23
ENDBRANCH   2  22
TORSDOF 9
