REMARK  Name = ZINC35711717
REMARK  15 active torsions:
REMARK  status: ('A' for Active; 'I' for Inactive)
REMARK    1  A    between atoms: C_1  and  C_2
REMARK    2  A    between atoms: C_2  and  C_3
REMARK    3  A    between atoms: C_3  and  N_4
REMARK    4  A    between atoms: C_5  and  C_37
REMARK    5  A    between atoms: C_6  and  C_30
REMARK    6  A    between atoms: C_7  and  C_12
REMARK    7  A    between atoms: C_15  and  N_18
REMARK    8  A    between atoms: N_21  and  C_22
REMARK    9  A    between atoms: C_25  and  C_29
REMARK   10  A    between atoms: C_27  and  C_28
REMARK   11  A    between atoms: C_30  and  O_32
REMARK   12  A    between atoms: O_32  and  C_33
REMARK   13  A    between atoms: C_33  and  C_34
REMARK   14  A    between atoms: C_34  and  C_35
REMARK   15  A    between atoms: C_34  and  C_36
REMARK                            x       y       z     vdW  Elec       q    Type
REMARK                         _______ _______ _______ _____ _____    ______ ____
ROOT
ATOM      1  C   UNL     1       0.084  -6.178  -0.801  0.00  0.00    -0.022 A 
ATOM      2  C   UNL     1       1.363  -5.662  -0.899  0.00  0.00    +0.007 A 
ATOM      3  C   UNL     1       2.384  -6.436  -1.411  0.00  0.00    +0.024 A 
ATOM      4  C   UNL     1       2.126  -7.735  -1.829  0.00  0.00    +0.035 A 
ATOM      5  C   UNL     1       0.841  -8.251  -1.730  0.00  0.00    +0.024 A 
ATOM      6  C   UNL     1      -0.175  -7.473  -1.211  0.00  0.00    +0.007 A 
ENDROOT
BRANCH   1  10
ATOM      7  N   UNL     1      -0.903  -2.618   0.288  0.00  0.00    -0.259 N 
ATOM      8  C   UNL     1      -1.320  -3.000  -0.955  0.00  0.00    +0.024 C 
ATOM      9  C   UNL     1      -1.409  -4.305  -1.290  0.00  0.00    +0.078 C 
ATOM     10  C   UNL     1      -1.029  -5.330  -0.240  0.00  0.00    +0.143 C 
ATOM     11  N   UNL     1      -0.592  -4.815   1.068  0.00  0.00    -0.288 N 
ATOM     12  C   UNL     1      -0.551  -3.480   1.250  0.00  0.00    +0.307 C 
ATOM     13  O   UNL     1      -0.187  -3.045   2.326  0.00  0.00    -0.252 OA
ATOM     14  C   UNL     1      -1.688  -1.948  -1.969  0.00  0.00    +0.061 C 
ATOM     15  H   UNL     1      -0.336  -5.422   1.780  0.00  0.00    +0.151 HD
BRANCH   9  16
ATOM     16  C   UNL     1      -1.842  -4.702  -2.577  0.00  0.00    +0.339 C 
ATOM     17  O   UNL     1      -2.017  -5.881  -2.823  0.00  0.00    -0.245 OA
BRANCH  16  18
ATOM     18  O   UNL     1      -2.061  -3.773  -3.531  0.00  0.00    -0.461 OA
BRANCH  18  19
ATOM     19  C   UNL     1      -2.598  -4.234  -4.773  0.00  0.00    +0.235 C 
BRANCH  19  20
ATOM     20  C   UNL     1      -2.661  -3.070  -5.764  0.00  0.00    +0.020 C 
ATOM     21  C   UNL     1      -3.138  -3.583  -7.124  0.00  0.00    +0.010 C 
ATOM     22  C   UNL     1      -3.638  -2.012  -5.247  0.00  0.00    +0.010 C 
ENDBRANCH  19  20
ENDBRANCH  18  19
ENDBRANCH  16  18
ENDBRANCH   9  16
BRANCH   7  23
ATOM     23  C   UNL     1      -0.830  -1.185   0.583  0.00  0.00    +0.114 C 
BRANCH  23  25
ATOM     24  C   UNL     1      -2.138   0.817   1.308  0.00  0.00    +0.005 C 
ATOM     25  C   UNL     1      -2.213  -0.680   1.000  0.00  0.00    +0.016 C 
ENDBRANCH  23  25
ENDBRANCH   7  23
ENDBRANCH   1  10
BRANCH   4  26
ATOM     26  N   UNL     1       3.159  -8.523  -2.350  0.00  0.00    -0.269 N 
ATOM     27  C   UNL     1       4.414  -8.387  -1.877  0.00  0.00    +0.308 C 
ATOM     28  O   UNL     1       4.634  -7.642  -0.942  0.00  0.00    -0.252 OA
ATOM     29  N   UNL     1       5.425  -9.077  -2.441  0.00  0.00    -0.269 N 
ATOM     30  H   UNL     1       2.973  -9.166  -3.051  0.00  0.00    +0.156 HD
ATOM     31  H   UNL     1       5.261  -9.627  -3.223  0.00  0.00    +0.156 HD
BRANCH  29  32
ATOM     32  C   UNL     1       6.713  -9.000  -1.898  0.00  0.00    +0.038 A 
ATOM     33  C   UNL     1       7.106  -7.868  -1.196  0.00  0.00    +0.024 A 
ATOM     34  C   UNL     1       8.377  -7.796  -0.661  0.00  0.00    +0.005 A 
ATOM     35  C   UNL     1       9.259  -8.848  -0.825  0.00  0.00    -0.050 A 
ATOM     36  C   UNL     1       8.871  -9.976  -1.524  0.00  0.00    +0.008 A 
ATOM     37  C   UNL     1       7.599 -10.058  -2.056  0.00  0.00    -0.029 A 
ATOM     38  C   UNL     1       7.175 -11.290  -2.812  0.00  0.00    +0.045 C 
ATOM     39  C   UNL     1      10.645  -8.766  -0.240  0.00  0.00    +0.044 C 
ENDBRANCH  29  32
ENDBRANCH   4  26
TORSDOF 9
