REMARK  Name = ZINC20462527
REMARK  4 active torsions:
REMARK  status: ('A' for Active; 'I' for Inactive)
REMARK    1  A    between atoms: C_1  and  C_2
REMARK    2  A    between atoms: C_5  and  N_9
REMARK    3  A    between atoms: C_28  and  C_35
REMARK    4  A    between atoms: C_29  and  C_34
REMARK                            x       y       z     vdW  Elec       q    Type
REMARK                         _______ _______ _______ _____ _____    ______ ____
ROOT
ATOM      1  N   UNL     1       0.058  -4.173  -0.023  0.00  0.00    -0.209 N 
ATOM      2  C   UNL     1      -1.069  -4.944  -0.028  0.00  0.00    +0.232 C 
ATOM      3  O   UNL     1      -2.196  -4.591  -0.299  0.00  0.00    -0.274 OA
ATOM      4  C   UNL     1      -0.622  -6.324   0.374  0.00  0.00    +0.107 C 
ATOM      5  C   UNL     1      -1.179  -7.538  -0.381  0.00  0.00    +0.071 C 
ATOM      6  C   UNL     1      -2.287  -8.203   0.450  0.00  0.00    +0.021 C 
ATOM      7  C   UNL     1      -1.708  -9.562   0.902  0.00  0.00    +0.017 C 
ATOM      8  C   UNL     1      -0.179  -9.330   0.822  0.00  0.00    +0.086 C 
ATOM      9  N   UNL     1      -0.007  -8.483  -0.391  0.00  0.00    -0.281 NA
ATOM     10  C   UNL     1       1.233  -7.659  -0.309  0.00  0.00    +0.138 C 
ATOM     11  C   UNL     1       0.779  -6.257  -0.357  0.00  0.00    +0.123 C 
ATOM     12  C   UNL     1       1.211  -4.918  -0.033  0.00  0.00    +0.233 C 
ATOM     13  O   UNL     1       2.341  -4.537   0.184  0.00  0.00    -0.274 OA
ATOM     14  C   UNL     1       2.023  -7.978   0.931  0.00  0.00    +0.004 A 
ATOM     15  C   UNL     1       1.800  -7.788   2.278  0.00  0.00    +0.008 A 
ATOM     16  C   UNL     1       2.736  -8.203   3.207  0.00  0.00    +0.004 A 
ATOM     17  C   UNL     1       3.910  -8.799   2.783  0.00  0.00    -0.046 A 
ATOM     18  C   UNL     1       4.152  -8.971   1.436  0.00  0.00    -0.026 A 
ATOM     19  C   UNL     1       3.214  -8.552   0.494  0.00  0.00    +0.042 A 
ATOM     20  N   UNL     1       3.252  -8.584  -0.900  0.00  0.00    -0.283 N 
ATOM     21  C   UNL     1       2.143  -8.060  -1.450  0.00  0.00    +0.243 C 
ATOM     22  O   UNL     1       1.915  -7.933  -2.635  0.00  0.00    -0.273 OA
ATOM     23  C   UNL     1       5.436  -9.614   0.980  0.00  0.00    +0.046 C 
ATOM     24  C   UNL     1       4.926  -9.262   3.794  0.00  0.00    +0.044 C 
ATOM     25  H   UNL     1       3.993  -8.942  -1.414  0.00  0.00    +0.155 HD
ENDROOT
BRANCH   1  30
ATOM     26  C   UNL     1      -0.018   1.503   0.010  0.00  0.00    +0.044 C 
ATOM     27  C   UNL     1       0.002  -0.004   0.002  0.00  0.00    -0.049 A 
ATOM     28  C   UNL     1       0.006  -0.688  -1.200  0.00  0.00    +0.005 A 
ATOM     29  C   UNL     1       0.024  -2.068  -1.212  0.00  0.00    +0.025 A 
ATOM     30  C   UNL     1       0.040  -2.771  -0.014  0.00  0.00    +0.058 A 
ATOM     31  C   UNL     1       0.036  -2.082   1.192  0.00  0.00    +0.040 A 
ATOM     32  C   UNL     1       0.023  -0.700   1.196  0.00  0.00    +0.020 A 
ATOM     33 BR   UNL     1       0.056  -3.034   2.825  0.00  0.00    -0.048 Br
ENDBRANCH   1  30
TORSDOF 1
