REMARK  Name = ZINC18343177
REMARK  10 active torsions:
REMARK  status: ('A' for Active; 'I' for Inactive)
REMARK    1  A    between atoms: C_1  and  C_2
REMARK    2  A    between atoms: C_2  and  C_3
REMARK    3  A    between atoms: C_3  and  C_34
REMARK    4  A    between atoms: N_6  and  N_10
REMARK    5  A    between atoms: C_11  and  C_13
REMARK    6  A    between atoms: C_13  and  S_14
REMARK    7  A    between atoms: S_14  and  C_15
REMARK    8  A    between atoms: N_20  and  C_21
REMARK    9  A    between atoms: C_24  and  O_27
REMARK   10  A    between atoms: O_27  and  C_28
REMARK                            x       y       z     vdW  Elec       q    Type
REMARK                         _______ _______ _______ _____ _____    ______ ____
ROOT
ATOM      1  C   UNL     1     -10.047   0.763   6.890  0.00  0.00    +0.160 A 
ATOM      2  N   UNL     1     -10.448  -0.228   6.115  0.00  0.00    -0.133 NA
ATOM      3  N   UNL     1     -10.749  -1.450   6.670  0.00  0.00    -0.125 NA
ATOM      4  C   UNL     1     -10.646  -1.623   7.973  0.00  0.00    +0.187 A 
ATOM      5  S   UNL     1     -10.090  -0.010   8.500  0.00  0.00    -0.024 S 
ATOM      6  N   UNL     1     -10.902  -2.759   8.733  0.00  0.00    -0.292 N 
ATOM      7  H   UNL     1     -10.706  -2.760   9.683  0.00  0.00    +0.154 HD
ENDROOT
BRANCH   6   8
ATOM      8  C   UNL     1     -11.442  -3.899   8.129  0.00  0.00    +0.033 A 
ATOM      9  C   UNL     1     -12.190  -4.796   8.880  0.00  0.00    +0.027 A 
ATOM     10  C   UNL     1     -12.727  -5.919   8.282  0.00  0.00    +0.048 A 
ATOM     11  C   UNL     1     -12.511  -6.156   6.932  0.00  0.00    +0.129 A 
ATOM     12  C   UNL     1     -11.760  -5.263   6.181  0.00  0.00    +0.048 A 
ATOM     13  C   UNL     1     -11.227  -4.137   6.777  0.00  0.00    +0.027 A 
BRANCH  11  14
ATOM     14  O   UNL     1     -13.035  -7.264   6.345  0.00  0.00    -0.456 OA
BRANCH  14  15
ATOM     15  C   UNL     1     -14.168  -7.121   5.609  0.00  0.00    +0.128 A 
ATOM     16  C   UNL     1     -14.713  -5.860   5.410  0.00  0.00    +0.046 A 
ATOM     17  C   UNL     1     -15.863  -5.717   4.658  0.00  0.00    +0.004 A 
ATOM     18  C   UNL     1     -16.477  -6.829   4.112  0.00  0.00    +0.000 A 
ATOM     19  C   UNL     1     -15.939  -8.087   4.314  0.00  0.00    +0.004 A 
ATOM     20  C   UNL     1     -14.787  -8.236   5.060  0.00  0.00    +0.046 A 
ENDBRANCH  14  15
ENDBRANCH  11  14
ENDBRANCH   6   8
BRANCH   1  21
ATOM     21  S   UNL     1      -9.596   2.409   6.453  0.00  0.00    -0.088 S 
BRANCH  21  22
ATOM     22  C   UNL     1      -9.797   2.456   4.651  0.00  0.00    +0.173 C 
BRANCH  22  24
ATOM     23  N   UNL     1      -9.514   4.098   2.822  0.00  0.00    -0.223 N 
ATOM     24  C   UNL     1      -9.439   3.828   4.141  0.00  0.00    +0.240 C 
ATOM     25  O   UNL     1      -9.084   4.690   4.917  0.00  0.00    -0.273 OA
ATOM     26  H   UNL     1      -9.799   3.409   2.202  0.00  0.00    +0.174 HD
BRANCH  23  30
ATOM     27  C   UNL     1      -9.275   7.502   1.523  0.00  0.00    +0.111 C 
ATOM     28  C   UNL     1     -10.083   6.290   1.945  0.00  0.00    +0.263 C 
ATOM     29  O   UNL     1     -11.290   6.172   1.925  0.00  0.00    -0.271 OA
ATOM     30  N   UNL     1      -9.181   5.374   2.348  0.00  0.00    -0.137 N 
ATOM     31  C   UNL     1      -7.929   5.832   2.241  0.00  0.00    +0.326 C 
ATOM     32  O   UNL     1      -6.945   5.187   2.544  0.00  0.00    -0.251 OA
ATOM     33  N   UNL     1      -7.881   7.088   1.760  0.00  0.00    -0.284 N 
ATOM     34  C   UNL     1      -9.501   7.809   0.041  0.00  0.00    +0.041 C 
ATOM     35  H   UNL     1      -7.085   7.617   1.600  0.00  0.00    +0.151 HD
BRANCH  27  37
ATOM     36  C   UNL     1      -8.760   9.905   1.971  0.00  0.00    +0.006 C 
ATOM     37  C   UNL     1      -9.630   8.716   2.384  0.00  0.00    +0.032 C 
ENDBRANCH  27  37
ENDBRANCH  23  30
ENDBRANCH  22  24
ENDBRANCH  21  22
ENDBRANCH   1  21
TORSDOF 8
