REMARK  Name = ZINC22280737
REMARK  6 active torsions:
REMARK  status: ('A' for Active; 'I' for Inactive)
REMARK    1  A    between atoms: C_1  and  C_2
REMARK    2  A    between atoms: N_4  and  C_5
REMARK    3  A    between atoms: C_5  and  C_6
REMARK    4  A    between atoms: C_9  and  C_11
REMARK    5  A    between atoms: C_17  and  C_19
REMARK    6  A    between atoms: C_24  and  C_25
REMARK                            x       y       z     vdW  Elec       q    Type
REMARK                         _______ _______ _______ _____ _____    ______ ____
ROOT
ATOM      1  C   UNL     1       5.132   6.477  -0.013  0.00  0.00    +0.115 A 
ATOM      2  C   UNL     1       4.087   7.362   0.001  0.00  0.00    +0.080 A 
ATOM      3  S   UNL     1       2.698   6.236   0.001  0.00  0.00    -0.060 S 
ATOM      4  C   UNL     1       3.638   4.716  -0.008  0.00  0.00    +0.165 A 
ATOM      5  N   UNL     1       4.877   5.171  -0.018  0.00  0.00    -0.221 NA
ATOM      6  N   UNL     1       3.184   3.404  -0.010  0.00  0.00    -0.261 N 
ATOM      7  C   UNL     1       1.861   3.148   0.001  0.00  0.00    +0.253 C 
ATOM      8  O   UNL     1       1.064   4.067   0.013  0.00  0.00    -0.270 OA
ATOM      9  H   UNL     1       3.905   2.573  -0.021  0.00  0.00    +0.157 HD
ENDROOT
BRANCH   7  10
ATOM     10  C   UNL     1       1.381   1.756  -0.002  0.00  0.00    +0.082 A 
ATOM     11  C   UNL     1       2.155   0.614  -0.015  0.00  0.00    +0.118 A 
ATOM     12  N   UNL     1       1.329  -0.443  -0.013  0.00  0.00    -0.283 N 
ATOM     13  H   UNL     1       1.741  -1.463  -0.022  0.00  0.00    +0.188 HD
ATOM     14  N   UNL     1       0.002  -0.004   0.002  0.00  0.00    -0.173 NA
ATOM     15  C   UNL     1      -0.016   1.310   0.009  0.00  0.00    +0.105 A 
BRANCH  15  16
ATOM     16  C   UNL     1      -1.219   2.175   0.020  0.00  0.00    +0.003 A 
ATOM     17  C   UNL     1      -1.208   3.379   0.722  0.00  0.00    +0.011 A 
ATOM     18  C   UNL     1      -2.329   4.184   0.725  0.00  0.00    +0.020 A 
ATOM     19  C   UNL     1      -3.467   3.792   0.040  0.00  0.00    +0.041 A 
ATOM     20  C   UNL     1      -3.485   2.595  -0.655  0.00  0.00    +0.020 A 
ATOM     21  C   UNL     1      -2.368   1.786  -0.668  0.00  0.00    +0.011 A 
ATOM     22 CL   UNL     1      -4.877   4.806   0.053  0.00  0.00    -0.084 Cl
ENDBRANCH  15  16
ENDBRANCH   7  10
BRANCH   1  26
ATOM     23  C   UNL     1       8.253   8.325  -0.032  0.00  0.00    +0.123 A 
ATOM     24  C   UNL     1       8.746   7.072  -0.044  0.00  0.00    +0.047 A 
ATOM     25  C   UNL     1       7.644   6.193  -0.033  0.00  0.00    +0.052 A 
ATOM     26  C   UNL     1       6.526   6.967  -0.024  0.00  0.00    +0.154 A 
ATOM     27  O   UNL     1       6.910   8.258  -0.020  0.00  0.00    -0.457 OA
BRANCH  23  28
ATOM     28  C   UNL     1       9.069   9.591  -0.033  0.00  0.00    +0.178 C 
BRANCH  28  32
ATOM     29  C   UNL     1      10.295  11.555  -3.082  0.00  0.00    +0.109 C 
ATOM     30  C   UNL     1      10.036  11.124  -1.661  0.00  0.00    +0.210 C 
ATOM     31  O   UNL     1      10.473  11.782  -0.740  0.00  0.00    -0.276 OA
ATOM     32  N   UNL     1       9.321  10.009  -1.414  0.00  0.00    -0.308 N 
ATOM     33  H   UNL     1       8.925   9.414  -2.250  0.00  0.00    +0.149 HD
ENDBRANCH  28  32
ENDBRANCH  23  28
ENDBRANCH   1  26
TORSDOF 5
