REMARK  Name = ZINC14879084
REMARK  10 active torsions:
REMARK  status: ('A' for Active; 'I' for Inactive)
REMARK    1  A    between atoms: C_1  and  C_2
REMARK    2  A    between atoms: C_3  and  C_8
REMARK    3  A    between atoms: N_5  and  C_7
REMARK    4  A    between atoms: C_8  and  N_61
REMARK    5  A    between atoms: C_9  and  C_10
REMARK    6  A    between atoms: C_9  and  N_61
REMARK    7  A    between atoms: C_15  and  S_33
REMARK    8  A    between atoms: N_18  and  C_21
REMARK    9  A    between atoms: C_21  and  C_22
REMARK   10  A    between atoms: S_33  and  C_34
REMARK                            x       y       z     vdW  Elec       q    Type
REMARK                         _______ _______ _______ _____ _____    ______ ____
ROOT
ATOM      1  C   UNL     1       1.203   1.926   0.001  0.00  0.00    +0.001 A 
ATOM      2  C   UNL     1       1.204   3.282   0.008  0.00  0.00    +0.017 A 
ATOM      3  C   UNL     1      -0.033   3.975   0.024  0.00  0.00    -0.001 A 
ATOM      4  C   UNL     1      -0.070   5.377   0.031  0.00  0.00    +0.011 A 
ATOM      5  C   UNL     1      -1.269   6.024   0.045  0.00  0.00    +0.015 A 
ATOM      6  C   UNL     1      -2.465   5.302   0.053  0.00  0.00    +0.010 A 
ATOM      7  C   UNL     1      -2.449   3.915   0.046  0.00  0.00    +0.041 A 
ATOM      8  C   UNL     1      -1.235   3.241   0.031  0.00  0.00    +0.053 A 
ATOM      9  N   UNL     1      -1.195   1.862   0.018  0.00  0.00    -0.304 N 
ATOM     10  C   UNL     1      -0.015   1.215   0.009  0.00  0.00    +0.253 A 
ATOM     11  O   UNL     1       0.002  -0.004   0.002  0.00  0.00    -0.267 OA
ENDROOT
BRANCH   6  12
ATOM     12  S   UNL     1      -4.005   6.159   0.072  0.00  0.00    -0.129 S 
ATOM     13  C   UNL     1      -3.532   7.910   0.076  0.00  0.00    +0.090 C 
ENDBRANCH   6  12
BRANCH   1  14
ATOM     14  C   UNL     1       2.509   1.175  -0.015  0.00  0.00    -0.041 C 
BRANCH  14  15
ATOM     15  N   UNL     1       2.881   0.821   1.368  0.00  0.00    +0.385 N 
ATOM     16  H   UNL     1       2.979   1.680   1.922  0.00  0.00    -0.085 HD
ATOM     17  H   UNL     1       2.145   0.233   1.777  0.00  0.00    -0.085 HD
BRANCH  15  18
ATOM     18  C   UNL     1       4.158   0.084   1.383  0.00  0.00    -0.043 C 
BRANCH  18  21
ATOM     19  C   UNL     1       2.967  -2.324   3.064  0.00  0.00    +0.068 C 
ATOM     20  C   UNL     1       3.987  -1.325   3.549  0.00  0.00    +0.061 A 
ATOM     21  C   UNL     1       4.512  -0.263   2.806  0.00  0.00    -0.024 A 
ATOM     22  C   UNL     1       5.397   0.395   3.590  0.00  0.00    +0.110 A 
ATOM     23  N   UNL     1       5.425  -0.224   4.788  0.00  0.00    -0.274 N 
ATOM     24  N   UNL     1       4.534  -1.303   4.737  0.00  0.00    -0.177 NA
ATOM     25  C   UNL     1       6.247   0.162   5.938  0.00  0.00    +0.172 C 
ENDBRANCH  18  21
ENDBRANCH  15  18
ENDBRANCH  14  15
ENDBRANCH   1  14
BRANCH   9  26
ATOM     26  C   UNL     1      -2.444   1.097   0.020  0.00  0.00    +0.173 C 
BRANCH  26  27
ATOM     27  C   UNL     1      -2.872   0.823   1.463  0.00  0.00    +0.230 C 
ATOM     28  C   UNL     1      -4.111  -0.084   1.472  0.00  0.00    +0.275 C 
ATOM     29  O   UNL     1      -4.492  -0.308   2.834  0.00  0.00    -0.485 OA
ATOM     30  C   UNL     1      -4.531   0.783   3.646  0.00  0.00    +0.162 A 
ATOM     31  C   UNL     1      -5.220   0.713   4.848  0.00  0.00    +0.049 A 
ATOM     32  C   UNL     1      -5.265   1.811   5.686  0.00  0.00    +0.004 A 
ATOM     33  C   UNL     1      -4.625   2.983   5.327  0.00  0.00    +0.004 A 
ATOM     34  C   UNL     1      -3.938   3.060   4.131  0.00  0.00    +0.049 A 
ATOM     35  C   UNL     1      -3.889   1.962   3.286  0.00  0.00    +0.163 A 
ATOM     36  O   UNL     1      -3.214   2.054   2.108  0.00  0.00    -0.480 OA
ENDBRANCH  26  27
ENDBRANCH   9  26
TORSDOF 7
