REMARK  Name = ZINC13545175
REMARK  10 active torsions:
REMARK  status: ('A' for Active; 'I' for Inactive)
REMARK    1  A    between atoms: C_1  and  C_2
REMARK    2  A    between atoms: C_2  and  C_4
REMARK    3  A    between atoms: C_2  and  N_10
REMARK    4  A    between atoms: N_12  and  N_13
REMARK    5  A    between atoms: N_13  and  S_14
REMARK    6  A    between atoms: S_14  and  C_17
REMARK    7  A    between atoms: C_20  and  C_23
REMARK    8  A    between atoms: C_23  and  C_24
REMARK    9  A    between atoms: C_23  and  C_25
REMARK   10  A    between atoms: C_23  and  C_26
REMARK                            x       y       z     vdW  Elec       q    Type
REMARK                         _______ _______ _______ _____ _____    ______ ____
ROOT
ATOM      1  N   UNL     1       4.085  -1.144  -2.351  0.00  0.00    -0.108 NA
ATOM      2  H   UNL     1       4.637  -0.379  -2.125  0.00  0.00    +0.172 HD
ENDROOT
BRANCH   1   5
ATOM      3  N   UNL     1       0.688  -0.476  -1.203  0.00  0.00    -0.360 N 
ATOM      4  C   UNL     1       2.049  -0.589  -1.215  0.00  0.00    +0.154 C 
ATOM      5  N   UNL     1       2.689  -1.029  -2.339  0.00  0.00    -0.241 N 
ATOM      6  S   UNL     1       2.927  -0.189   0.136  0.00  0.00    -0.015 SA
ATOM      7  H   UNL     1       2.176  -1.262  -3.129  0.00  0.00    +0.170 HD
ATOM      8  H   UNL     1       0.175  -0.710  -1.993  0.00  0.00    +0.162 HD
BRANCH   3  10
ATOM      9  C   UNL     1      -0.019   1.526   0.010  0.00  0.00    +0.035 C 
ATOM     10  C   UNL     1       0.002  -0.004   0.002  0.00  0.00    +0.108 C 
BRANCH  10  11
ATOM     11  C   UNL     1      -1.412  -0.526   0.013  0.00  0.00    -0.025 A 
ATOM     12  C   UNL     1      -2.141  -0.569  -1.161  0.00  0.00    +0.005 A 
ATOM     13  C   UNL     1      -3.438  -1.047  -1.151  0.00  0.00    +0.000 A 
ATOM     14  C   UNL     1      -4.005  -1.483   0.032  0.00  0.00    +0.000 A 
ATOM     15  C   UNL     1      -3.275  -1.441   1.205  0.00  0.00    +0.000 A 
ATOM     16  C   UNL     1      -1.977  -0.966   1.195  0.00  0.00    +0.005 A 
ENDBRANCH  10  11
ENDBRANCH   3  10
ENDBRANCH   1   5
BRANCH   1  17
ATOM     17  S   UNL     1       4.794  -2.586  -2.752  0.00  0.00    +0.074 S 
ATOM     18  O   UNL     1       6.193  -2.347  -2.815  0.00  0.00    -0.152 OA
ATOM     19  O   UNL     1       4.226  -3.569  -1.897  0.00  0.00    -0.152 OA
BRANCH  17  20
ATOM     20  C   UNL     1       4.277  -2.984  -4.389  0.00  0.00    +0.107 A 
ATOM     21  C   UNL     1       3.126  -3.722  -4.590  0.00  0.00    +0.029 A 
ATOM     22  C   UNL     1       2.720  -4.034  -5.874  0.00  0.00    +0.006 A 
ATOM     23  C   UNL     1       3.466  -3.607  -6.957  0.00  0.00    -0.042 A 
ATOM     24  C   UNL     1       4.617  -2.868  -6.756  0.00  0.00    +0.006 A 
ATOM     25  C   UNL     1       5.020  -2.552  -5.472  0.00  0.00    +0.029 A 
BRANCH  23  26
ATOM     26  C   UNL     1       3.024  -3.948  -8.357  0.00  0.00    -0.013 C 
ATOM     27  C   UNL     1       1.634  -3.361  -8.611  0.00  0.00    +0.015 C 
ATOM     28  C   UNL     1       4.017  -3.361  -9.362  0.00  0.00    +0.015 C 
ATOM     29  C   UNL     1       2.973  -5.468  -8.520  0.00  0.00    +0.015 C 
ENDBRANCH  23  26
ENDBRANCH  17  20
ENDBRANCH   1  17
TORSDOF 6
