REMARK  Name = ZINC12790424
REMARK  6 active torsions:
REMARK  status: ('A' for Active; 'I' for Inactive)
REMARK    1  A    between atoms: C_4  and  C_7
REMARK    2  A    between atoms: C_7  and  C_8
REMARK    3  A    between atoms: C_8  and  C_29
REMARK    4  A    between atoms: N_11  and  C_15
REMARK    5  A    between atoms: C_15  and  C_16
REMARK    6  A    between atoms: C_16  and  C_18
REMARK                            x       y       z     vdW  Elec       q    Type
REMARK                         _______ _______ _______ _____ _____    ______ ____
ROOT
ATOM      1  C   UNL     1       2.922   0.806  -1.464  0.00  0.00    +0.142 C 
ATOM      2  C   UNL     1       1.831   0.086  -2.232  0.00  0.00    +0.252 C 
ATOM      3  O   UNL     1       1.376  -1.014  -2.001  0.00  0.00    -0.272 OA
ATOM      4  N   UNL     1       1.474   0.922  -3.227  0.00  0.00    -0.216 N 
ATOM      5  C   UNL     1       2.179   2.058  -3.194  0.00  0.00    +0.310 C 
ATOM      6  O   UNL     1       2.035   2.966  -3.989  0.00  0.00    -0.252 OA
ATOM      7  N   UNL     1       3.065   2.084  -2.182  0.00  0.00    -0.281 N 
ATOM      8  H   UNL     1       3.679   2.804  -1.967  0.00  0.00    +0.152 HD
ENDROOT
BRANCH   1   9
ATOM      9  C   UNL     1       4.210   0.025  -1.508  0.00  0.00    -0.015 A 
ATOM     10  C   UNL     1       4.513  -0.867  -0.496  0.00  0.00    +0.006 A 
ATOM     11  C   UNL     1       5.692  -1.586  -0.539  0.00  0.00    +0.000 A 
ATOM     12  C   UNL     1       6.574  -1.406  -1.589  0.00  0.00    +0.000 A 
ATOM     13  C   UNL     1       6.273  -0.511  -2.598  0.00  0.00    +0.000 A 
ATOM     14  C   UNL     1       5.091   0.205  -2.557  0.00  0.00    +0.006 A 
ENDBRANCH   1   9
BRANCH   1  15
ATOM     15  C   UNL     1       2.490   1.048  -0.016  0.00  0.00    +0.075 C 
BRANCH  15  19
ATOM     16  C   UNL     1      -1.238   3.133   0.029  0.00  0.00    +0.000 A 
ATOM     17  C   UNL     1      -1.219   1.751   0.017  0.00  0.00    +0.000 A 
ATOM     18  C   UNL     1      -0.013   1.076   0.008  0.00  0.00    +0.004 A 
ATOM     19  C   UNL     1       1.175   1.783   0.000  0.00  0.00    -0.045 A 
ATOM     20  C   UNL     1       1.156   3.165   0.008  0.00  0.00    +0.004 A 
ATOM     21  C   UNL     1      -0.050   3.840   0.022  0.00  0.00    +0.000 A 
ENDBRANCH  15  19
ENDBRANCH   1  15
BRANCH   4  22
ATOM     22  C   UNL     1       0.441   0.623  -4.221  0.00  0.00    +0.197 C 
BRANCH  22  23
ATOM     23  C   UNL     1       1.068  -0.064  -5.407  0.00  0.00    +0.181 C 
ATOM     24  O   UNL     1       2.261  -0.282  -5.419  0.00  0.00    -0.290 OA
BRANCH  23  25
ATOM     25  C   UNL     1       0.235  -0.469  -6.546  0.00  0.00    +0.019 A 
ATOM     26  C   UNL     1      -1.143  -0.222  -6.532  0.00  0.00    +0.013 A 
ATOM     27  C   UNL     1      -1.915  -0.594  -7.595  0.00  0.00    +0.024 A 
ATOM     28  C   UNL     1      -1.339  -1.229  -8.692  0.00  0.00    +0.037 A 
ATOM     29  C   UNL     1       0.029  -1.483  -8.713  0.00  0.00    -0.025 A 
ATOM     30  C   UNL     1       0.817  -1.107  -7.649  0.00  0.00    +0.017 A 
ATOM     31  C   UNL     1       0.646  -2.171  -9.903  0.00  0.00    +0.046 C 
ATOM     32  C   UNL     1      -0.348  -3.180 -10.480  0.00  0.00    +0.101 C 
ATOM     33  C   UNL     1      -1.695  -2.531 -10.650  0.00  0.00    +0.218 C 
ATOM     34  O   UNL     1      -2.394  -2.841 -11.591  0.00  0.00    -0.275 OA
ATOM     35  N   UNL     1      -2.132  -1.612  -9.771  0.00  0.00    -0.285 N 
ATOM     36  H   UNL     1      -3.008  -1.211  -9.890  0.00  0.00    +0.155 HD
ENDBRANCH  23  25
ENDBRANCH  22  23
ENDBRANCH   4  22
TORSDOF 6
