REMARK  Name = ZINC12642554
REMARK  9 active torsions:
REMARK  status: ('A' for Active; 'I' for Inactive)
REMARK    1  A    between atoms: C_1  and  C_2
REMARK    2  A    between atoms: C_8  and  C_10
REMARK    3  A    between atoms: N_21  and  C_31
REMARK    4  A    between atoms: C_22  and  C_24
REMARK    5  A    between atoms: N_26  and  C_27
REMARK    6  A    between atoms: C_27  and  C_28
REMARK    7  A    between atoms: C_27  and  C_29
REMARK    8  A    between atoms: C_27  and  C_30
REMARK    9  A    between atoms: C_36  and  C_37
REMARK                            x       y       z     vdW  Elec       q    Type
REMARK                         _______ _______ _______ _____ _____    ______ ____
ROOT
ATOM      1  C   UNL     1      -3.327  -0.477  -0.256  0.00  0.00    +0.123 C 
ATOM      2  C   UNL     1      -4.140   0.132   0.932  0.00  0.00    +0.155 C 
ATOM      3  C   UNL     1      -5.624  -0.009   0.574  0.00  0.00    +0.004 C 
ATOM      4  C   UNL     1      -5.943  -1.303   0.695  0.00  0.00    +0.009 C 
ATOM      5  C   UNL     1      -4.660  -1.947   1.082  0.00  0.00    +0.127 C 
ATOM      6  C   UNL     1      -3.740  -1.959  -0.195  0.00  0.00    +0.128 C 
ATOM      7  C   UNL     1      -2.655  -2.901   0.244  0.00  0.00    +0.228 C 
ATOM      8  O   UNL     1      -1.520  -2.912  -0.183  0.00  0.00    -0.275 OA
ATOM      9  N   UNL     1      -3.146  -3.738   1.194  0.00  0.00    -0.256 N 
ATOM     10  C   UNL     1      -4.528  -3.356   1.570  0.00  0.00    +0.203 C 
ATOM     11  O   UNL     1      -4.003  -0.957   1.917  0.00  0.00    -0.358 OA
ENDROOT
BRANCH   1  19
ATOM     12  C   UNL     1       3.501   0.236   0.989  0.00  0.00    +0.089 C 
ATOM     13  C   UNL     1       2.339   0.085   0.042  0.00  0.00    +0.136 A 
ATOM     14  C   UNL     1       1.033  -0.021   0.376  0.00  0.00    +0.091 A 
ATOM     15  C   UNL     1       0.369  -0.147  -0.873  0.00  0.00    +0.168 A 
ATOM     16  N   UNL     1       1.301  -0.097  -1.788  0.00  0.00    -0.063 NA
ATOM     17  O   UNL     1       2.398   0.028  -1.296  0.00  0.00    -0.358 OA
ATOM     18  N   UNL     1      -1.003  -0.291  -1.082  0.00  0.00    -0.267 N 
ATOM     19  C   UNL     1      -1.845  -0.322  -0.030  0.00  0.00    +0.225 C 
ATOM     20  O   UNL     1      -1.410  -0.224   1.098  0.00  0.00    -0.275 OA
ATOM     21  H   UNL     1      -1.351  -0.369  -1.984  0.00  0.00    +0.156 HD
ENDBRANCH   1  19
BRANCH   9  22
ATOM     22  C   UNL     1      -2.442  -4.816   1.742  0.00  0.00    +0.042 A 
ATOM     23  C   UNL     1      -2.432  -6.044   1.092  0.00  0.00    +0.024 A 
ATOM     24  C   UNL     1      -1.733  -7.105   1.632  0.00  0.00    +0.003 A 
ATOM     25  C   UNL     1      -1.051  -6.950   2.825  0.00  0.00    +0.020 A 
ATOM     26  C   UNL     1      -1.063  -5.730   3.479  0.00  0.00    +0.046 A 
ATOM     27  C   UNL     1      -1.757  -4.663   2.940  0.00  0.00    -0.011 A 
ATOM     28  C   UNL     1      -1.771  -3.335   3.652  0.00  0.00    +0.047 C 
ATOM     29 CL   UNL     1      -0.206  -5.540   4.977  0.00  0.00    -0.083 Cl
ENDBRANCH   9  22
BRANCH  10  30
ATOM     30  C   UNL     1      -5.529  -4.249   0.884  0.00  0.00    +0.238 C 
ATOM     31  O   UNL     1      -5.249  -4.774  -0.173  0.00  0.00    -0.274 OA
ATOM     32  N   UNL     1      -6.735  -4.466   1.445  0.00  0.00    -0.309 N 
ATOM     33  H   UNL     1      -6.959  -4.046   2.291  0.00  0.00    +0.149 HD
BRANCH  32  34
ATOM     34  C   UNL     1      -7.708  -5.334   0.778  0.00  0.00    +0.026 C 
ATOM     35  C   UNL     1      -7.116  -6.736   0.621  0.00  0.00    +0.031 C 
ATOM     36  C   UNL     1      -8.984  -5.410   1.618  0.00  0.00    +0.031 C 
ATOM     37  C   UNL     1      -8.039  -4.763  -0.603  0.00  0.00    +0.031 C 
ENDBRANCH  32  34
ENDBRANCH  10  30
TORSDOF 4
