REMARK  Name = ZINC08789153
REMARK  12 active torsions:
REMARK  status: ('A' for Active; 'I' for Inactive)
REMARK    1  A    between atoms: C_1  and  C_2
REMARK    2  A    between atoms: C_5  and  C_34
REMARK    3  A    between atoms: C_9  and  C_10
REMARK    4  A    between atoms: C_9  and  N_64
REMARK    5  A    between atoms: C_11  and  O_33
REMARK    6  A    between atoms: C_18  and  C_19
REMARK    7  A    between atoms: C_21  and  O_29
REMARK    8  A    between atoms: C_22  and  O_27
REMARK    9  A    between atoms: C_23  and  O_25
REMARK   10  A    between atoms: O_25  and  C_26
REMARK   11  A    between atoms: O_27  and  C_28
REMARK   12  A    between atoms: O_29  and  C_30
REMARK                            x       y       z     vdW  Elec       q    Type
REMARK                         _______ _______ _______ _____ _____    ______ ____
ROOT
ATOM      1  C   UNL     1       5.639   4.761  -0.307  0.00  0.00    +0.020 A 
ATOM      2  C   UNL     1       7.013   4.881  -0.440  0.00  0.00    +0.122 A 
ATOM      3  C   UNL     1       7.818   3.748  -0.522  0.00  0.00    +0.046 A 
ATOM      4  C   UNL     1       7.258   2.503  -0.472  0.00  0.00    +0.019 A 
ATOM      5  C   UNL     1       5.876   2.367  -0.339  0.00  0.00    +0.068 A 
ATOM      6  C   UNL     1       5.053   3.502  -0.256  0.00  0.00    +0.144 A 
ATOM      7  O   UNL     1       3.763   3.122  -0.138  0.00  0.00    -0.451 OA
ATOM      8  C   UNL     1       3.635   1.774  -0.125  0.00  0.00    +0.176 C 
ATOM      9  C   UNL     1       2.473   1.080  -0.015  0.00  0.00    +0.058 C 
ATOM     10  C   UNL     1       4.981   1.199  -0.257  0.00  0.00    +0.231 C 
ATOM     11  O   UNL     1       5.288   0.020  -0.290  0.00  0.00    -0.283 OA
ENDROOT
BRANCH   9  12
ATOM     12  C   UNL     1       1.219   1.788   0.271  0.00  0.00    -0.014 A 
ATOM     13  C   UNL     1       1.238   3.156   0.571  0.00  0.00    +0.057 A 
ATOM     14  C   UNL     1       0.056   3.817   0.844  0.00  0.00    +0.166 A 
ATOM     15  C   UNL     1      -1.154   3.128   0.811  0.00  0.00    +0.204 A 
ATOM     16  C   UNL     1      -1.177   1.767   0.513  0.00  0.00    +0.166 A 
ATOM     17  C   UNL     1       0.001   1.097   0.244  0.00  0.00    +0.057 A 
BRANCH  16  18
ATOM     18  O   UNL     1      -2.360   1.098   0.488  0.00  0.00    -0.491 OA
ATOM     19  C   UNL     1      -2.310  -0.296   0.175  0.00  0.00    +0.277 C 
ENDBRANCH  16  18
BRANCH  15  20
ATOM     20  O   UNL     1      -2.315   3.784   1.075  0.00  0.00    -0.488 OA
ATOM     21  C   UNL     1      -2.742   3.824   2.438  0.00  0.00    +0.277 C 
ENDBRANCH  15  20
BRANCH  14  22
ATOM     22  O   UNL     1       0.074   5.144   1.141  0.00  0.00    -0.491 OA
ATOM     23  C   UNL     1       1.349   5.790   1.152  0.00  0.00    +0.277 C 
ENDBRANCH  14  22
ENDBRANCH   9  12
BRANCH   2  24
ATOM     24  O   UNL     1       7.579   6.114  -0.491  0.00  0.00    -0.506 OA
ATOM     25  H   UNL     1       7.658   6.474  -1.385  0.00  0.00    +0.292 HD
ENDBRANCH   2  24
BRANCH   1  26
ATOM     26  C   UNL     1       4.780   5.996  -0.219  0.00  0.00    -0.036 C 
BRANCH  26  34
ATOM     27  C   UNL     1       4.505   5.829  -4.417  0.00  0.00    +0.005 C 
ATOM     28  C   UNL     1       5.079   7.108  -3.804  0.00  0.00    -0.031 C 
ATOM     29  C   UNL     1       4.005   8.199  -3.801  0.00  0.00    +0.003 C 
ATOM     30  C   UNL     1       2.833   7.749  -2.925  0.00  0.00    -0.031 C 
ATOM     31  C   UNL     1       3.343   7.454  -1.512  0.00  0.00    -0.075 C 
ATOM     32  C   UNL     1       5.524   6.831  -2.366  0.00  0.00    -0.075 C 
ATOM     33  C   UNL     1       1.782   8.858  -2.867  0.00  0.00    +0.005 C 
ATOM     34  N   UNL     1       4.355   6.378  -1.582  0.00  0.00    +0.383 N 
ATOM     35  H   UNL     1       3.941   5.560  -2.044  0.00  0.00    -0.081 HD
ENDBRANCH  26  34
ENDBRANCH   1  26
TORSDOF 7
