REMARK  Name = ZINC26331893
REMARK  13 active torsions:
REMARK  status: ('A' for Active; 'I' for Inactive)
REMARK    1  A    between atoms: C_1  and  C_2
REMARK    2  A    between atoms: C_2  and  N_3
REMARK    3  A    between atoms: N_3  and  C_4
REMARK    4  A    between atoms: N_3  and  C_6
REMARK    5  A    between atoms: C_4  and  C_5
REMARK    6  A    between atoms: C_6  and  C_7
REMARK    7  A    between atoms: C_7  and  C_8
REMARK    8  A    between atoms: C_8  and  N_9
REMARK    9  A    between atoms: N_9  and  C_10
REMARK   10  A    between atoms: C_10  and  C_11
REMARK   11  A    between atoms: C_14  and  C_24
REMARK   12  A    between atoms: C_16  and  C_23
REMARK   13  A    between atoms: N_27  and  C_28
REMARK                            x       y       z     vdW  Elec       q    Type
REMARK                         _______ _______ _______ _____ _____    ______ ____
ROOT
ATOM      1  N   UNL     1       5.059   4.621  -1.508  0.00  0.00    -0.281 N 
ATOM      2  C   UNL     1       5.841   3.796  -2.231  0.00  0.00    +0.307 C 
ATOM      3  O   UNL     1       6.080   2.675  -1.826  0.00  0.00    -0.252 OA
ATOM      4  N   UNL     1       6.357   4.214  -3.404  0.00  0.00    -0.269 N 
ATOM      5  H   UNL     1       6.203   5.252  -3.734  0.00  0.00    +0.156 HD
ENDROOT
BRANCH   4   6
ATOM      6  C   UNL     1       7.090   3.326  -4.202  0.00  0.00    +0.035 A 
ATOM      7  C   UNL     1       7.910   2.374  -3.611  0.00  0.00    +0.026 A 
ATOM      8  C   UNL     1       8.627   1.496  -4.400  0.00  0.00    +0.040 A 
ATOM      9  C   UNL     1       8.537   1.572  -5.780  0.00  0.00    +0.124 A 
ATOM     10  C   UNL     1       7.724   2.524  -6.371  0.00  0.00    +0.040 A 
ATOM     11  C   UNL     1       7.001   3.400  -5.586  0.00  0.00    +0.026 A 
ATOM     12  F   UNL     1       9.243   0.715  -6.550  0.00  0.00    -0.205 F 
ENDBRANCH   4   6
BRANCH   1  13
ATOM     13  C   UNL     1       4.770   5.972  -1.996  0.00  0.00    +0.108 C 
BRANCH  13  14
ATOM     14  C   UNL     1       5.834   6.940  -1.475  0.00  0.00    +0.000 C 
BRANCH  14  15
ATOM     15  C   UNL     1       5.532   8.351  -1.985  0.00  0.00    -0.077 C 
BRANCH  15  16
ATOM     16  N   UNL     1       6.480   9.301  -1.386  0.00  0.00    +0.379 N 
ATOM     17  H   UNL     1       6.595   9.040  -0.324  0.00  0.00    -0.082 HD
BRANCH  16  19
ATOM     18  C   UNL     1       8.818  10.011  -1.219  0.00  0.00    -0.017 C 
ATOM     19  C   UNL     1       7.801   9.198  -2.022  0.00  0.00    -0.082 C 
ENDBRANCH  16  19
BRANCH  16  20
ATOM     20  C   UNL     1       5.966  10.675  -1.461  0.00  0.00    -0.082 C 
ATOM     21  C   UNL     1       4.873  10.869  -0.407  0.00  0.00    -0.017 C 
ENDBRANCH  16  20
ENDBRANCH  15  16
ENDBRANCH  14  15
ENDBRANCH  13  14
ENDBRANCH   1  13
BRANCH   1  22
ATOM     22  C   UNL     1       4.497   4.167  -0.233  0.00  0.00    +0.150 C 
BRANCH  22  23
ATOM     23  C   UNL     1       3.158   3.521  -0.475  0.00  0.00    +0.035 A 
ATOM     24  C   UNL     1       3.073   2.175  -0.622  0.00  0.00    +0.020 A 
ATOM     25  C   UNL     1       1.757   1.579  -0.857  0.00  0.00    +0.002 A 
ATOM     26  C   UNL     1       1.607   0.197  -1.016  0.00  0.00    -0.041 A 
ATOM     27  C   UNL     1       0.366  -0.329  -1.235  0.00  0.00    +0.007 A 
ATOM     28  C   UNL     1      -0.749   0.496  -1.300  0.00  0.00    -0.048 A 
ATOM     29  C   UNL     1      -0.625   1.860  -1.146  0.00  0.00    +0.029 A 
ATOM     30  C   UNL     1       0.629   2.418  -0.922  0.00  0.00    +0.050 A 
ATOM     31  N   UNL     1       0.782   3.779  -0.765  0.00  0.00    -0.322 N 
ATOM     32  H   UNL     1      -0.095   4.441  -0.814  0.00  0.00    +0.169 HD
ATOM     33  C   UNL     1       1.995   4.318  -0.550  0.00  0.00    +0.254 A 
ATOM     34  O   UNL     1       2.093   5.526  -0.415  0.00  0.00    -0.268 OA
ATOM     35  C   UNL     1      -2.109  -0.106  -1.543  0.00  0.00    +0.044 C 
ATOM     36  C   UNL     1       2.811  -0.708  -0.946  0.00  0.00    +0.044 C 
ENDBRANCH  22  23
ENDBRANCH   1  22
TORSDOF 9
