REMARK  Name = ZINC13811117
REMARK  10 active torsions:
REMARK  status: ('A' for Active; 'I' for Inactive)
REMARK    1  A    between atoms: C_1  and  C_2
REMARK    2  A    between atoms: C_2  and  O_3
REMARK    3  A    between atoms: O_3  and  C_4
REMARK    4  A    between atoms: C_7  and  C_10
REMARK    5  A    between atoms: C_27  and  C_29
REMARK    6  A    between atoms: C_32  and  O_37
REMARK    7  A    between atoms: C_33  and  O_35
REMARK    8  A    between atoms: O_35  and  C_36
REMARK    9  A    between atoms: O_37  and  C_38
REMARK   10  A    between atoms: C_38  and  C_39
REMARK                            x       y       z     vdW  Elec       q    Type
REMARK                         _______ _______ _______ _____ _____    ______ ____
ROOT
ATOM      1  C   UNL     1      -2.001  -6.092  -0.011  0.00  0.00    +0.234 C 
ATOM      2  C   UNL     1      -2.179  -6.565  -1.424  0.00  0.00    +0.027 C 
ATOM      3  C   UNL     1      -3.408  -6.644  -1.973  0.00  0.00    +0.083 C 
ATOM      4  C   UNL     1      -4.563  -6.257  -1.123  0.00  0.00    +0.042 A 
ATOM      5  C   UNL     1      -5.810  -5.992  -1.671  0.00  0.00    +0.013 A 
ATOM      6  C   UNL     1      -6.857  -5.635  -0.843  0.00  0.00    +0.001 A 
ATOM      7  C   UNL     1      -6.664  -5.543   0.525  0.00  0.00    +0.004 A 
ATOM      8  C   UNL     1      -5.424  -5.806   1.078  0.00  0.00    +0.046 A 
ATOM      9  C   UNL     1      -4.367  -6.165   0.261  0.00  0.00    +0.131 A 
ATOM     10  O   UNL     1      -3.144  -6.436   0.774  0.00  0.00    -0.479 OA
ATOM     11  N   UNL     1      -3.589  -7.061  -3.250  0.00  0.00    -0.214 NA
ATOM     12  C   UNL     1      -2.618  -7.427  -4.054  0.00  0.00    +0.215 C 
ATOM     13  N   UNL     1      -2.621  -7.865  -5.332  0.00  0.00    -0.320 N 
ATOM     14  C   UNL     1      -1.404  -8.117  -5.729  0.00  0.00    +0.176 C 
ATOM     15  N   UNL     1      -0.532  -7.853  -4.717  0.00  0.00    -0.252 N 
ATOM     16  N   UNL     1      -1.301  -7.408  -3.639  0.00  0.00    -0.210 N 
ATOM     17  C   UNL     1      -0.993  -6.966  -2.274  0.00  0.00    +0.159 C 
ATOM     18  H   UNL     1       0.432  -7.954  -4.740  0.00  0.00    +0.171 HD
ATOM     19  H   UNL     1      -3.416  -7.976  -5.878  0.00  0.00    +0.169 HD
ENDROOT
BRANCH   1  23
ATOM     20  C   UNL     1      -1.498  -1.848   0.006  0.00  0.00    +0.121 A 
ATOM     21  C   UNL     1      -0.388  -2.679  -0.003  0.00  0.00    +0.046 A 
ATOM     22  C   UNL     1      -0.553  -4.051  -0.008  0.00  0.00    +0.011 A 
ATOM     23  C   UNL     1      -1.823  -4.596  -0.005  0.00  0.00    -0.003 A 
ATOM     24  C   UNL     1      -2.932  -3.769   0.004  0.00  0.00    +0.011 A 
ATOM     25  C   UNL     1      -2.772  -2.397   0.016  0.00  0.00    +0.046 A 
BRANCH  20  26
ATOM     26  O   UNL     1      -1.339  -0.499   0.012  0.00  0.00    -0.492 OA
BRANCH  26  28
ATOM     27  C   UNL     1      -0.019   1.526   0.010  0.00  0.00    +0.048 C 
ATOM     28  C   UNL     1       0.002  -0.004   0.002  0.00  0.00    +0.225 C 
ENDBRANCH  26  28
ENDBRANCH  20  26
ENDBRANCH   1  23
BRANCH  17  29
ATOM     29  C   UNL     1      -0.267  -8.083  -1.570  0.00  0.00    -0.017 A 
ATOM     30  C   UNL     1      -0.741  -9.379  -1.661  0.00  0.00    +0.009 A 
ATOM     31  C   UNL     1      -0.079 -10.407  -1.017  0.00  0.00    +0.050 A 
ATOM     32  C   UNL     1       1.063 -10.141  -0.279  0.00  0.00    +0.162 A 
ATOM     33  C   UNL     1       1.541  -8.837  -0.188  0.00  0.00    +0.162 A 
ATOM     34  C   UNL     1       0.875  -7.812  -0.840  0.00  0.00    +0.055 A 
BRANCH  33  35
ATOM     35  O   UNL     1       2.662  -8.571   0.535  0.00  0.00    -0.491 OA
ATOM     36  C   UNL     1       3.094  -7.210   0.584  0.00  0.00    +0.277 C 
ENDBRANCH  33  35
BRANCH  32  37
ATOM     37  O   UNL     1       1.716 -11.152   0.355  0.00  0.00    -0.489 OA
BRANCH  37  38
ATOM     38  C   UNL     1       1.168 -12.464   0.218  0.00  0.00    +0.226 C 
ATOM     39  C   UNL     1       2.031 -13.461   0.995  0.00  0.00    +0.048 C 
ENDBRANCH  37  38
ENDBRANCH  32  37
ENDBRANCH  17  29
TORSDOF 7
