REMARK  Name = ZINC40045314
REMARK  7 active torsions:
REMARK  status: ('A' for Active; 'I' for Inactive)
REMARK    1  A    between atoms: C_1  and  C_2
REMARK    2  A    between atoms: C_2  and  C_3
REMARK    3  A    between atoms: C_17  and  C_19
REMARK    4  A    between atoms: C_22  and  O_25
REMARK    5  A    between atoms: O_25  and  C_26
REMARK    6  A    between atoms: C_26  and  C_27
REMARK    7  A    between atoms: C_33  and  C_36
REMARK                            x       y       z     vdW  Elec       q    Type
REMARK                         _______ _______ _______ _____ _____    ______ ____
ROOT
ATOM      1  C   UNL     1       0.707  -0.490  -1.238  0.00  0.00    -0.047 A 
ATOM      2  C   UNL     1      -0.016  -0.719  -2.400  0.00  0.00    +0.007 A 
ATOM      3  C   UNL     1       0.609  -1.166  -3.543  0.00  0.00    +0.047 A 
ATOM      4  C   UNL     1       1.985  -1.394  -3.544  0.00  0.00    +0.139 A 
ATOM      5  C   UNL     1       2.707  -1.153  -2.364  0.00  0.00    +0.065 A 
ATOM      6  C   UNL     1       2.058  -0.699  -1.216  0.00  0.00    +0.019 A 
ATOM      7  C   UNL     1       4.175  -1.378  -2.359  0.00  0.00    +0.199 A 
ATOM      8  O   UNL     1       4.850  -1.357  -1.345  0.00  0.00    -0.287 OA
ATOM      9  C   UNL     1       4.734  -1.628  -3.691  0.00  0.00    +0.072 A 
ATOM     10  C   UNL     1       3.921  -1.839  -4.769  0.00  0.00    +0.199 A 
ATOM     11  O   UNL     1       2.576  -1.840  -4.675  0.00  0.00    -0.450 OA
ATOM     12  C   UNL     1       4.769  -2.050  -5.954  0.00  0.00    +0.288 C 
ATOM     13  O   UNL     1       4.356  -2.260  -7.077  0.00  0.00    -0.266 OA
ATOM     14  N   UNL     1       6.071  -1.974  -5.612  0.00  0.00    -0.238 N 
ATOM     15  C   UNL     1       6.148  -1.705  -4.166  0.00  0.00    +0.151 C 
ATOM     16  C   UNL     1       7.154  -2.124  -6.475  0.00  0.00    +0.129 A 
ATOM     17  C   UNL     1       6.932  -2.266  -7.840  0.00  0.00    +0.044 A 
ATOM     18  C   UNL     1       8.017  -2.414  -8.686  0.00  0.00    +0.008 A 
ATOM     19  C   UNL     1       9.292  -2.415  -8.135  0.00  0.00    -0.032 A 
ATOM     20  C   UNL     1       9.438  -2.269  -6.770  0.00  0.00    +0.116 A 
ATOM     21  N   UNL     1       8.385  -2.124  -5.988  0.00  0.00    -0.240 NA
ATOM     22  C   UNL     1      10.502  -2.574  -9.018  0.00  0.00    +0.045 C 
ENDROOT
BRANCH  15  23
ATOM     23  C   UNL     1       6.853  -0.397  -3.917  0.00  0.00    -0.022 A 
ATOM     24  C   UNL     1       6.661   0.666  -4.780  0.00  0.00    +0.009 A 
ATOM     25  C   UNL     1       7.306   1.866  -4.554  0.00  0.00    +0.046 A 
ATOM     26  C   UNL     1       8.147   2.005  -3.460  0.00  0.00    +0.121 A 
ATOM     27  C   UNL     1       8.338   0.937  -2.595  0.00  0.00    +0.046 A 
ATOM     28  C   UNL     1       7.686  -0.259  -2.822  0.00  0.00    +0.009 A 
BRANCH  26  29
ATOM     29  O   UNL     1       8.783   3.185  -3.235  0.00  0.00    -0.483 OA
BRANCH  29  30
ATOM     30  C   UNL     1       9.634   3.255  -2.089  0.00  0.00    +0.324 C 
BRANCH  30  31
ATOM     31  C   UNL     1      10.248   4.629  -2.004  0.00  0.00    +0.248 C 
ATOM     32  O   UNL     1       9.984   5.465  -2.842  0.00  0.00    -0.272 OA
ATOM     33  N   UNL     1      11.092   4.928  -0.996  0.00  0.00    -0.327 N 
ATOM     34  H   UNL     1      11.303   4.260  -0.326  0.00  0.00    +0.145 HD
ATOM     35  H   UNL     1      11.487   5.812  -0.941  0.00  0.00    +0.145 HD
ENDBRANCH  30  31
ENDBRANCH  29  30
ENDBRANCH  26  29
ENDBRANCH  15  23
BRANCH   1  37
ATOM     36  C   UNL     1      -0.019   1.526   0.010  0.00  0.00    +0.009 C 
ATOM     37  C   UNL     1       0.002  -0.004   0.002  0.00  0.00    +0.032 C 
ENDBRANCH   1  37
TORSDOF 5
