REMARK  Name = ZINC08583646
REMARK  9 active torsions:
REMARK  status: ('A' for Active; 'I' for Inactive)
REMARK    1  A    between atoms: C_1  and  C_2
REMARK    2  A    between atoms: C_2  and  C_3
REMARK    3  A    between atoms: C_6  and  N_9
REMARK    4  A    between atoms: C_10  and  C_12
REMARK    5  A    between atoms: C_12  and  S_13
REMARK    6  A    between atoms: S_13  and  C_14
REMARK    7  A    between atoms: C_18  and  C_22
REMARK    8  A    between atoms: N_25  and  C_26
REMARK    9  A    between atoms: C_31  and  C_32
REMARK                            x       y       z     vdW  Elec       q    Type
REMARK                         _______ _______ _______ _____ _____    ______ ____
ROOT
ATOM      1  C   UNL     1      -9.752  -3.102  -2.608  0.00  0.00    +0.177 A 
ATOM      2  N   UNL     1     -10.203  -3.285  -1.385  0.00  0.00    -0.201 NA
ATOM      3  C   UNL     1     -11.486  -3.716  -1.217  0.00  0.00    +0.187 A 
ATOM      4  C   UNL     1     -12.268  -4.161  -2.397  0.00  0.00    +0.082 A 
ATOM      5  C   UNL     1     -13.488  -4.539  -1.948  0.00  0.00    +0.046 A 
ATOM      6  N   UNL     1     -13.504  -4.356  -0.612  0.00  0.00    -0.279 N 
ATOM      7  N   UNL     1     -12.266  -3.849  -0.186  0.00  0.00    -0.153 NA
ATOM      8  H   UNL     1     -14.258  -4.547  -0.032  0.00  0.00    +0.189 HD
ATOM      9  C   UNL     1     -14.621  -5.067  -2.789  0.00  0.00    +0.066 C 
ATOM     10  C   UNL     1     -11.624  -4.107  -3.727  0.00  0.00    +0.124 A 
ATOM     11  N   UNL     1     -12.053  -4.769  -4.769  0.00  0.00    -0.384 N 
ATOM     12  N   UNL     1     -10.504  -3.261  -3.746  0.00  0.00    -0.274 N 
ATOM     13  H   UNL     1     -12.836  -5.336  -4.694  0.00  0.00    +0.157 HD
ATOM     14  H   UNL     1     -11.588  -4.694  -5.617  0.00  0.00    +0.157 HD
ENDROOT
BRANCH  12  15
ATOM     15  C   UNL     1     -10.150  -2.585  -4.921  0.00  0.00    +0.053 A 
ATOM     16  C   UNL     1      -9.289  -3.179  -5.834  0.00  0.00    +0.026 A 
ATOM     17  C   UNL     1      -8.943  -2.510  -6.991  0.00  0.00    +0.002 A 
ATOM     18  C   UNL     1      -9.453  -1.250  -7.241  0.00  0.00    +0.000 A 
ATOM     19  C   UNL     1     -10.310  -0.655  -6.334  0.00  0.00    +0.005 A 
ATOM     20  C   UNL     1     -10.665  -1.321  -5.178  0.00  0.00    -0.026 A 
ATOM     21  C   UNL     1     -11.605  -0.675  -4.193  0.00  0.00    +0.046 C 
ENDBRANCH  12  15
BRANCH   1  22
ATOM     22  S   UNL     1      -8.069  -2.613  -2.797  0.00  0.00    -0.078 S 
BRANCH  22  23
ATOM     23  C   UNL     1      -7.446  -2.518  -1.097  0.00  0.00    +0.173 C 
BRANCH  23  25
ATOM     24  N   UNL     1      -5.320  -1.968   0.042  0.00  0.00    -0.285 N 
ATOM     25  C   UNL     1      -5.997  -2.104  -1.115  0.00  0.00    +0.227 C 
ATOM     26  O   UNL     1      -5.440  -1.894  -2.172  0.00  0.00    -0.275 OA
ATOM     27  H   UNL     1      -5.742  -2.209   0.882  0.00  0.00    +0.155 HD
BRANCH  24  31
ATOM     28  C   UNL     1      -1.419  -0.507   0.015  0.00  0.00    -0.048 A 
ATOM     29  C   UNL     1      -2.333  -0.051  -0.916  0.00  0.00    +0.005 A 
ATOM     30  C   UNL     1      -3.627  -0.533  -0.910  0.00  0.00    +0.023 A 
ATOM     31  C   UNL     1      -4.010  -1.478   0.033  0.00  0.00    +0.033 A 
ATOM     32  C   UNL     1      -3.089  -1.935   0.967  0.00  0.00    +0.023 A 
ATOM     33  C   UNL     1      -1.795  -1.452   0.952  0.00  0.00    +0.005 A 
BRANCH  28  35
ATOM     34  C   UNL     1       0.858  -0.854  -0.904  0.00  0.00    +0.009 C 
ATOM     35  C   UNL     1      -0.007   0.021   0.005  0.00  0.00    +0.032 C 
ENDBRANCH  28  35
ENDBRANCH  24  31
ENDBRANCH  23  25
ENDBRANCH  22  23
ENDBRANCH   1  22
TORSDOF 6
