REMARK  Name = ZINC38547303
REMARK  9 active torsions:
REMARK  status: ('A' for Active; 'I' for Inactive)
REMARK    1  A    between atoms: C_1  and  C_2
REMARK    2  A    between atoms: C_6  and  N_8
REMARK    3  A    between atoms: N_8  and  C_9
REMARK    4  A    between atoms: C_9  and  C_11
REMARK    5  A    between atoms: C_9  and  C_19
REMARK    6  A    between atoms: C_16  and  O_17
REMARK    7  A    between atoms: O_17  and  C_18
REMARK    8  A    between atoms: C_23  and  N_24
REMARK    9  A    between atoms: C_25  and  C_27
REMARK                            x       y       z     vdW  Elec       q    Type
REMARK                         _______ _______ _______ _____ _____    ______ ____
ROOT
ATOM      1  C   UNL     1       0.073  -4.096   2.465  0.00  0.00    +0.138 C 
ENDROOT
BRANCH   1   2
ATOM      2  C   UNL     1       0.792  -4.548   3.709  0.00  0.00    +0.009 A 
ATOM      3  C   UNL     1       1.810  -5.499   3.623  0.00  0.00    -0.030 A 
ATOM      4  C   UNL     1       2.411  -5.855   4.789  0.00  0.00    -0.005 A 
ATOM      5  S   UNL     1       1.579  -4.880   6.014  0.00  0.00    -0.078 S 
ATOM      6  C   UNL     1       0.456  -4.025   4.919  0.00  0.00    +0.078 A 
ATOM      7  C   UNL     1       3.516  -6.843   4.979  0.00  0.00    +0.043 C 
ATOM      8  C   UNL     1       3.639  -7.683   3.699  0.00  0.00    +0.005 C 
ATOM      9  C   UNL     1       3.641  -6.740   2.492  0.00  0.00    +0.005 C 
ATOM     10  C   UNL     1       2.252  -6.128   2.305  0.00  0.00    +0.036 C 
BRANCH   6  11
ATOM     11  N   UNL     1      -0.516  -3.070   5.225  0.00  0.00    -0.273 N 
ATOM     12  C   UNL     1      -0.628  -2.603   6.484  0.00  0.00    +0.284 C 
ATOM     13  O   UNL     1       0.117  -3.013   7.354  0.00  0.00    -0.266 OA
ATOM     14  H   UNL     1      -1.110  -2.743   4.532  0.00  0.00    +0.156 HD
BRANCH  12  15
ATOM     15  C   UNL     1      -1.649  -1.601   6.806  0.00  0.00    +0.189 A 
ATOM     16  C   UNL     1      -1.866  -1.042   8.033  0.00  0.00    +0.054 A 
ATOM     17  C   UNL     1      -2.931  -0.139   7.883  0.00  0.00    +0.042 A 
ATOM     18  C   UNL     1      -3.312  -0.186   6.587  0.00  0.00    +0.196 A 
ATOM     19  O   UNL     1      -2.534  -1.064   5.941  0.00  0.00    -0.458 OA
ENDBRANCH  12  15
ENDBRANCH   6  11
ENDBRANCH   1   2
BRANCH   1  20
ATOM     20  C   UNL     1      -1.325  -4.657   2.461  0.00  0.00    +0.019 A 
ATOM     21  C   UNL     1      -2.390  -3.863   2.842  0.00  0.00    +0.009 A 
ATOM     22  C   UNL     1      -3.673  -4.377   2.840  0.00  0.00    +0.001 A 
ATOM     23  C   UNL     1      -3.895  -5.687   2.456  0.00  0.00    +0.004 A 
ATOM     24  C   UNL     1      -2.834  -6.485   2.074  0.00  0.00    +0.046 A 
ATOM     25  C   UNL     1      -1.546  -5.970   2.070  0.00  0.00    +0.125 A 
BRANCH  25  26
ATOM     26  O   UNL     1      -0.501  -6.751   1.689  0.00  0.00    -0.495 OA
ATOM     27  C   UNL     1      -0.802  -8.092   1.299  0.00  0.00    +0.277 C 
ENDBRANCH  25  26
ENDBRANCH   1  20
BRANCH   1  28
ATOM     28  N   UNL     1       0.012  -2.632   2.440  0.00  0.00    -0.319 N 
ATOM     29  H   UNL     1       0.100  -2.129   3.265  0.00  0.00    +0.148 HD
BRANCH  28  35
ATOM     30  C   UNL     1      -0.454   1.536   0.132  0.00  0.00    +0.063 C 
ATOM     31  C   UNL     1      -0.399   0.030   0.097  0.00  0.00    +0.014 A 
ATOM     32  C   UNL     1      -0.530  -0.628  -1.110  0.00  0.00    +0.021 A 
ATOM     33  C   UNL     1      -0.478  -2.015  -1.137  0.00  0.00    +0.005 A 
ATOM     34  C   UNL     1      -0.296  -2.692   0.056  0.00  0.00    +0.041 A 
ATOM     35  C   UNL     1      -0.171  -1.965   1.234  0.00  0.00    +0.097 A 
ATOM     36  N   UNL     1      -0.221  -0.641   1.218  0.00  0.00    -0.347 N 
ATOM     37  H   UNL     1      -0.127  -0.154   2.052  0.00  0.00    +0.167 HD
ENDBRANCH  28  35
ENDBRANCH   1  28
TORSDOF 7
