REMARK  Name = ZINC39678339
REMARK  8 active torsions:
REMARK  status: ('A' for Active; 'I' for Inactive)
REMARK    1  A    between atoms: C_4  and  C_7
REMARK    2  A    between atoms: C_7  and  C_8
REMARK    3  A    between atoms: C_8  and  C_9
REMARK    4  A    between atoms: C_9  and  C_10
REMARK    5  A    between atoms: C_14  and  C_23
REMARK    6  A    between atoms: N_25  and  C_26
REMARK    7  A    between atoms: C_26  and  C_27
REMARK    8  A    between atoms: C_32  and  N_33
REMARK                            x       y       z     vdW  Elec       q    Type
REMARK                         _______ _______ _______ _____ _____    ______ ____
ROOT
ATOM      1  C   UNL     1       5.758  -1.969   2.629  0.00  0.00    +0.216 C 
ATOM      2  O   UNL     1       5.066  -1.726   3.595  0.00  0.00    -0.276 OA
ATOM      3  N   UNL     1       6.871  -2.717   2.768  0.00  0.00    -0.300 N 
ATOM      4  C   UNL     1       7.786  -3.191   1.703  0.00  0.00    +0.121 C 
ATOM      5  C   UNL     1       9.199  -3.053   2.313  0.00  0.00    +0.100 C 
ATOM      6  C   UNL     1       8.976  -3.094   3.834  0.00  0.00    -0.004 C 
ATOM      7  C   UNL     1       7.460  -3.244   4.022  0.00  0.00    +0.115 C 
ATOM      8  C   UNL     1       9.454  -1.794   4.473  0.00  0.00    -0.010 C 
ATOM      9  C   UNL     1       9.275  -1.881   5.992  0.00  0.00    -0.082 C 
ATOM     10  N   UNL     1      10.044  -3.018   6.512  0.00  0.00    +0.379 N 
ATOM     11  C   UNL     1       9.517  -4.273   5.963  0.00  0.00    -0.082 C 
ATOM     12  C   UNL     1       9.706  -4.287   4.443  0.00  0.00    -0.010 C 
ATOM     13  H   UNL     1      11.013  -2.917   6.247  0.00  0.00    -0.086 HD
ATOM     14  H   UNL     1       9.974  -3.038   7.518  0.00  0.00    -0.086 HD
ENDROOT
BRANCH   5  15
ATOM     15  C   UNL     1       9.819  -1.741   1.906  0.00  0.00    +0.218 C 
ATOM     16  O   UNL     1       9.120  -0.763   1.745  0.00  0.00    -0.275 OA
ATOM     17  N   UNL     1      11.152  -1.654   1.722  0.00  0.00    -0.311 N 
ATOM     18  H   UNL     1      11.703  -2.450   1.784  0.00  0.00    +0.149 HD
BRANCH  17  19
ATOM     19  C   UNL     1      11.768  -0.358   1.427  0.00  0.00    +0.141 C 
BRANCH  19  20
ATOM     20  C   UNL     1      13.236  -0.551   1.148  0.00  0.00    -0.009 A 
ATOM     21  C   UNL     1      14.170  -0.261   2.123  0.00  0.00    +0.007 A 
ATOM     22  C   UNL     1      15.517  -0.437   1.867  0.00  0.00    +0.000 A 
ATOM     23  C   UNL     1      15.934  -0.906   0.634  0.00  0.00    +0.002 A 
ATOM     24  C   UNL     1      15.006  -1.199  -0.345  0.00  0.00    +0.023 A 
ATOM     25  C   UNL     1      13.651  -1.028  -0.089  0.00  0.00    +0.034 A 
BRANCH  25  26
ATOM     26  N   UNL     1      12.709  -1.328  -1.076  0.00  0.00    -0.330 N 
ATOM     27  C   UNL     1      12.341  -0.329  -2.089  0.00  0.00    +0.105 C 
ATOM     28  C   UNL     1      12.523  -0.946  -3.479  0.00  0.00    +0.019 C 
ATOM     29  C   UNL     1      11.725  -2.249  -3.562  0.00  0.00    +0.003 C 
ATOM     30  C   UNL     1      12.252  -3.240  -2.522  0.00  0.00    +0.019 C 
ATOM     31  C   UNL     1      12.071  -2.651  -1.124  0.00  0.00    +0.105 C 
ENDBRANCH  25  26
ENDBRANCH  19  20
ENDBRANCH  17  19
ENDBRANCH   5  15
BRANCH   1  32
ATOM     32  C   UNL     1       5.373  -1.436   1.273  0.00  0.00    +0.096 C 
BRANCH  32  33
ATOM     33  C   UNL     1       4.153  -0.523   1.411  0.00  0.00    +0.014 C 
BRANCH  33  34
ATOM     34  C   UNL     1       3.692  -0.075   0.023  0.00  0.00    +0.035 C 
BRANCH  34  38
ATOM     35  C   UNL     1       0.090   2.193   0.381  0.00  0.00    +0.000 A 
ATOM     36  C   UNL     1       1.315   2.830   0.435  0.00  0.00    +0.000 A 
ATOM     37  C   UNL     1       2.481   2.096   0.319  0.00  0.00    +0.003 A 
ATOM     38  C   UNL     1       2.421   0.725   0.150  0.00  0.00    -0.047 A 
ATOM     39  C   UNL     1       1.195   0.088   0.097  0.00  0.00    +0.003 A 
ATOM     40  C   UNL     1       0.030   0.823   0.211  0.00  0.00    +0.000 A 
ENDBRANCH  34  38
ENDBRANCH  33  34
ENDBRANCH  32  33
ENDBRANCH   1  32
TORSDOF 8
