REMARK  Name = ZINC09010388
REMARK  5 active torsions:
REMARK  status: ('A' for Active; 'I' for Inactive)
REMARK    1  A    between atoms: C_5  and  N_7
REMARK    2  A    between atoms: N_7  and  S_8
REMARK    3  A    between atoms: S_8  and  C_11
REMARK    4  A    between atoms: C_24  and  C_27
REMARK    5  A    between atoms: C_31  and  N_33
REMARK                            x       y       z     vdW  Elec       q    Type
REMARK                         _______ _______ _______ _____ _____    ______ ____
ROOT
ATOM      1  C   UNL     1       6.209   0.231   0.901  0.00  0.00    +0.109 A 
ATOM      2  C   UNL     1       6.620   0.366  -0.413  0.00  0.00    +0.030 A 
ATOM      3  C   UNL     1       6.033   1.310  -1.230  0.00  0.00    +0.025 A 
ATOM      4  C   UNL     1       5.025   2.133  -0.740  0.00  0.00    +0.031 A 
ATOM      5  C   UNL     1       4.606   1.982   0.587  0.00  0.00    -0.018 A 
ATOM      6  C   UNL     1       5.202   1.039   1.396  0.00  0.00    +0.034 A 
ATOM      7  C   UNL     1       3.516   2.862   1.062  0.00  0.00    +0.049 C 
ATOM      8  C   UNL     1       3.361   3.215   2.496  0.00  0.00    -0.023 C 
ATOM      9  C   UNL     1       2.835   4.431   2.579  0.00  0.00    -0.030 C 
ATOM     10  C   UNL     1       2.625   5.007   1.178  0.00  0.00    +0.033 C 
ATOM     11  C   UNL     1       3.685   4.247   0.370  0.00  0.00    +0.029 C 
ATOM     12  C   UNL     1       3.393   4.004  -1.100  0.00  0.00    +0.105 C 
ATOM     13  N   UNL     1       4.469   3.108  -1.577  0.00  0.00    -0.336 N 
ATOM     14  H   UNL     1       4.796   3.197  -2.486  0.00  0.00    +0.147 HD
ENDROOT
BRANCH  12  15
ATOM     15  C   UNL     1       2.051   3.337  -1.261  0.00  0.00    -0.025 A 
ATOM     16  C   UNL     1       1.963   1.958  -1.285  0.00  0.00    +0.005 A 
ATOM     17  C   UNL     1       0.732   1.346  -1.432  0.00  0.00    +0.003 A 
ATOM     18  C   UNL     1      -0.410   2.114  -1.561  0.00  0.00    +0.033 A 
ATOM     19  C   UNL     1      -0.322   3.493  -1.533  0.00  0.00    +0.127 A 
ATOM     20  C   UNL     1       0.909   4.105  -1.385  0.00  0.00    +0.038 A 
BRANCH  19  21
ATOM     21  N   UNL     1      -1.546   4.316  -1.666  0.00  0.00    +0.056 N 
ATOM     22  O   UNL     1      -1.468   5.531  -1.645  0.00  0.00    -0.126 OA
ATOM     23  O   UNL     1      -2.631   3.777  -1.796  0.00  0.00    -0.126 OA
ENDBRANCH  19  21
ENDBRANCH  12  15
BRANCH   1  24
ATOM     24  S   UNL     1       6.966  -0.971   1.942  0.00  0.00    +0.072 S 
ATOM     25  O   UNL     1       8.254  -1.226   1.398  0.00  0.00    -0.150 OA
ATOM     26  O   UNL     1       6.779  -0.526   3.279  0.00  0.00    -0.150 OA
BRANCH  24  27
ATOM     27  N   UNL     1       6.099  -2.373   1.784  0.00  0.00    -0.213 N 
ATOM     28  H   UNL     1       5.662  -2.763   2.557  0.00  0.00    +0.174 HD
BRANCH  27  33
ATOM     29  C   UNL     1       6.967  -3.584  -1.577  0.00  0.00    +0.002 A 
ATOM     30  C   UNL     1       5.795  -4.224  -1.937  0.00  0.00    +0.003 A 
ATOM     31  C   UNL     1       4.722  -4.251  -1.065  0.00  0.00    +0.040 A 
ATOM     32  C   UNL     1       4.821  -3.643   0.174  0.00  0.00    +0.146 A 
ATOM     33  C   UNL     1       5.997  -2.994   0.535  0.00  0.00    +0.083 A 
ATOM     34  C   UNL     1       7.071  -2.970  -0.344  0.00  0.00    +0.027 A 
ATOM     35  F   UNL     1       3.775  -3.675   1.029  0.00  0.00    -0.204 F 
ENDBRANCH  27  33
ENDBRANCH  24  27
ENDBRANCH   1  24
TORSDOF 5
