REMARK  Name = ZINC09491881
REMARK  5 active torsions:
REMARK  status: ('A' for Active; 'I' for Inactive)
REMARK    1  A    between atoms: C_6  and  N_7
REMARK    2  A    between atoms: C_8  and  C_10
REMARK    3  A    between atoms: N_20  and  N_21
REMARK    4  A    between atoms: N_21  and  C_22
REMARK    5  A    between atoms: C_22  and  N_24
REMARK                            x       y       z     vdW  Elec       q    Type
REMARK                         _______ _______ _______ _____ _____    ______ ____
ROOT
ATOM      1  C   UNL     1       0.414  -0.369   1.584  0.00  0.00    +0.099 A 
ATOM      2  C   UNL     1       0.833   0.616   2.448  0.00  0.00    +0.030 A 
ATOM      3  C   UNL     1       1.123   1.938   1.882  0.00  0.00    +0.019 A 
ATOM      4  C   UNL     1       1.802   2.903   2.633  0.00  0.00    +0.026 A 
ATOM      5  C   UNL     1       2.066   4.137   2.078  0.00  0.00    +0.019 A 
ATOM      6  C   UNL     1       1.662   4.424   0.783  0.00  0.00    +0.019 A 
ATOM      7  C   UNL     1       0.989   3.480   0.031  0.00  0.00    +0.048 A 
ATOM      8  C   UNL     1       0.713   2.234   0.570  0.00  0.00    +0.138 A 
ATOM      9  O   UNL     1       0.050   1.299  -0.156  0.00  0.00    -0.437 OA
ATOM     10  C   UNL     1       0.292  -0.006   0.153  0.00  0.00    +0.224 A 
ATOM     11  N   UNL     1       0.413  -0.908  -0.782  0.00  0.00    -0.274 N 
ATOM     12 BR   UNL     1       2.983   5.446   3.089  0.00  0.00    -0.050 Br
ATOM     13  H   UNL     1       0.186  -0.651  -1.827  0.00  0.00    +0.187 HD
ENDROOT
BRANCH   1  15
ATOM     14  N   UNL     1      -0.892  -2.431   1.484  0.00  0.00    -0.281 N 
ATOM     15  C   UNL     1       0.102  -1.726   2.061  0.00  0.00    +0.253 C 
ATOM     16  O   UNL     1       0.740  -2.211   2.975  0.00  0.00    -0.270 OA
ATOM     17  H   UNL     1      -1.415  -2.026   0.605  0.00  0.00    +0.155 HD
BRANCH  14  23
ATOM     18  C   UNL     1      -0.291  -4.520   2.535  0.00  0.00    +0.024 A 
ATOM     19  C   UNL     1      -0.656  -5.748   3.051  0.00  0.00    +0.017 A 
ATOM     20  C   UNL     1      -1.982  -6.143   3.028  0.00  0.00    +0.018 A 
ATOM     21  C   UNL     1      -2.947  -5.307   2.494  0.00  0.00    +0.017 A 
ATOM     22  C   UNL     1      -2.588  -4.076   1.981  0.00  0.00    +0.024 A 
ATOM     23  C   UNL     1      -1.258  -3.677   2.002  0.00  0.00    +0.034 A 
ATOM     24 BR   UNL     1      -2.477  -7.828   3.729  0.00  0.00    -0.050 Br
ENDBRANCH  14  23
ENDBRANCH   1  15
BRANCH  11  25
ATOM     25  N   UNL     1       0.831  -2.205  -0.455  0.00  0.00    -0.239 N 
ATOM     26  H   UNL     1       1.152  -2.437   0.571  0.00  0.00    +0.174 HD
BRANCH  25  27
ATOM     27  C   UNL     1       0.841  -3.168  -1.398  0.00  0.00    +0.146 C 
ATOM     28  S   UNL     1       1.352  -4.752  -0.998  0.00  0.00    -0.017 S 
BRANCH  27  29
ATOM     29  N   UNL     1       0.448  -2.884  -2.655  0.00  0.00    -0.339 N 
ATOM     30  H   UNL     1       0.456  -3.670  -3.425  0.00  0.00    +0.144 HD
ATOM     31  H   UNL     1       0.119  -1.866  -2.912  0.00  0.00    +0.144 HD
ENDBRANCH  27  29
ENDBRANCH  25  27
ENDBRANCH  11  25
TORSDOF 5
