REMARK  Name = ZINC12706167
REMARK  12 active torsions:
REMARK  status: ('A' for Active; 'I' for Inactive)
REMARK    1  A    between atoms: C_1  and  C_2
REMARK    2  A    between atoms: C_5  and  C_8
REMARK    3  A    between atoms: C_8  and  C_10
REMARK    4  A    between atoms: C_8  and  N_20
REMARK    5  A    between atoms: N_12  and  C_13
REMARK    6  A    between atoms: C_13  and  C_14
REMARK    7  A    between atoms: N_20  and  C_21
REMARK    8  A    between atoms: C_25  and  C_28
REMARK    9  A    between atoms: C_26  and  C_27
REMARK   10  A    between atoms: C_29  and  C_31
REMARK   11  A    between atoms: C_32  and  N_39
REMARK   12  A    between atoms: C_33  and  C_36
REMARK                            x       y       z     vdW  Elec       q    Type
REMARK                         _______ _______ _______ _____ _____    ______ ____
ROOT
ATOM      1  N   UNL     1      -3.998   0.408   0.203  0.00  0.00    -0.251 N 
ATOM      2  C   UNL     1      -4.360  -0.762  -0.361  0.00  0.00    +0.262 C 
ATOM      3  O   UNL     1      -4.146  -1.809   0.221  0.00  0.00    -0.269 OA
ENDROOT
BRANCH   1   4
ATOM      4  C   UNL     1      -4.244   1.612  -0.465  0.00  0.00    +0.041 A 
ATOM      5  C   UNL     1      -3.324   2.098  -1.385  0.00  0.00    +0.024 A 
ATOM      6  C   UNL     1      -3.573   3.284  -2.047  0.00  0.00    +0.002 A 
ATOM      7  C   UNL     1      -4.734   3.991  -1.790  0.00  0.00    +0.004 A 
ATOM      8  C   UNL     1      -5.649   3.512  -0.872  0.00  0.00    -0.046 A 
ATOM      9  C   UNL     1      -5.407   2.326  -0.206  0.00  0.00    -0.026 A 
ATOM     10  C   UNL     1      -6.405   1.804   0.795  0.00  0.00    +0.046 C 
ATOM     11  C   UNL     1      -6.913   4.285  -0.595  0.00  0.00    +0.044 C 
ENDBRANCH   1   4
BRANCH   2  12
ATOM     12  C   UNL     1      -5.012  -0.772  -1.671  0.00  0.00    +0.116 A 
ATOM     13  C   UNL     1      -5.464  -1.856  -2.427  0.00  0.00    +0.076 A 
ATOM     14  C   UNL     1      -6.036  -1.462  -3.636  0.00  0.00    +0.155 A 
ATOM     15  N   UNL     1      -6.094  -0.183  -3.935  0.00  0.00    -0.203 NA
ATOM     16  S   UNL     1      -5.447   0.595  -2.726  0.00  0.00    +0.019 S 
BRANCH  14  17
ATOM     17  C   UNL     1      -6.572  -2.470  -4.570  0.00  0.00    +0.262 C 
ATOM     18  O   UNL     1      -6.516  -3.651  -4.287  0.00  0.00    -0.269 OA
ATOM     19  N   UNL     1      -7.124  -2.082  -5.736  0.00  0.00    -0.324 N 
ATOM     20  H   UNL     1      -7.169  -1.139  -5.962  0.00  0.00    +0.145 HD
ATOM     21  H   UNL     1      -7.476  -2.745  -6.351  0.00  0.00    +0.145 HD
ENDBRANCH  14  17
BRANCH  13  22
ATOM     22  N   UNL     1      -5.355  -3.179  -2.019  0.00  0.00    -0.355 N 
ATOM     23  H   UNL     1      -4.947  -3.391  -1.165  0.00  0.00    +0.142 HD
ATOM     24  H   UNL     1      -5.688  -3.890  -2.588  0.00  0.00    +0.142 HD
ENDBRANCH  13  22
ENDBRANCH   2  12
BRANCH   1  25
ATOM     25  C   UNL     1      -3.345   0.418   1.514  0.00  0.00    +0.197 C 
BRANCH  25  30
ATOM     26  C   UNL     1       1.817  -2.150   1.120  0.00  0.00    +0.044 C 
ATOM     27  C   UNL     1       0.470  -1.480   1.222  0.00  0.00    -0.050 A 
ATOM     28  C   UNL     1      -0.383  -1.799   2.263  0.00  0.00    +0.004 A 
ATOM     29  C   UNL     1      -1.617  -1.185   2.357  0.00  0.00    +0.006 A 
ATOM     30  C   UNL     1      -1.999  -0.252   1.411  0.00  0.00    -0.018 A 
ATOM     31  C   UNL     1      -1.149   0.063   0.368  0.00  0.00    +0.006 A 
ATOM     32  C   UNL     1       0.088  -0.548   0.276  0.00  0.00    +0.004 A 
ENDBRANCH  25  30
BRANCH  25  33
ATOM     33  C   UNL     1      -3.164   1.842   1.974  0.00  0.00    +0.239 C 
ATOM     34  O   UNL     1      -2.732   2.676   1.208  0.00  0.00    -0.273 OA
ATOM     35  N   UNL     1      -3.483   2.188   3.237  0.00  0.00    -0.311 N 
ATOM     36  H   UNL     1      -3.828   1.520   3.850  0.00  0.00    +0.149 HD
BRANCH  35  37
ATOM     37  C   UNL     1      -3.307   3.572   3.684  0.00  0.00    +0.135 C 
BRANCH  37  38
ATOM     38  C   UNL     1      -3.739   3.694   5.147  0.00  0.00    +0.135 C 
ATOM     39  C   UNL     1      -3.557   5.147   5.627  0.00  0.00    +0.035 C 
ATOM     40  C   UNL     1      -4.975   5.577   6.078  0.00  0.00    +0.031 C 
ATOM     41  C   UNL     1      -5.667   4.212   6.321  0.00  0.00    +0.160 C 
ATOM     42  O   UNL     1      -5.134   3.373   5.273  0.00  0.00    -0.375 OA
ENDBRANCH  37  38
ENDBRANCH  35  37
ENDBRANCH  25  33
ENDBRANCH   1  25
TORSDOF 9
