REMARK  Name = ZINC06244889
REMARK  10 active torsions:
REMARK  status: ('A' for Active; 'I' for Inactive)
REMARK    1  A    between atoms: C_1  and  C_2
REMARK    2  A    between atoms: C_5  and  C_40
REMARK    3  A    between atoms: C_9  and  C_14
REMARK    4  A    between atoms: C_14  and  C_16
REMARK    5  A    between atoms: C_14  and  N_72
REMARK    6  A    between atoms: N_20  and  C_21
REMARK    7  A    between atoms: C_27  and  C_28
REMARK    8  A    between atoms: C_27  and  N_72
REMARK    9  A    between atoms: C_34  and  C_35
REMARK   10  A    between atoms: C_34  and  N_72
REMARK                            x       y       z     vdW  Elec       q    Type
REMARK                         _______ _______ _______ _____ _____    ______ ____
ROOT
ATOM      1  C   UNL     1      -0.191  -1.806  -1.790  0.00  0.00    +0.040 C 
ENDROOT
BRANCH   1  10
ATOM      2  C   UNL     1      -4.011  -3.430  -4.934  0.00  0.00    +0.044 C 
ATOM      3  C   UNL     1      -2.790  -3.209  -5.790  0.00  0.00    -0.041 A 
ATOM      4  C   UNL     1      -2.844  -3.440  -7.136  0.00  0.00    +0.004 A 
ATOM      5  C   UNL     1      -1.726  -3.239  -7.932  0.00  0.00    +0.005 A 
ATOM      6  C   UNL     1      -0.539  -2.803  -7.382  0.00  0.00    -0.026 A 
ATOM      7  C   UNL     1      -0.460  -2.562  -6.015  0.00  0.00    +0.052 A 
ATOM      8  C   UNL     1      -1.597  -2.766  -5.210  0.00  0.00    +0.002 A 
ATOM      9  C   UNL     1      -1.504  -2.509  -3.772  0.00  0.00    +0.018 A 
ATOM     10  C   UNL     1      -0.321  -2.080  -3.266  0.00  0.00    +0.011 A 
ATOM     11  C   UNL     1       0.788  -1.885  -4.117  0.00  0.00    +0.251 A 
ATOM     12  O   UNL     1       1.840  -1.495  -3.643  0.00  0.00    -0.268 OA
ATOM     13  N   UNL     1       0.714  -2.125  -5.439  0.00  0.00    -0.322 N 
ATOM     14  H   UNL     1       1.496  -1.984  -5.995  0.00  0.00    +0.169 HD
ATOM     15  C   UNL     1       0.667  -2.588  -8.260  0.00  0.00    +0.046 C 
ENDBRANCH   1  10
BRANCH   1  16
ATOM     16  C   UNL     1       0.118  -0.347  -1.575  0.00  0.00    +0.143 A 
ATOM     17  N   UNL     1       1.174   0.301  -2.004  0.00  0.00    -0.115 NA
ATOM     18  N   UNL     1       1.071   1.527  -1.620  0.00  0.00    -0.023 NA
ATOM     19  N   UNL     1      -0.019   1.676  -0.952  0.00  0.00    -0.044 NA
ATOM     20  N   UNL     1      -0.634   0.543  -0.902  0.00  0.00    -0.227 N 
BRANCH  20  21
ATOM     21  C   UNL     1      -1.913   0.276  -0.238  0.00  0.00    +0.111 C 
ATOM     22  C   UNL     1      -3.036   0.998  -0.985  0.00  0.00    +0.027 C 
ATOM     23  C   UNL     1      -4.371   0.719  -0.291  0.00  0.00    +0.002 C 
ATOM     24  C   UNL     1      -4.311   1.224   1.152  0.00  0.00    +0.000 C 
ATOM     25  C   UNL     1      -3.188   0.503   1.899  0.00  0.00    +0.002 C 
ATOM     26  C   UNL     1      -1.853   0.782   1.205  0.00  0.00    +0.027 C 
ENDBRANCH  20  21
ENDBRANCH   1  16
BRANCH   1  27
ATOM     27  N   UNL     1       0.920  -2.617  -1.248  0.00  0.00    +0.397 N 
ATOM     28  H   UNL     1       1.779  -2.393  -1.764  0.00  0.00    -0.079 HD
BRANCH  27  29
ATOM     29  C   UNL     1       1.123  -2.304   0.182  0.00  0.00    -0.039 C 
BRANCH  29  30
ATOM     30  C   UNL     1       2.130  -1.188   0.290  0.00  0.00    -0.046 A 
ATOM     31  C   UNL     1       3.486  -1.453   0.174  0.00  0.00    +0.005 A 
ATOM     32  C   UNL     1       4.377  -0.396   0.281  0.00  0.00    +0.020 A 
ATOM     33  C   UNL     1       3.886   0.878   0.498  0.00  0.00    +0.111 A 
ATOM     34  N   UNL     1       2.590   1.093   0.603  0.00  0.00    -0.263 NA
ATOM     35  C   UNL     1       1.714   0.112   0.507  0.00  0.00    +0.112 A 
ENDBRANCH  29  30
ENDBRANCH  27  29
BRANCH  27  36
ATOM     36  C   UNL     1       0.622  -4.055  -1.413  0.00  0.00    -0.001 C 
BRANCH  36  37
ATOM     37  C   UNL     1       1.018  -4.472  -2.806  0.00  0.00    +0.089 A 
ATOM     38  C   UNL     1       2.256  -4.822  -3.201  0.00  0.00    +0.042 A 
ATOM     39  C   UNL     1       2.173  -5.135  -4.577  0.00  0.00    +0.041 A 
ATOM     40  C   UNL     1       0.890  -4.958  -4.941  0.00  0.00    +0.195 A 
ATOM     41  O   UNL     1       0.194  -4.562  -3.863  0.00  0.00    -0.470 OA
ENDBRANCH  36  37
ENDBRANCH  27  36
ENDBRANCH   1  27
TORSDOF 8
