REMARK  Name = ZINC39984044
REMARK  7 active torsions:
REMARK  status: ('A' for Active; 'I' for Inactive)
REMARK    1  A    between atoms: C_1  and  C_2
REMARK    2  A    between atoms: C_5  and  S_8
REMARK    3  A    between atoms: S_8  and  N_11
REMARK    4  A    between atoms: C_13  and  N_23
REMARK    5  A    between atoms: N_23  and  C_24
REMARK    6  A    between atoms: C_29  and  C_30
REMARK    7  A    between atoms: C_30  and  O_32
REMARK                            x       y       z     vdW  Elec       q    Type
REMARK                         _______ _______ _______ _____ _____    ______ ____
ROOT
ATOM      1  N   UNL     1       1.742  -4.881  -0.143  0.00  0.00    -0.110 NA
ATOM      2  C   UNL     1       1.974  -6.160  -0.101  0.00  0.00    +0.192 C 
ATOM      3  C   UNL     1       3.392  -6.682  -0.050  0.00  0.00    +0.237 C 
ATOM      4  N   UNL     1       3.586  -8.140  -0.004  0.00  0.00    -0.359 N 
ATOM      5  C   UNL     1       2.533  -8.908  -0.009  0.00  0.00    +0.063 A 
ATOM      6  C   UNL     1       2.673 -10.371   0.035  0.00  0.00    +0.027 A 
ATOM      7  C   UNL     1       1.558 -11.135   0.028  0.00  0.00    +0.002 A 
ATOM      8  C   UNL     1       0.274 -10.567  -0.021  0.00  0.00    +0.002 A 
ATOM      9  C   UNL     1       0.067  -9.233  -0.064  0.00  0.00    +0.030 A 
ATOM     10  C   UNL     1       1.165  -8.336  -0.061  0.00  0.00    +0.089 A 
ATOM     11  N   UNL     1       0.957  -7.037  -0.098  0.00  0.00    -0.226 NA
ATOM     12  H   UNL     1       4.478  -8.520   0.030  0.00  0.00    +0.162 HD
ENDROOT
BRANCH   1  13
ATOM     13  S   UNL     1       0.184  -4.323  -0.192  0.00  0.00    +0.100 S 
ATOM     14  O   UNL     1      -0.411  -4.669   1.051  0.00  0.00    -0.146 OA
ATOM     15  O   UNL     1      -0.357  -4.740  -1.438  0.00  0.00    -0.146 OA
BRANCH  13  20
ATOM     16  C   UNL     1       0.450   1.703  -0.359  0.00  0.00    +0.044 C 
ATOM     17  C   UNL     1       0.383   0.198  -0.317  0.00  0.00    -0.050 A 
ATOM     18  C   UNL     1       0.380  -0.527  -1.494  0.00  0.00    +0.005 A 
ATOM     19  C   UNL     1       0.319  -1.907  -1.456  0.00  0.00    +0.029 A 
ATOM     20  C   UNL     1       0.263  -2.563  -0.241  0.00  0.00    +0.113 A 
ATOM     21  C   UNL     1       0.267  -1.839   0.936  0.00  0.00    +0.029 A 
ATOM     22  C   UNL     1       0.332  -0.459   0.898  0.00  0.00    +0.005 A 
ENDBRANCH  13  20
ENDBRANCH   1  13
BRANCH   3  23
ATOM     23  N   UNL     1       4.037  -6.108   1.134  0.00  0.00    -0.317 N 
ATOM     24  H   UNL     1       3.558  -6.071   1.977  0.00  0.00    +0.148 HD
BRANCH  23  25
ATOM     25  C   UNL     1       5.333  -5.618   1.050  0.00  0.00    +0.044 A 
ATOM     26  C   UNL     1       5.978  -5.560  -0.179  0.00  0.00    +0.043 A 
ATOM     27  C   UNL     1       7.268  -5.072  -0.260  0.00  0.00    +0.043 A 
ATOM     28  C   UNL     1       7.927  -4.637   0.881  0.00  0.00    +0.021 A 
ATOM     29  C   UNL     1       7.303  -4.687   2.107  0.00  0.00    +0.018 A 
ATOM     30  C   UNL     1       5.996  -5.173   2.205  0.00  0.00    +0.080 A 
ATOM     31 CL   UNL     1       8.069  -5.003  -1.799  0.00  0.00    -0.083 Cl
BRANCH  30  32
ATOM     32  C   UNL     1       5.321  -5.225   3.512  0.00  0.00    +0.339 C 
ATOM     33  O   UNL     1       4.228  -5.746   3.612  0.00  0.00    -0.245 OA
BRANCH  32  34
ATOM     34  O   UNL     1       5.916  -4.693   4.599  0.00  0.00    -0.477 OA
ATOM     35  H   UNL     1       5.396  -4.775   5.411  0.00  0.00    +0.295 HD
ENDBRANCH  32  34
ENDBRANCH  30  32
ENDBRANCH  23  25
ENDBRANCH   3  23
TORSDOF 6
