REMARK  Name = ZINC08303837
REMARK  8 active torsions:
REMARK  status: ('A' for Active; 'I' for Inactive)
REMARK    1  A    between atoms: C_1  and  C_2
REMARK    2  A    between atoms: C_2  and  C_3
REMARK    3  A    between atoms: C_3  and  C_4
REMARK    4  A    between atoms: C_4  and  C_5
REMARK    5  A    between atoms: C_5  and  N_6
REMARK    6  A    between atoms: C_15  and  C_17
REMARK    7  A    between atoms: N_19  and  N_20
REMARK    8  A    between atoms: C_21  and  C_23
REMARK                            x       y       z     vdW  Elec       q    Type
REMARK                         _______ _______ _______ _____ _____    ______ ____
ROOT
ATOM      1  C   UNL     1      -0.280  -1.891   4.497  0.00  0.00    +0.281 C 
ATOM      2  O   UNL     1       0.238  -2.390   5.477  0.00  0.00    -0.267 OA
ATOM      3  N   UNL     1      -1.280  -2.534   3.862  0.00  0.00    -0.229 N 
ATOM      4  H   UNL     1      -1.694  -2.135   3.080  0.00  0.00    +0.173 HD
ENDROOT
BRANCH   1  14
ATOM      5  N   UNL     1      -0.020   1.094   2.454  0.00  0.00    -0.228 N 
ATOM      6  C   UNL     1       0.965   1.859   2.966  0.00  0.00    +0.275 A 
ATOM      7  O   UNL     1       1.256   2.925   2.455  0.00  0.00    -0.266 OA
ATOM      8  C   UNL     1       1.676   1.379   4.160  0.00  0.00    +0.050 A 
ATOM      9  C   UNL     1       2.703   2.095   4.767  0.00  0.00    +0.014 A 
ATOM     10  C   UNL     1       3.323   1.572   5.881  0.00  0.00    +0.001 A 
ATOM     11  C   UNL     1       2.934   0.344   6.400  0.00  0.00    +0.001 A 
ATOM     12  C   UNL     1       1.918  -0.381   5.813  0.00  0.00    +0.011 A 
ATOM     13  C   UNL     1       1.279   0.129   4.688  0.00  0.00    +0.020 A 
ATOM     14  C   UNL     1       0.187  -0.581   4.001  0.00  0.00    +0.155 A 
ATOM     15  N   UNL     1      -0.366  -0.036   2.945  0.00  0.00    -0.163 NA
BRANCH   5  16
ATOM     16  C   UNL     1      -0.729   1.579   1.267  0.00  0.00    +0.147 C 
BRANCH  16  17
ATOM     17  C   UNL     1      -0.013   1.086   0.008  0.00  0.00    +0.023 C 
BRANCH  17  18
ATOM     18  C   UNL     1      -0.753   1.593  -1.232  0.00  0.00    +0.002 C 
BRANCH  18  20
ATOM     19  C   UNL     1      -0.777   1.606  -3.730  0.00  0.00    +0.004 C 
ATOM     20  C   UNL     1      -0.037   1.099  -2.490  0.00  0.00    -0.003 C 
ENDBRANCH  18  20
ENDBRANCH  17  18
ENDBRANCH  16  17
ENDBRANCH   5  16
ENDBRANCH   1  14
BRANCH   3  21
ATOM     21  N   UNL     1      -1.723  -3.777   4.332  0.00  0.00    -0.229 N 
ATOM     22  C   UNL     1      -2.724  -4.419   3.698  0.00  0.00    +0.276 C 
ATOM     23  O   UNL     1      -3.242  -3.920   2.717  0.00  0.00    -0.267 OA
ATOM     24  H   UNL     1      -1.310  -4.175   5.114  0.00  0.00    +0.173 HD
BRANCH  22  25
ATOM     25  C   UNL     1      -3.189  -5.724   4.191  0.00  0.00    +0.104 A 
ATOM     26  C   UNL     1      -4.189  -6.463   3.643  0.00  0.00    +0.041 A 
ATOM     27  C   UNL     1      -4.321  -7.646   4.409  0.00  0.00    +0.000 A 
ATOM     28  C   UNL     1      -5.166  -8.760   4.321  0.00  0.00    +0.010 A 
ATOM     29  C   UNL     1      -5.057  -9.768   5.234  0.00  0.00    +0.001 A 
ATOM     30  C   UNL     1      -4.115  -9.701   6.253  0.00  0.00    +0.002 A 
ATOM     31  C   UNL     1      -3.274  -8.617   6.361  0.00  0.00    +0.026 A 
ATOM     32  C   UNL     1      -3.365  -7.576   5.441  0.00  0.00    +0.047 A 
ATOM     33  N   UNL     1      -2.683  -6.392   5.290  0.00  0.00    -0.351 N 
ATOM     34  H   UNL     1      -1.964  -6.077   5.860  0.00  0.00    +0.166 HD
ENDBRANCH  22  25
ENDBRANCH   3  21
TORSDOF 7
