REMARK  Name = ZINC03331483
REMARK  5 active torsions:
REMARK  status: ('A' for Active; 'I' for Inactive)
REMARK    1  A    between atoms: C_1  and  C_2
REMARK    2  A    between atoms: C_5  and  N_9
REMARK    3  A    between atoms: C_10  and  C_12
REMARK    4  A    between atoms: C_12  and  N_13
REMARK    5  A    between atoms: C_19  and  C_22
REMARK                            x       y       z     vdW  Elec       q    Type
REMARK                         _______ _______ _______ _____ _____    ______ ____
ROOT
ATOM      1  C   UNL     1       6.036  -0.782  -0.567  0.00  0.00    +0.214 C 
ENDROOT
BRANCH   1   2
ATOM      2  N   UNL     1       7.095   0.122  -1.023  0.00  0.00    -0.215 N 
ATOM      3  C   UNL     1       7.889   0.836  -0.198  0.00  0.00    +0.247 C 
ATOM      4  O   UNL     1       7.864   0.850   1.014  0.00  0.00    -0.273 OA
ATOM      5  C   UNL     1       8.817   1.612  -1.104  0.00  0.00    +0.113 C 
ATOM      6  C   UNL     1      10.266   1.215  -0.846  0.00  0.00    +0.035 C 
ATOM      7  C   UNL     1      11.187   1.991  -1.791  0.00  0.00    +0.006 C 
ATOM      8  C   UNL     1      11.003   3.493  -1.562  0.00  0.00    -0.014 C 
ATOM      9  C   UNL     1       9.551   3.879  -1.848  0.00  0.00    +0.006 C 
ATOM     10  C   UNL     1       8.623   3.111  -0.903  0.00  0.00    +0.035 C 
ATOM     11  C   UNL     1      11.932   4.269  -2.498  0.00  0.00    +0.007 C 
ATOM     12  N   UNL     1       8.408   1.216  -2.458  0.00  0.00    -0.285 N 
ATOM     13  C   UNL     1       7.397   0.339  -2.308  0.00  0.00    +0.310 C 
ATOM     14  O   UNL     1       6.823  -0.195  -3.237  0.00  0.00    -0.252 OA
ATOM     15  H   UNL     1       8.792   1.524  -3.294  0.00  0.00    +0.151 HD
ENDBRANCH   1   2
BRANCH   1  17
ATOM     16  N   UNL     1       3.623  -0.651  -0.036  0.00  0.00    -0.282 N 
ATOM     17  C   UNL     1       4.742  -0.019  -0.443  0.00  0.00    +0.235 C 
ATOM     18  O   UNL     1       4.708   1.164  -0.709  0.00  0.00    -0.274 OA
ATOM     19  H   UNL     1       3.665  -1.578   0.246  0.00  0.00    +0.155 HD
BRANCH  16  24
ATOM     20  C   UNL     1      -1.330   2.117   0.023  0.00  0.00    +0.044 C 
ATOM     21  C   UNL     1      -0.017   1.378   0.009  0.00  0.00    -0.048 A 
ATOM     22  C   UNL     1       0.774   1.354   1.143  0.00  0.00    +0.020 A 
ATOM     23  C   UNL     1       1.981   0.682   1.131  0.00  0.00    +0.040 A 
ATOM     24  C   UNL     1       2.401   0.030  -0.021  0.00  0.00    +0.062 A 
ATOM     25  C   UNL     1       1.604   0.056  -1.159  0.00  0.00    +0.040 A 
ATOM     26  C   UNL     1       0.397   0.730  -1.140  0.00  0.00    +0.020 A 
ATOM     27 BR   UNL     1       2.169  -0.830  -2.731  0.00  0.00    -0.048 Br
ATOM     28 BR   UNL     1       3.061   0.650   2.683  0.00  0.00    -0.048 Br
ENDBRANCH  16  24
ENDBRANCH   1  17
TORSDOF 3
