REMARK  Name = ZINC39633316
REMARK  3 active torsions:
REMARK  status: ('A' for Active; 'I' for Inactive)
REMARK    1  A    between atoms: C_3  and  C_9
REMARK    2  A    between atoms: C_13  and  C_22
REMARK    3  A    between atoms: N_24  and  C_25
REMARK                            x       y       z     vdW  Elec       q    Type
REMARK                         _______ _______ _______ _____ _____    ______ ____
ROOT
ATOM      1  C   UNL     1       3.948   2.220   0.074  0.00  0.00    +0.248 C 
ATOM      2  O   UNL     1       5.052   1.720   0.174  0.00  0.00    -0.270 OA
ATOM      3  N   UNL     1       3.823   3.556  -0.055  0.00  0.00    -0.296 N 
ATOM      4  C   UNL     1       2.573   4.352  -0.084  0.00  0.00    +0.121 C 
ATOM      5  C   UNL     1       2.904   5.626   0.727  0.00  0.00    +0.100 C 
ATOM      6  C   UNL     1       4.434   5.758   0.644  0.00  0.00    -0.004 C 
ATOM      7  C   UNL     1       4.904   4.561  -0.195  0.00  0.00    +0.115 C 
ATOM      8  C   UNL     1       5.046   5.689   2.039  0.00  0.00    -0.010 C 
ATOM      9  C   UNL     1       6.562   5.880   1.936  0.00  0.00    -0.082 C 
ATOM     10  N   UNL     1       6.853   7.178   1.316  0.00  0.00    +0.379 N 
ATOM     11  C   UNL     1       6.340   7.202  -0.060  0.00  0.00    -0.082 C 
ATOM     12  C   UNL     1       4.815   7.067  -0.041  0.00  0.00    -0.010 C 
ATOM     13  H   UNL     1       6.411   7.911   1.850  0.00  0.00    -0.086 HD
ATOM     14  H   UNL     1       7.850   7.328   1.304  0.00  0.00    -0.086 HD
ENDROOT
BRANCH   1  17
ATOM     15  C   UNL     1       0.519   0.885  -0.670  0.00  0.00    +0.021 A 
ATOM     16  C   UNL     1       1.639   1.688  -0.693  0.00  0.00    +0.016 A 
ATOM     17  C   UNL     1       2.745   1.364   0.096  0.00  0.00    +0.055 A 
ATOM     18  C   UNL     1       2.708   0.226   0.906  0.00  0.00    +0.054 A 
ATOM     19  C   UNL     1       1.580  -0.570   0.920  0.00  0.00    +0.040 A 
ATOM     20  C   UNL     1       0.488  -0.242   0.135  0.00  0.00    +0.042 A 
ATOM     21 CL   UNL     1      -0.927  -1.248   0.159  0.00  0.00    -0.083 Cl
ATOM     22 CL   UNL     1       4.077  -0.187   1.890  0.00  0.00    -0.083 Cl
ENDBRANCH   1  17
BRANCH   5  23
ATOM     23  C   UNL     1       2.465   5.465   2.159  0.00  0.00    +0.218 C 
ATOM     24  O   UNL     1       2.453   4.364   2.670  0.00  0.00    -0.275 OA
ATOM     25  N   UNL     1       2.087   6.543   2.874  0.00  0.00    -0.312 N 
ATOM     26  H   UNL     1       2.096   7.423   2.466  0.00  0.00    +0.149 HD
BRANCH  25  27
ATOM     27  C   UNL     1       1.661   6.386   4.267  0.00  0.00    +0.073 C 
ATOM     28  C   UNL     1       0.182   5.947   4.290  0.00  0.00    +0.022 C 
ATOM     29  C   UNL     1      -0.104   5.305   5.621  0.00  0.00    +0.002 C 
ATOM     30  C   UNL     1      -0.681   6.302   6.644  0.00  0.00    +0.000 C 
ATOM     31  C   UNL     1       0.024   7.671   6.607  0.00  0.00    +0.000 C 
ATOM     32  C   UNL     1       1.517   7.547   6.467  0.00  0.00    +0.002 C 
ATOM     33  C   UNL     1       1.878   7.642   4.970  0.00  0.00    +0.022 C 
ENDBRANCH  25  27
ENDBRANCH   5  23
TORSDOF 3
