REMARK  Name = ZINC01901363
REMARK  11 active torsions:
REMARK  status: ('A' for Active; 'I' for Inactive)
REMARK    1  A    between atoms: C_1  and  C_2
REMARK    2  A    between atoms: C_2  and  C_3
REMARK    3  A    between atoms: C_2  and  C_4
REMARK    4  A    between atoms: N_14  and  C_31
REMARK    5  A    between atoms: C_17  and  S_20
REMARK    6  A    between atoms: S_20  and  C_21
REMARK    7  A    between atoms: C_21  and  C_22
REMARK    8  A    between atoms: N_24  and  C_25
REMARK    9  A    between atoms: C_25  and  C_26
REMARK   10  A    between atoms: C_31  and  C_32
REMARK   11  A    between atoms: C_32  and  C_33
REMARK                            x       y       z     vdW  Elec       q    Type
REMARK                         _______ _______ _______ _____ _____    ______ ____
ROOT
ATOM      1  C   UNL     1       0.718  -0.497  -1.257  0.00  0.00    +0.126 C 
ATOM      2  C   UNL     1       0.731  -2.030  -1.266  0.00  0.00    +0.068 C 
ATOM      3  C   UNL     1       1.657  -2.483  -2.386  0.00  0.00    -0.018 A 
ATOM      4  C   UNL     1       2.546  -1.619  -2.922  0.00  0.00    +0.021 A 
ATOM      5  S   UNL     1       3.388  -2.557  -4.160  0.00  0.00    -0.072 S 
ATOM      6  C   UNL     1       2.603  -4.024  -3.981  0.00  0.00    +0.102 A 
ATOM      7  C   UNL     1       1.676  -3.824  -2.963  0.00  0.00    +0.074 A 
ATOM      8  C   UNL     1       0.836  -4.988  -2.600  0.00  0.00    +0.264 A 
ATOM      9  O   UNL     1       0.002  -4.889  -1.718  0.00  0.00    -0.267 OA
ATOM     10  N   UNL     1       0.995  -6.154  -3.248  0.00  0.00    -0.276 N 
ATOM     11  C   UNL     1       1.935  -6.296  -4.255  0.00  0.00    +0.240 A 
ATOM     12  N   UNL     1       2.731  -5.241  -4.616  0.00  0.00    -0.249 N 
ATOM     13  C   UNL     1       3.556  -5.664  -5.625  0.00  0.00    +0.198 A 
ATOM     14  N   UNL     1       3.282  -6.921  -5.874  0.00  0.00    -0.120 NA
ATOM     15  N   UNL     1       2.257  -7.322  -5.008  0.00  0.00    -0.109 NA
ATOM     16  C   UNL     1       2.737  -0.190  -2.519  0.00  0.00    +0.203 C 
ATOM     17  O   UNL     1       2.057   0.004  -1.268  0.00  0.00    -0.371 OA
ENDROOT
BRANCH   1  19
ATOM     18  C   UNL     1      -0.019   1.526   0.010  0.00  0.00    +0.010 C 
ATOM     19  C   UNL     1       0.002  -0.004   0.002  0.00  0.00    +0.012 C 
ATOM     20  C   UNL     1      -1.433  -0.534   0.013  0.00  0.00    +0.010 C 
ENDBRANCH   1  19
BRANCH  13  21
ATOM     21  S   UNL     1       4.772  -4.688  -6.445  0.00  0.00    -0.076 S 
BRANCH  21  22
ATOM     22  C   UNL     1       5.503  -5.824  -7.656  0.00  0.00    +0.173 C 
BRANCH  22  23
ATOM     23  C   UNL     1       6.573  -5.106  -8.437  0.00  0.00    +0.224 C 
ATOM     24  O   UNL     1       6.819  -3.942  -8.199  0.00  0.00    -0.275 OA
ATOM     25  N   UNL     1       7.257  -5.756  -9.399  0.00  0.00    -0.308 N 
ATOM     26  H   UNL     1       7.061  -6.687  -9.588  0.00  0.00    +0.149 HD
BRANCH  25  27
ATOM     27  C   UNL     1       8.298  -5.058 -10.157  0.00  0.00    +0.178 C 
BRANCH  27  28
ATOM     28  C   UNL     1       8.905  -6.002 -11.163  0.00  0.00    +0.122 A 
ATOM     29  C   UNL     1       8.482  -6.183 -12.427  0.00  0.00    +0.046 A 
ATOM     30  C   UNL     1       9.331  -7.152 -13.009  0.00  0.00    +0.041 A 
ATOM     31  C   UNL     1      10.223  -7.504 -12.066  0.00  0.00    +0.195 A 
ATOM     32  O   UNL     1       9.964  -6.801 -10.952  0.00  0.00    -0.466 OA
ENDBRANCH  27  28
ENDBRANCH  25  27
ENDBRANCH  22  23
ENDBRANCH  21  22
ENDBRANCH  13  21
BRANCH  10  33
ATOM     33  C   UNL     1       0.158  -7.299  -2.882  0.00  0.00    +0.133 C 
BRANCH  33  34
ATOM     34  C   UNL     1      -1.116  -7.291  -3.729  0.00  0.00    +0.057 C 
BRANCH  34  35
ATOM     35  C   UNL     1      -1.977  -8.469  -3.352  0.00  0.00    -0.046 A 
ATOM     36  C   UNL     1      -1.821  -9.676  -4.006  0.00  0.00    +0.004 A 
ATOM     37  C   UNL     1      -2.611 -10.757  -3.660  0.00  0.00    +0.000 A 
ATOM     38  C   UNL     1      -3.557 -10.630  -2.660  0.00  0.00    +0.000 A 
ATOM     39  C   UNL     1      -3.713  -9.422  -2.006  0.00  0.00    +0.000 A 
ATOM     40  C   UNL     1      -2.920  -8.343  -2.348  0.00  0.00    +0.004 A 
ENDBRANCH  34  35
ENDBRANCH  33  34
ENDBRANCH  10  33
TORSDOF 9
