REMARK  Name = ZINC63204733
REMARK  7 active torsions:
REMARK  status: ('A' for Active; 'I' for Inactive)
REMARK    1  A    between atoms: C_1  and  C_2
REMARK    2  A    between atoms: C_2  and  C_3
REMARK    3  A    between atoms: C_10  and  C_12
REMARK    4  A    between atoms: C_12  and  C_13
REMARK    5  A    between atoms: C_13  and  C_14
REMARK    6  A    between atoms: C_17  and  C_29
REMARK    7  A    between atoms: C_22  and  C_24
REMARK                            x       y       z     vdW  Elec       q    Type
REMARK                         _______ _______ _______ _____ _____    ______ ____
ROOT
ATOM      1  C   UNL     1      -2.925  -5.796  -7.318  0.00  0.00    -0.033 C 
ATOM      2  C   UNL     1      -3.495  -4.988  -8.242  0.00  0.00    -0.000 A 
ATOM      3  C   UNL     1      -3.583  -3.529  -8.367  0.00  0.00    +0.013 A 
ATOM      4  C   UNL     1      -4.234  -3.000  -9.428  0.00  0.00    -0.050 A 
ATOM      5  C   UNL     1      -4.827  -3.808 -10.407  0.00  0.00    +0.005 A 
ATOM      6  C   UNL     1      -4.788  -5.157 -10.361  0.00  0.00    +0.026 A 
ATOM      7  C   UNL     1      -4.128  -5.820  -9.290  0.00  0.00    +0.043 A 
ATOM      8  N   UNL     1      -3.957  -7.093  -9.024  0.00  0.00    -0.373 N 
ATOM      9  C   UNL     1      -3.190  -7.212  -7.779  0.00  0.00    +0.143 C 
ATOM     10  C   UNL     1      -4.326  -1.501  -9.560  0.00  0.00    +0.044 C 
ATOM     11  H   UNL     1      -4.280  -7.832  -9.562  0.00  0.00    +0.161 HD
ENDROOT
BRANCH   9  12
ATOM     12  C   UNL     1      -3.996  -7.953  -6.744  0.00  0.00    +0.016 A 
ATOM     13  C   UNL     1      -3.574  -8.831  -5.802  0.00  0.00    +0.013 A 
ATOM     14  C   UNL     1      -4.503  -9.396  -4.948  0.00  0.00    +0.008 A 
ATOM     15  C   UNL     1      -5.808  -9.055  -5.078  0.00  0.00    +0.045 A 
ATOM     16  S   UNL     1      -5.753  -7.898  -6.436  0.00  0.00    -0.099 S 
ENDBRANCH   9  12
BRANCH   1  17
ATOM     17  C   UNL     1      -2.174  -5.371  -6.083  0.00  0.00    +0.043 C 
BRANCH  17  18
ATOM     18  C   UNL     1      -2.146  -3.843  -6.004  0.00  0.00    +0.100 C 
BRANCH  18  25
ATOM     19  C   UNL     1       0.718  -0.497  -1.257  0.00  0.00    +0.153 C 
ATOM     20  N   UNL     1       0.677  -1.974  -1.356  0.00  0.00    -0.253 N 
ATOM     21  N   UNL     1       0.011  -2.470  -2.455  0.00  0.00    -0.163 NA
ATOM     22  C   UNL     1      -0.547  -1.715  -3.349  0.00  0.00    +0.179 C 
ATOM     23  S   UNL     1      -0.219  -0.054  -2.778  0.00  0.00    -0.065 S 
ATOM     24  N   UNL     1      -1.241  -2.108  -4.490  0.00  0.00    -0.264 N 
ATOM     25  C   UNL     1      -1.394  -3.418  -4.768  0.00  0.00    +0.219 C 
ATOM     26  O   UNL     1      -0.928  -4.255  -4.024  0.00  0.00    -0.275 OA
ATOM     27  H   UNL     1       1.091  -2.551  -0.695  0.00  0.00    +0.169 HD
ATOM     28  H   UNL     1      -1.614  -1.439  -5.085  0.00  0.00    +0.157 HD
BRANCH  19  30
ATOM     29  C   UNL     1      -0.019   1.526   0.010  0.00  0.00    +0.006 C 
ATOM     30  C   UNL     1       0.002  -0.004   0.002  0.00  0.00    +0.032 C 
ENDBRANCH  19  30
ENDBRANCH  18  25
ENDBRANCH  17  18
ENDBRANCH   1  17
TORSDOF 5
