REMARK  Name = ZINC13042113
REMARK  15 active torsions:
REMARK  status: ('A' for Active; 'I' for Inactive)
REMARK    1  A    between atoms: C_1  and  C_2
REMARK    2  A    between atoms: C_2  and  C_3
REMARK    3  A    between atoms: C_3  and  C_4
REMARK    4  A    between atoms: C_4  and  N_5
REMARK    5  A    between atoms: C_6  and  N_37
REMARK    6  A    between atoms: C_7  and  N_14
REMARK    7  A    between atoms: N_14  and  C_15
REMARK    8  A    between atoms: C_15  and  C_16
REMARK    9  A    between atoms: C_16  and  C_17
REMARK   10  A    between atoms: C_17  and  C_18
REMARK   11  A    between atoms: C_17  and  C_19
REMARK   12  A    between atoms: C_20  and  C_22
REMARK   13  A    between atoms: C_22  and  N_23
REMARK   14  A    between atoms: C_26  and  C_30
REMARK   15  A    between atoms: C_26  and  C_31
REMARK                            x       y       z     vdW  Elec       q    Type
REMARK                         _______ _______ _______ _____ _____    ______ ____
ROOT
ATOM      1  N   UNL     1       0.085  -1.778   4.743  0.00  0.00    -0.263 N 
ATOM      2  C   UNL     1      -0.988  -2.466   4.300  0.00  0.00    +0.238 C 
ATOM      3  O   UNL     1      -1.616  -2.061   3.344  0.00  0.00    -0.274 OA
ENDROOT
BRANCH   1   6
ATOM      4  N   UNL     1       1.880   0.842   2.895  0.00  0.00    -0.280 N 
ATOM      5  C   UNL     1       1.583  -0.384   3.444  0.00  0.00    +0.127 A 
ATOM      6  C   UNL     1       0.415  -0.535   4.163  0.00  0.00    +0.140 A 
ATOM      7  C   UNL     1      -0.445   0.571   4.303  0.00  0.00    +0.277 A 
ATOM      8  O   UNL     1      -1.486   0.464   4.929  0.00  0.00    -0.266 OA
ATOM      9  N   UNL     1      -0.109   1.748   3.740  0.00  0.00    -0.273 N 
ATOM     10  H   UNL     1      -0.719   2.535   3.839  0.00  0.00    +0.173 HD
ATOM     11  C   UNL     1       1.036   1.878   3.047  0.00  0.00    +0.331 A 
ATOM     12  O   UNL     1       1.314   2.953   2.550  0.00  0.00    -0.246 OA
BRANCH   5  13
ATOM     13  N   UNL     1       2.442  -1.444   3.283  0.00  0.00    -0.343 N 
ATOM     14  H   UNL     1       3.241  -1.344   2.742  0.00  0.00    +0.144 HD
ATOM     15  H   UNL     1       2.250  -2.294   3.711  0.00  0.00    +0.144 HD
ENDBRANCH   5  13
BRANCH   4  16
ATOM     16  C   UNL     1       3.119   1.018   2.134  0.00  0.00    +0.128 C 
BRANCH  16  17
ATOM     17  C   UNL     1       4.239   1.461   3.079  0.00  0.00    +0.021 C 
BRANCH  17  19
ATOM     18  C   UNL     1       6.652   2.088   3.229  0.00  0.00    +0.004 C 
ATOM     19  C   UNL     1       5.533   1.645   2.284  0.00  0.00    -0.002 C 
ENDBRANCH  17  19
ENDBRANCH  16  17
ENDBRANCH   4  16
ENDBRANCH   1   6
BRANCH   1  20
ATOM     20  C   UNL     1       0.907  -2.322   5.827  0.00  0.00    +0.114 C 
BRANCH  20  21
ATOM     21  C   UNL     1       0.287  -1.947   7.175  0.00  0.00    +0.022 C 
BRANCH  21  22
ATOM     22  C   UNL     1       1.146  -2.515   8.306  0.00  0.00    -0.016 C 
ATOM     23  C   UNL     1       2.519  -1.841   8.292  0.00  0.00    +0.007 C 
ATOM     24  C   UNL     1       0.461  -2.249   9.649  0.00  0.00    +0.007 C 
ENDBRANCH  21  22
ENDBRANCH  20  21
ENDBRANCH   1  20
BRANCH   2  25
ATOM     25  C   UNL     1      -1.406  -3.738   4.992  0.00  0.00    +0.214 C 
BRANCH  25  26
ATOM     26  N   UNL     1      -2.588  -4.290   4.326  0.00  0.00    -0.215 N 
ATOM     27  C   UNL     1      -2.541  -5.163   3.300  0.00  0.00    +0.251 C 
ATOM     28  O   UNL     1      -1.549  -5.621   2.774  0.00  0.00    -0.272 OA
ATOM     29  C   UNL     1      -3.985  -5.453   2.941  0.00  0.00    +0.135 C 
ATOM     30  N   UNL     1      -4.750  -4.632   3.896  0.00  0.00    -0.281 N 
ATOM     31  C   UNL     1      -3.849  -3.995   4.665  0.00  0.00    +0.310 C 
ATOM     32  O   UNL     1      -4.146  -3.233   5.564  0.00  0.00    -0.252 OA
ATOM     33  C   UNL     1      -4.300  -6.937   3.134  0.00  0.00    +0.047 C 
ATOM     34  H   UNL     1      -5.716  -4.567   3.961  0.00  0.00    +0.152 HD
BRANCH  29  35
ATOM     35  C   UNL     1      -4.274  -5.027   1.525  0.00  0.00    -0.016 A 
ATOM     36  C   UNL     1      -3.268  -5.048   0.578  0.00  0.00    +0.006 A 
ATOM     37  C   UNL     1      -3.535  -4.662  -0.723  0.00  0.00    +0.000 A 
ATOM     38  C   UNL     1      -4.806  -4.246  -1.073  0.00  0.00    +0.000 A 
ATOM     39  C   UNL     1      -5.811  -4.220  -0.124  0.00  0.00    +0.000 A 
ATOM     40  C   UNL     1      -5.545  -4.610   1.175  0.00  0.00    +0.006 A 
ENDBRANCH  29  35
ENDBRANCH  25  26
ENDBRANCH   2  25
TORSDOF 11
