REMARK  Name = ZINC42637598
REMARK  10 active torsions:
REMARK  status: ('A' for Active; 'I' for Inactive)
REMARK    1  A    between atoms: C_1  and  C_2
REMARK    2  A    between atoms: C_5  and  N_29
REMARK    3  A    between atoms: C_6  and  N_9
REMARK    4  A    between atoms: C_7  and  C_8
REMARK    5  A    between atoms: C_10  and  C_12
REMARK    6  A    between atoms: C_12  and  C_14
REMARK    7  A    between atoms: C_12  and  N_15
REMARK    8  A    between atoms: N_15  and  C_16
REMARK    9  A    between atoms: C_16  and  C_18
REMARK   10  A    between atoms: C_16  and  C_19
REMARK                            x       y       z     vdW  Elec       q    Type
REMARK                         _______ _______ _______ _____ _____    ______ ____
ROOT
ATOM      1  C   UNL     1       0.184  -4.505   4.483  0.00  0.00    +0.014 C 
ATOM      2  C   UNL     1      -1.307  -4.653   4.791  0.00  0.00    -0.004 C 
ENDROOT
BRANCH   1   4
ATOM      3  N   UNL     1      -0.145  -2.616   2.920  0.00  0.00    -0.285 N 
ATOM      4  C   UNL     1       0.356  -3.849   3.138  0.00  0.00    +0.203 C 
ATOM      5  O   UNL     1       0.946  -4.429   2.251  0.00  0.00    -0.277 OA
ATOM      6  H   UNL     1      -0.683  -2.184   3.602  0.00  0.00    +0.155 HD
BRANCH   3  12
ATOM      7  C   UNL     1      -0.249  -2.609  -1.995  0.00  0.00    +0.044 C 
ATOM      8  C   UNL     1       0.070  -1.934  -0.686  0.00  0.00    -0.046 A 
ATOM      9  C   UNL     1       0.617  -0.664  -0.680  0.00  0.00    +0.006 A 
ATOM     10  C   UNL     1       0.912  -0.041   0.519  0.00  0.00    +0.035 A 
ATOM     11  C   UNL     1       0.660  -0.685   1.714  0.00  0.00    +0.148 A 
ATOM     12  C   UNL     1       0.111  -1.961   1.711  0.00  0.00    +0.067 A 
ATOM     13  C   UNL     1      -0.189  -2.582   0.505  0.00  0.00    -0.024 A 
ATOM     14  C   UNL     1      -0.791  -3.963   0.498  0.00  0.00    +0.046 C 
BRANCH  11  15
ATOM     15  N   UNL     1       0.977  -0.018   2.997  0.00  0.00    +0.058 N 
ATOM     16  O   UNL     1       1.540   1.052   2.999  0.00  0.00    -0.126 OA
ATOM     17  O   UNL     1       0.673  -0.543   4.042  0.00  0.00    -0.126 OA
ENDBRANCH  11  15
ENDBRANCH   3  12
ENDBRANCH   1   4
BRANCH   1  18
ATOM     18  N   UNL     1       0.814  -5.832   4.465  0.00  0.00    +0.391 N 
ATOM     19  H   UNL     1       0.316  -6.432   3.824  0.00  0.00    -0.084 HD
ATOM     20  H   UNL     1       1.774  -5.745   4.166  0.00  0.00    -0.084 HD
BRANCH  18  21
ATOM     21  C   UNL     1       0.772  -6.413   5.813  0.00  0.00    -0.043 C 
ATOM     22  C   UNL     1       1.306  -7.846   5.768  0.00  0.00    -0.009 C 
BRANCH  21  23
ATOM     23  C   UNL     1       1.625  -5.588   6.742  0.00  0.00    -0.058 A 
ATOM     24  C   UNL     1       2.834  -5.082   6.303  0.00  0.00    +0.006 A 
ATOM     25  C   UNL     1       3.619  -4.327   7.152  0.00  0.00    +0.049 A 
ATOM     26  C   UNL     1       3.196  -4.074   8.449  0.00  0.00    +0.162 A 
ATOM     27  C   UNL     1       1.980  -4.581   8.890  0.00  0.00    +0.162 A 
ATOM     28  C   UNL     1       1.194  -5.335   8.031  0.00  0.00    +0.051 A 
ATOM     29  O   UNL     1       1.542  -4.338  10.156  0.00  0.00    -0.485 OA
ATOM     30  C   UNL     1       2.521  -3.890  11.100  0.00  0.00    +0.270 C 
ATOM     31  C   UNL     1       3.356  -2.785  10.440  0.00  0.00    +0.270 C 
ATOM     32  O   UNL     1       3.983  -3.332   9.275  0.00  0.00    -0.485 OA
ENDBRANCH  21  23
ENDBRANCH  18  21
ENDBRANCH   1  18
TORSDOF 6
