REMARK  Name = ZINC08509859
REMARK  4 active torsions:
REMARK  status: ('A' for Active; 'I' for Inactive)
REMARK    1  A    between atoms: C_1  and  C_2
REMARK    2  A    between atoms: C_7  and  C_8
REMARK    3  A    between atoms: N_12  and  N_13
REMARK    4  A    between atoms: C_14  and  C_15
REMARK                            x       y       z     vdW  Elec       q    Type
REMARK                         _______ _______ _______ _____ _____    ______ ____
ROOT
ATOM      1  C   UNL     1       0.226   0.023   2.484  0.00  0.00    +0.184 A 
ATOM      2  N   UNL     1       0.135   1.315   2.635  0.00  0.00    -0.152 NA
ATOM      3  N   UNL     1       0.330   1.608   3.991  0.00  0.00    -0.253 N 
ATOM      4  C   UNL     1       0.539   0.440   4.633  0.00  0.00    +0.197 A 
ATOM      5  N   UNL     1       0.472  -0.547   3.718  0.00  0.00    -0.188 N 
ATOM      6  S   UNL     1       0.831   0.246   6.309  0.00  0.00    -0.010 S 
ATOM      7  H   UNL     1       0.317   2.490   4.395  0.00  0.00    +0.191 HD
ENDROOT
BRANCH   1  14
ATOM      8  C   UNL     1      -0.103   1.497   0.016  0.00  0.00    +0.044 C 
ATOM      9  C   UNL     1      -0.076  -0.009   0.011  0.00  0.00    -0.040 A 
ATOM     10  C   UNL     1      -0.203  -0.699  -1.178  0.00  0.00    +0.004 A 
ATOM     11  C   UNL     1      -0.179  -2.082  -1.185  0.00  0.00    +0.000 A 
ATOM     12  C   UNL     1      -0.027  -2.783  -0.002  0.00  0.00    +0.001 A 
ATOM     13  C   UNL     1       0.101  -2.105   1.193  0.00  0.00    +0.012 A 
ATOM     14  C   UNL     1       0.083  -0.710   1.206  0.00  0.00    +0.024 A 
ENDBRANCH   1  14
BRANCH   5  15
ATOM     15  N   UNL     1       0.628  -1.916   3.974  0.00  0.00    -0.171 NA
ATOM     16  C   UNL     1       0.740  -2.339   5.197  0.00  0.00    +0.141 C 
BRANCH  16  17
ATOM     17  C   UNL     1       0.797  -3.786   5.473  0.00  0.00    -0.002 A 
ATOM     18  C   UNL     1       0.738  -4.704   4.421  0.00  0.00    +0.012 A 
ATOM     19  C   UNL     1       0.793  -6.056   4.685  0.00  0.00    +0.042 A 
ATOM     20  C   UNL     1       0.906  -6.507   5.991  0.00  0.00    +0.158 A 
ATOM     21  C   UNL     1       0.965  -5.601   7.040  0.00  0.00    +0.159 A 
ATOM     22  C   UNL     1       0.917  -4.244   6.787  0.00  0.00    +0.050 A 
ATOM     23  F   UNL     1       1.075  -6.047   8.311  0.00  0.00    -0.202 F 
ATOM     24  F   UNL     1       0.959  -7.833   6.242  0.00  0.00    -0.202 F 
ENDBRANCH  16  17
ENDBRANCH   5  15
TORSDOF 3
