REMARK  Name = ZINC00852962
REMARK  10 active torsions:
REMARK  status: ('A' for Active; 'I' for Inactive)
REMARK    1  A    between atoms: C_1  and  C_2
REMARK    2  A    between atoms: C_5  and  S_8
REMARK    3  A    between atoms: S_8  and  N_11
REMARK    4  A    between atoms: N_11  and  C_12
REMARK    5  A    between atoms: C_12  and  C_13
REMARK    6  A    between atoms: C_13  and  N_14
REMARK    7  A    between atoms: N_27  and  C_28
REMARK    8  A    between atoms: N_27  and  C_29
REMARK    9  A    between atoms: N_30  and  C_31
REMARK   10  A    between atoms: N_30  and  C_32
REMARK                            x       y       z     vdW  Elec       q    Type
REMARK                         _______ _______ _______ _____ _____    ______ ____
ROOT
ATOM      1  N   UNL     1       2.975  -3.429  -4.109  0.00  0.00    -0.243 N 
ATOM      2  C   UNL     1       2.574  -2.430  -4.918  0.00  0.00    +0.240 C 
ATOM      3  O   UNL     1       1.484  -1.899  -4.928  0.00  0.00    -0.273 OA
ATOM      4  C   UNL     1       3.749  -2.099  -5.813  0.00  0.00    +0.212 C 
ATOM      5  N   UNL     1       4.804  -3.035  -5.393  0.00  0.00    -0.234 N 
ATOM      6  C   UNL     1       4.272  -3.795  -4.375  0.00  0.00    +0.170 C 
ATOM      7  H   UNL     1       5.832  -5.017  -3.916  0.00  0.00    +0.158 HD
ATOM      8  C   UNL     1       6.082  -3.132  -5.917  0.00  0.00    +0.230 A 
ATOM      9  N   UNL     1       6.456  -2.330  -6.907  0.00  0.00    -0.180 NA
ATOM     10  C   UNL     1       7.685  -2.419  -7.408  0.00  0.00    +0.223 A 
ATOM     11  N   UNL     1       8.535  -3.319  -6.924  0.00  0.00    -0.181 NA
ATOM     12  C   UNL     1       8.159  -4.126  -5.937  0.00  0.00    +0.223 A 
ATOM     13  N   UNL     1       6.932  -4.032  -5.433  0.00  0.00    -0.180 NA
ATOM     14  N   UNL     1       9.041  -5.061  -5.435  0.00  0.00    -0.306 N 
ATOM     15  C   UNL     1       8.626  -5.950  -4.347  0.00  0.00    +0.132 C 
ATOM     16  C   UNL     1      10.393  -5.164  -5.990  0.00  0.00    +0.132 C 
ATOM     17  N   UNL     1       8.075  -1.581  -8.432  0.00  0.00    -0.306 N 
ATOM     18  C   UNL     1       9.427  -1.683  -8.987  0.00  0.00    +0.132 C 
ATOM     19  C   UNL     1       7.138  -0.589  -8.965  0.00  0.00    +0.132 C 
ATOM     20  N   UNL     1       4.868  -4.763  -3.700  0.00  0.00    -0.374 N 
ATOM     21  H   UNL     1       4.360  -5.260  -2.958  0.00  0.00    +0.158 HD
ENDROOT
BRANCH   1  22
ATOM     22  C   UNL     1       2.135  -4.048  -3.082  0.00  0.00    +0.133 C 
BRANCH  22  23
ATOM     23  C   UNL     1       2.312  -3.301  -1.759  0.00  0.00    +0.125 C 
BRANCH  23  24
ATOM     24  N   UNL     1       1.472  -3.921  -0.731  0.00  0.00    -0.188 NA
ATOM     25  H   UNL     1       0.766  -4.535  -0.988  0.00  0.00    +0.148 HD
BRANCH  24  26
ATOM     26  S   UNL     1       1.727  -3.574   0.868  0.00  0.00    +0.058 S 
ATOM     27  O   UNL     1       3.121  -3.727   1.099  0.00  0.00    -0.153 OA
ATOM     28  O   UNL     1       0.749  -4.298   1.602  0.00  0.00    -0.153 OA
BRANCH  26  33
ATOM     29  C   UNL     1       0.482   2.279   1.646  0.00  0.00    +0.044 C 
ATOM     30  C   UNL     1       0.793   0.817   1.452  0.00  0.00    -0.050 A 
ATOM     31  C   UNL     1      -0.204  -0.128   1.604  0.00  0.00    +0.005 A 
ATOM     32  C   UNL     1       0.081  -1.469   1.425  0.00  0.00    +0.029 A 
ATOM     33  C   UNL     1       1.363  -1.865   1.094  0.00  0.00    +0.105 A 
ATOM     34  C   UNL     1       2.361  -0.920   0.942  0.00  0.00    +0.029 A 
ATOM     35  C   UNL     1       2.075   0.421   1.120  0.00  0.00    +0.005 A 
ENDBRANCH  26  33
ENDBRANCH  24  26
ENDBRANCH  23  24
ENDBRANCH  22  23
ENDBRANCH   1  22
TORSDOF 5
