REMARK  Name = ZINC09019685
REMARK  11 active torsions:
REMARK  status: ('A' for Active; 'I' for Inactive)
REMARK    1  A    between atoms: C_1  and  C_2
REMARK    2  A    between atoms: C_2  and  N_55
REMARK    3  A    between atoms: C_3  and  C_4
REMARK    4  A    between atoms: C_3  and  N_55
REMARK    5  A    between atoms: C_5  and  C_6
REMARK    6  A    between atoms: C_5  and  N_55
REMARK    7  A    between atoms: C_7  and  C_17
REMARK    8  A    between atoms: N_19  and  N_20
REMARK    9  A    between atoms: C_21  and  C_22
REMARK   10  A    between atoms: C_21  and  C_23
REMARK   11  A    between atoms: C_26  and  C_29
REMARK                            x       y       z     vdW  Elec       q    Type
REMARK                         _______ _______ _______ _____ _____    ______ ____
ROOT
ATOM      1  C   UNL     1      -0.523   5.691   0.026  0.00  0.00    +0.063 A 
ATOM      2  C   UNL     1       0.641   6.317  -0.319  0.00  0.00    +0.170 A 
ATOM      3  N   UNL     1       1.626   5.402  -0.344  0.00  0.00    -0.124 NA
ATOM      4  N   UNL     1       1.151   4.247  -0.031  0.00  0.00    -0.058 NA
ATOM      5  N   UNL     1      -0.222   4.387   0.217  0.00  0.00    -0.194 N 
ATOM      6  C   UNL     1      -1.111   3.371   0.586  0.00  0.00    +0.240 A 
ATOM      7  C   UNL     1      -0.767   1.960   0.783  0.00  0.00    +0.206 A 
ATOM      8  N   UNL     1      -1.850   1.318   1.127  0.00  0.00    -0.032 NA
ATOM      9  O   UNL     1      -2.915   2.251   1.162  0.00  0.00    -0.239 OA
ATOM     10  N   UNL     1      -2.386   3.517   0.810  0.00  0.00    -0.027 NA
ATOM     11  N   UNL     1       0.498   1.402   0.635  0.00  0.00    -0.337 N 
ATOM     12  H   UNL     1       0.631   0.454   0.792  0.00  0.00    +0.144 HD
ATOM     13  H   UNL     1       1.246   1.960   0.372  0.00  0.00    +0.144 HD
ENDROOT
BRANCH   2  14
ATOM     14  C   UNL     1       0.791   7.753  -0.619  0.00  0.00    +0.285 C 
ATOM     15  O   UNL     1      -0.175   8.490  -0.565  0.00  0.00    -0.267 OA
ATOM     16  N   UNL     1       1.998   8.249  -0.954  0.00  0.00    -0.201 N 
ATOM     17  H   UNL     1       2.769   7.662  -0.998  0.00  0.00    +0.178 HD
BRANCH  16  18
ATOM     18  N   UNL     1       2.141   9.614  -1.240  0.00  0.00    -0.184 NA
ATOM     19  C   UNL     1       3.304  10.091  -1.562  0.00  0.00    +0.063 C 
ATOM     20  C   UNL     1       4.501   9.178  -1.630  0.00  0.00    +0.068 C 
BRANCH  19  21
ATOM     21  C   UNL     1       3.453  11.527  -1.863  0.00  0.00    -0.003 A 
ATOM     22  C   UNL     1       4.704  12.046  -2.205  0.00  0.00    +0.010 A 
ATOM     23  C   UNL     1       4.836  13.389  -2.490  0.00  0.00    +0.004 A 
ATOM     24  C   UNL     1       3.734  14.224  -2.428  0.00  0.00    -0.050 A 
ATOM     25  C   UNL     1       2.493  13.718  -2.084  0.00  0.00    +0.004 A 
ATOM     26  C   UNL     1       2.346  12.376  -1.801  0.00  0.00    +0.010 A 
ATOM     27  C   UNL     1       3.887  15.691  -2.736  0.00  0.00    +0.044 C 
ENDBRANCH  19  21
ENDBRANCH  16  18
ENDBRANCH   2  14
BRANCH   1  28
ATOM     28  C   UNL     1      -1.880   6.331   0.169  0.00  0.00    -0.020 C 
BRANCH  28  29
ATOM     29  N   UNL     1      -2.252   6.336   1.599  0.00  0.00    +0.383 N 
ATOM     30  H   UNL     1      -1.970   5.443   2.021  0.00  0.00    -0.081 HD
BRANCH  29  32
ATOM     31  C   UNL     1      -0.128   6.991   2.615  0.00  0.00    -0.017 C 
ATOM     32  C   UNL     1      -1.556   7.438   2.298  0.00  0.00    -0.082 C 
ENDBRANCH  29  32
BRANCH  29  33
ATOM     33  C   UNL     1      -3.715   6.492   1.740  0.00  0.00    -0.082 C 
ATOM     34  C   UNL     1      -4.113   6.126   3.171  0.00  0.00    -0.017 C 
ENDBRANCH  29  33
ENDBRANCH  28  29
ENDBRANCH   1  28
TORSDOF 7
