REMARK  Name = ZINC11783773
REMARK  8 active torsions:
REMARK  status: ('A' for Active; 'I' for Inactive)
REMARK    1  A    between atoms: C_1  and  C_2
REMARK    2  A    between atoms: C_5  and  C_11
REMARK    3  A    between atoms: C_11  and  C_12
REMARK    4  A    between atoms: N_14  and  C_15
REMARK    5  A    between atoms: C_15  and  C_16
REMARK    6  A    between atoms: C_21  and  C_26
REMARK    7  A    between atoms: C_29  and  O_32
REMARK    8  A    between atoms: O_32  and  C_33
REMARK                            x       y       z     vdW  Elec       q    Type
REMARK                         _______ _______ _______ _____ _____    ______ ____
ROOT
ATOM      1  C   UNL     1      -1.433  -0.534   0.013  0.00  0.00    +0.195 C 
ATOM      2  C   UNL     1      -1.447  -2.081   0.005  0.00  0.00    +0.085 C 
ATOM      3  C   UNL     1      -2.636  -2.388   0.894  0.00  0.00    -0.002 A 
ATOM      4  C   UNL     1      -3.368  -3.536   1.090  0.00  0.00    +0.017 A 
ATOM      5  C   UNL     1      -4.440  -3.533   1.982  0.00  0.00    +0.003 A 
ATOM      6  C   UNL     1      -4.759  -2.362   2.668  0.00  0.00    +0.013 A 
ATOM      7  C   UNL     1      -4.019  -1.219   2.469  0.00  0.00    +0.046 A 
ATOM      8  C   UNL     1      -2.945  -1.219   1.580  0.00  0.00    +0.124 A 
ATOM      9  O   UNL     1      -2.084  -0.216   1.255  0.00  0.00    -0.487 OA
ENDROOT
BRANCH   5  10
ATOM     10  C   UNL     1      -5.235  -4.766   2.198  0.00  0.00    +0.094 A 
ATOM     11  C   UNL     1      -6.373  -4.734   3.012  0.00  0.00    +0.035 A 
ATOM     12  C   UNL     1      -7.081  -5.910   3.182  0.00  0.00    +0.071 A 
ATOM     13  C   UNL     1      -6.618  -7.054   2.533  0.00  0.00    +0.234 A 
ATOM     14  N   UNL     1      -5.531  -6.992   1.781  0.00  0.00    -0.111 NA
ATOM     15  N   UNL     1      -4.874  -5.902   1.616  0.00  0.00    -0.146 NA
BRANCH  13  16
ATOM     16  O   UNL     1      -7.282  -8.229   2.672  0.00  0.00    -0.479 OA
ATOM     17  C   UNL     1      -6.751  -9.360   1.978  0.00  0.00    +0.279 C 
ENDBRANCH  13  16
ENDBRANCH   5  10
BRANCH   1  18
ATOM     18  C   UNL     1       0.002  -0.004   0.002  0.00  0.00    +0.149 C 
BRANCH  18  21
ATOM     19  C   UNL     1       1.140   2.151   0.003  0.00  0.00    +0.215 C 
ATOM     20  O   UNL     1       2.199   1.558  -0.011  0.00  0.00    -0.276 OA
ATOM     21  N   UNL     1      -0.018   1.461   0.010  0.00  0.00    -0.312 N 
ATOM     22  H   UNL     1      -0.864   1.934   0.017  0.00  0.00    +0.149 HD
BRANCH  19  23
ATOM     23  C   UNL     1       1.120   3.657   0.011  0.00  0.00    +0.118 C 
BRANCH  23  27
ATOM     24  C   UNL     1       4.811   5.714   1.169  0.00  0.00    +0.028 C 
ATOM     25  C   UNL     1       3.975   6.230  -0.004  0.00  0.00    +0.071 C 
ATOM     26  C   UNL     1       2.538   5.714   0.126  0.00  0.00    +0.044 C 
ATOM     27  C   UNL     1       2.555   4.187   0.000  0.00  0.00    +0.082 C 
ATOM     28  N   UNL     1       3.204   3.816  -1.258  0.00  0.00    -0.323 N 
ATOM     29  C   UNL     1       4.149   4.591  -1.811  0.00  0.00    +0.131 C 
ATOM     30  S   UNL     1       4.874   4.085  -3.277  0.00  0.00    -0.019 S 
ATOM     31  N   UNL     1       4.547   5.748  -1.262  0.00  0.00    -0.324 N 
ATOM     32  H   UNL     1       2.946   2.993  -1.702  0.00  0.00    +0.148 HD
ATOM     33  H   UNL     1       5.229   6.276  -1.707  0.00  0.00    +0.148 HD
ENDBRANCH  23  27
ENDBRANCH  19  23
ENDBRANCH  18  21
ENDBRANCH   1  18
TORSDOF 6
