REMARK  Name = ZINC59170531
REMARK  7 active torsions:
REMARK  status: ('A' for Active; 'I' for Inactive)
REMARK    1  A    between atoms: C_1  and  O_2
REMARK    2  A    between atoms: O_2  and  C_3
REMARK    3  A    between atoms: C_8  and  C_24
REMARK    4  A    between atoms: N_10  and  C_11
REMARK    5  A    between atoms: C_14  and  S_17
REMARK    6  A    between atoms: S_17  and  N_20
REMARK    7  A    between atoms: N_26  and  C_27
REMARK                            x       y       z     vdW  Elec       q    Type
REMARK                         _______ _______ _______ _____ _____    ______ ____
ROOT
ATOM      1  C   UNL     1      -0.949  -0.844   0.101  0.00  0.00    +0.124 A 
ATOM      2  C   UNL     1      -1.908  -0.235  -0.707  0.00  0.00    +0.046 A 
ATOM      3  C   UNL     1      -3.032  -0.912  -1.077  0.00  0.00    +0.015 A 
ATOM      4  C   UNL     1      -3.233  -2.228  -0.635  0.00  0.00    +0.018 A 
ATOM      5  C   UNL     1      -4.415  -2.930  -0.984  0.00  0.00    +0.030 A 
ATOM      6  C   UNL     1      -4.662  -4.147  -0.364  0.00  0.00    +0.098 A 
ATOM      7  C   UNL     1      -3.684  -4.606   0.642  0.00  0.00    +0.212 A 
ATOM      8  N   UNL     1      -4.035  -5.429   1.607  0.00  0.00    -0.325 N 
ATOM      9  O   UNL     1      -2.410  -4.149   0.537  0.00  0.00    -0.438 OA
ATOM     10  C   UNL     1      -2.252  -2.857   0.156  0.00  0.00    +0.141 A 
ATOM     11  C   UNL     1      -1.117  -2.154   0.524  0.00  0.00    +0.092 A 
ATOM     12  H   UNL     1      -4.968  -5.667   1.726  0.00  0.00    +0.169 HD
ENDROOT
BRANCH   8  13
ATOM     13  C   UNL     1      -3.084  -5.949   2.441  0.00  0.00    +0.042 A 
ATOM     14  C   UNL     1      -1.887  -6.444   1.919  0.00  0.00    +0.027 A 
ATOM     15  C   UNL     1      -0.933  -6.967   2.767  0.00  0.00    +0.030 A 
ATOM     16  C   UNL     1      -1.160  -7.002   4.132  0.00  0.00    +0.105 A 
ATOM     17  C   UNL     1      -2.344  -6.514   4.656  0.00  0.00    +0.030 A 
ATOM     18  C   UNL     1      -3.304  -5.982   3.821  0.00  0.00    +0.027 A 
BRANCH  16  19
ATOM     19  S   UNL     1       0.064  -7.673   5.207  0.00  0.00    +0.056 S 
ATOM     20  O   UNL     1      -0.614  -8.091   6.384  0.00  0.00    -0.153 OA
ATOM     21  O   UNL     1       0.850  -8.561   4.424  0.00  0.00    -0.153 OA
BRANCH  19  22
ATOM     22  N   UNL     1       1.061  -6.427   5.652  0.00  0.00    -0.204 NA
ATOM     23  H   UNL     1       1.499  -6.442   6.517  0.00  0.00    +0.144 HD
ATOM     24  H   UNL     1       1.206  -5.682   5.048  0.00  0.00    +0.144 HD
ENDBRANCH  19  22
ENDBRANCH  16  19
ENDBRANCH   8  13
BRANCH   6  25
ATOM     25  C   UNL     1      -5.850  -4.948  -0.697  0.00  0.00    +0.253 C 
ATOM     26  O   UNL     1      -6.710  -4.488  -1.425  0.00  0.00    -0.270 OA
ATOM     27  N   UNL     1      -5.987  -6.191  -0.196  0.00  0.00    -0.281 N 
ATOM     28  H   UNL     1      -5.333  -6.536   0.432  0.00  0.00    +0.155 HD
BRANCH  27  29
ATOM     29  C   UNL     1      -7.073  -6.986  -0.580  0.00  0.00    +0.034 A 
ATOM     30  C   UNL     1      -8.295  -6.396  -0.877  0.00  0.00    +0.025 A 
ATOM     31  C   UNL     1      -9.365  -7.182  -1.256  0.00  0.00    +0.022 A 
ATOM     32  C   UNL     1      -9.220  -8.556  -1.341  0.00  0.00    +0.041 A 
ATOM     33  C   UNL     1      -8.004  -9.146  -1.046  0.00  0.00    +0.022 A 
ATOM     34  C   UNL     1      -6.929  -8.364  -0.671  0.00  0.00    +0.025 A 
ATOM     35 CL   UNL     1     -10.568  -9.541  -1.818  0.00  0.00    -0.084 Cl
ENDBRANCH  27  29
ENDBRANCH   6  25
BRANCH   1  37
ATOM     36  C   UNL     1       0.270   1.192   0.003  0.00  0.00    +0.277 C 
ATOM     37  O   UNL     1       0.158  -0.153   0.472  0.00  0.00    -0.495 OA
ENDBRANCH   1  37
TORSDOF 6
