REMARK  Name = ZINC39561225
REMARK  7 active torsions:
REMARK  status: ('A' for Active; 'I' for Inactive)
REMARK    1  A    between atoms: C_1  and  N_2
REMARK    2  A    between atoms: C_6  and  C_8
REMARK    3  A    between atoms: C_8  and  C_10
REMARK    4  A    between atoms: C_8  and  O_16
REMARK    5  A    between atoms: O_16  and  C_17
REMARK    6  A    between atoms: C_17  and  C_19
REMARK    7  A    between atoms: C_21  and  N_27
REMARK                            x       y       z     vdW  Elec       q    Type
REMARK                         _______ _______ _______ _____ _____    ______ ____
ROOT
ATOM      1  C   UNL     1       1.207  -4.179  -2.054  0.00  0.00    +0.293 C 
ENDROOT
BRANCH   1   7
ATOM      2  C   UNL     1      -0.018   1.461   0.010  0.00  0.00    +0.129 C 
ATOM      3  N   UNL     1       0.002  -0.004   0.002  0.00  0.00    -0.302 N 
ATOM      4  C   UNL     1       0.585  -0.664  -1.018  0.00  0.00    +0.306 C 
ATOM      5  O   UNL     1       1.094  -0.045  -1.931  0.00  0.00    -0.252 OA
ATOM      6  N   UNL     1       0.603  -2.012  -1.025  0.00  0.00    -0.237 N 
ATOM      7  C   UNL     1       1.186  -2.673  -2.045  0.00  0.00    +0.266 C 
ATOM      8  O   UNL     1       1.694  -2.054  -2.956  0.00  0.00    -0.271 OA
ATOM      9  H   UNL     1      -0.404  -0.499   0.731  0.00  0.00    +0.150 HD
ATOM     10  H   UNL     1       0.197  -2.507  -0.297  0.00  0.00    +0.159 HD
ENDBRANCH   1   7
BRANCH   1  11
ATOM     11  C   UNL     1       2.040  -4.677  -0.900  0.00  0.00    +0.002 A 
ATOM     12  C   UNL     1       3.418  -4.687  -0.997  0.00  0.00    +0.008 A 
ATOM     13  C   UNL     1       4.182  -5.143   0.061  0.00  0.00    +0.000 A 
ATOM     14  C   UNL     1       3.567  -5.589   1.216  0.00  0.00    +0.000 A 
ATOM     15  C   UNL     1       2.188  -5.578   1.313  0.00  0.00    +0.000 A 
ATOM     16  C   UNL     1       1.425  -5.118   0.257  0.00  0.00    +0.008 A 
ENDBRANCH   1  11
BRANCH   1  17
ATOM     17  O   UNL     1       1.771  -4.641  -3.283  0.00  0.00    -0.442 OA
BRANCH  17  18
ATOM     18  C   UNL     1       1.336  -5.829  -3.747  0.00  0.00    +0.360 C 
ATOM     19  O   UNL     1       0.501  -6.455  -3.126  0.00  0.00    -0.243 OA
BRANCH  18  20
ATOM     20  C   UNL     1       1.875  -6.370  -5.013  0.00  0.00    +0.169 A 
ATOM     21  C   UNL     1       1.417  -7.595  -5.490  0.00  0.00    +0.095 A 
ATOM     22  C   UNL     1       1.936  -8.091  -6.687  0.00  0.00    +0.067 A 
ATOM     23  C   UNL     1       2.896  -7.335  -7.356  0.00  0.00    +0.100 A 
ATOM     24  C   UNL     1       3.301  -6.124  -6.817  0.00  0.00    +0.150 A 
ATOM     25  N   UNL     1       2.789  -5.679  -5.689  0.00  0.00    -0.226 NA
ATOM     26 CL   UNL     1       4.497  -5.176  -7.646  0.00  0.00    -0.060 Cl
ATOM     27 CL   UNL     1       3.577  -7.903  -8.849  0.00  0.00    -0.078 Cl
ATOM     28 CL   UNL     1       0.219  -8.491  -4.610  0.00  0.00    -0.079 Cl
BRANCH  22  29
ATOM     29  N   UNL     1       1.505  -9.314  -7.200  0.00  0.00    -0.356 N 
ATOM     30  H   UNL     1       0.837  -9.831  -6.724  0.00  0.00    +0.142 HD
ATOM     31  H   UNL     1       1.874  -9.647  -8.032  0.00  0.00    +0.142 HD
ENDBRANCH  22  29
ENDBRANCH  18  20
ENDBRANCH  17  18
ENDBRANCH   1  17
TORSDOF 6
