REMARK  Name = ZINC60443638
REMARK  8 active torsions:
REMARK  status: ('A' for Active; 'I' for Inactive)
REMARK    1  A    between atoms: C_1  and  C_2
REMARK    2  A    between atoms: C_2  and  O_3
REMARK    3  A    between atoms: O_3  and  C_4
REMARK    4  A    between atoms: C_7  and  N_11
REMARK    5  A    between atoms: N_11  and  S_12
REMARK    6  A    between atoms: S_12  and  C_15
REMARK    7  A    between atoms: C_18  and  S_22
REMARK    8  A    between atoms: S_22  and  N_25
REMARK                            x       y       z     vdW  Elec       q    Type
REMARK                         _______ _______ _______ _____ _____    ______ ____
ROOT
ATOM      1  S   UNL     1       1.866  -6.556  -3.166  0.00  0.00    +0.094 S 
ATOM      2  O   UNL     1       1.070  -6.206  -4.290  0.00  0.00    -0.148 OA
ATOM      3  O   UNL     1       3.233  -6.185  -3.056  0.00  0.00    -0.148 OA
ENDROOT
BRANCH   1   4
ATOM      4  C   UNL     1       1.808  -8.312  -3.034  0.00  0.00    +0.145 A 
ATOM      5  C   UNL     1       1.098  -9.052  -3.960  0.00  0.00    +0.034 A 
ATOM      6  C   UNL     1       1.052 -10.429  -3.857  0.00  0.00    +0.030 A 
ATOM      7  C   UNL     1       1.716 -11.069  -2.826  0.00  0.00    +0.108 A 
ATOM      8  C   UNL     1       2.427 -10.331  -1.899  0.00  0.00    +0.068 A 
ATOM      9  C   UNL     1       2.478  -8.951  -2.005  0.00  0.00    +0.152 A 
ATOM     10  F   UNL     1       3.176  -8.230  -1.101  0.00  0.00    -0.203 F 
BRANCH   7  11
ATOM     11  S   UNL     1       1.655 -12.825  -2.696  0.00  0.00    +0.056 S 
ATOM     12  O   UNL     1       1.906 -13.139  -1.333  0.00  0.00    -0.153 OA
ATOM     13  O   UNL     1       0.475 -13.242  -3.369  0.00  0.00    -0.153 OA
BRANCH  11  14
ATOM     14  N   UNL     1       2.932 -13.425  -3.563  0.00  0.00    -0.204 NA
ATOM     15  H   UNL     1       3.537 -12.818  -4.018  0.00  0.00    +0.144 HD
ATOM     16  H   UNL     1       3.075 -14.383  -3.615  0.00  0.00    +0.144 HD
ENDBRANCH  11  14
ENDBRANCH   7  11
ENDBRANCH   1   4
BRANCH   1  17
ATOM     17  N   UNL     1       1.100  -5.939  -1.834  0.00  0.00    -0.098 NA
BRANCH  17  21
ATOM     18  C   UNL     1       0.777  -1.812  -1.336  0.00  0.00    +0.156 A 
ATOM     19  C   UNL     1       0.243  -2.668  -0.386  0.00  0.00    +0.050 A 
ATOM     20  C   UNL     1       0.349  -4.036  -0.551  0.00  0.00    +0.030 A 
ATOM     21  C   UNL     1       0.992  -4.553  -1.668  0.00  0.00    +0.077 A 
ATOM     22  C   UNL     1       1.527  -3.696  -2.619  0.00  0.00    +0.068 A 
ATOM     23  C   UNL     1       1.415  -2.327  -2.457  0.00  0.00    +0.167 A 
ATOM     24  F   UNL     1       1.931  -1.492  -3.385  0.00  0.00    -0.202 F 
BRANCH  18  25
ATOM     25  O   UNL     1       0.671  -0.465  -1.174  0.00  0.00    -0.489 OA
BRANCH  25  27
ATOM     26  C   UNL     1      -0.019   1.526   0.010  0.00  0.00    +0.048 C 
ATOM     27  C   UNL     1       0.002  -0.004   0.002  0.00  0.00    +0.226 C 
ENDBRANCH  25  27
ENDBRANCH  18  25
ENDBRANCH  17  21
ENDBRANCH   1  17
TORSDOF 7
