REMARK  Name = ZINC44174931
REMARK  10 active torsions:
REMARK  status: ('A' for Active; 'I' for Inactive)
REMARK    1  A    between atoms: C_1  and  C_2
REMARK    2  A    between atoms: C_2  and  C_3
REMARK    3  A    between atoms: C_3  and  C_5
REMARK    4  A    between atoms: C_3  and  C_6
REMARK    5  A    between atoms: C_6  and  C_40
REMARK    6  A    between atoms: C_11  and  C_14
REMARK    7  A    between atoms: C_17  and  C_20
REMARK    8  A    between atoms: C_21  and  C_22
REMARK    9  A    between atoms: N_30  and  C_33
REMARK   10  A    between atoms: C_38  and  C_39
REMARK                            x       y       z     vdW  Elec       q    Type
REMARK                         _______ _______ _______ _____ _____    ______ ____
ROOT
ATOM      1  C   UNL     1       0.756  -2.145  -1.409  0.00  0.00    +0.051 C 
ATOM      2  C   UNL     1       1.367  -2.764  -2.662  0.00  0.00    +0.086 C 
ATOM      3  C   UNL     1       0.543  -4.107  -2.639  0.00  0.00    +0.077 C 
ATOM      4  C   UNL     1      -0.840  -3.656  -2.439  0.00  0.00    -0.027 C 
ATOM      5  N   UNL     1      -0.707  -2.431  -1.568  0.00  0.00    +0.396 N 
ATOM      6  C   UNL     1       1.317  -4.947  -3.521  0.00  0.00    +0.229 C 
ATOM      7  O   UNL     1       0.905  -5.808  -4.269  0.00  0.00    -0.275 OA
ATOM      8  N   UNL     1       2.620  -4.561  -3.327  0.00  0.00    -0.210 N 
ATOM      9  C   UNL     1       2.734  -3.373  -2.635  0.00  0.00    +0.229 C 
ATOM     10  O   UNL     1       3.725  -2.916  -2.108  0.00  0.00    -0.275 OA
ATOM     11  H   UNL     1      -1.123  -2.599  -0.664  0.00  0.00    -0.083 HD
ATOM     12  H   UNL     1      -1.162  -1.651  -2.017  0.00  0.00    -0.083 HD
ENDROOT
BRANCH   8  13
ATOM     13  C   UNL     1       3.723  -5.289  -3.795  0.00  0.00    +0.047 A 
ATOM     14  C   UNL     1       4.244  -5.029  -5.055  0.00  0.00    +0.024 A 
ATOM     15  C   UNL     1       5.331  -5.748  -5.513  0.00  0.00    +0.002 A 
ATOM     16  C   UNL     1       5.900  -6.725  -4.717  0.00  0.00    +0.000 A 
ATOM     17  C   UNL     1       5.383  -6.986  -3.461  0.00  0.00    +0.005 A 
ATOM     18  C   UNL     1       4.300  -6.266  -2.996  0.00  0.00    -0.029 A 
ATOM     19  C   UNL     1       3.741  -6.547  -1.625  0.00  0.00    +0.045 C 
ENDBRANCH   8  13
BRANCH   4  20
ATOM     20  C   UNL     1      -1.480  -3.324  -3.762  0.00  0.00    -0.061 A 
ATOM     21  C   UNL     1      -1.226  -2.103  -4.363  0.00  0.00    +0.002 A 
ATOM     22  C   UNL     1      -1.809  -1.792  -5.574  0.00  0.00    +0.008 A 
ATOM     23  C   UNL     1      -2.658  -2.713  -6.193  0.00  0.00    -0.025 A 
ATOM     24  C   UNL     1      -2.910  -3.943  -5.580  0.00  0.00    +0.008 A 
ATOM     25  C   UNL     1      -2.316  -4.242  -4.372  0.00  0.00    +0.002 A 
BRANCH  23  26
ATOM     26  C   UNL     1      -3.285  -2.388  -7.487  0.00  0.00    +0.008 C 
ATOM     27  C   UNL     1      -4.100  -3.275  -8.079  0.00  0.00    +0.008 C 
BRANCH  27  28
ATOM     28  C   UNL     1      -4.727  -2.949  -9.373  0.00  0.00    -0.025 A 
ATOM     29  C   UNL     1      -4.471  -1.721  -9.989  0.00  0.00    +0.008 A 
ATOM     30  C   UNL     1      -5.060  -1.424 -11.199  0.00  0.00    +0.001 A 
ATOM     31  C   UNL     1      -5.904  -2.339 -11.805  0.00  0.00    +0.000 A 
ATOM     32  C   UNL     1      -6.163  -3.557 -11.201  0.00  0.00    +0.001 A 
ATOM     33  C   UNL     1      -5.577  -3.870  -9.993  0.00  0.00    +0.008 A 
ENDBRANCH  27  28
ENDBRANCH  23  26
ENDBRANCH   4  20
BRANCH   1  34
ATOM     34  C   UNL     1       1.296  -2.805  -0.167  0.00  0.00    +0.347 C 
ATOM     35  O   UNL     1       0.543  -3.405   0.582  0.00  0.00    -0.248 OA
ATOM     36  O   UNL     1       2.486  -2.740   0.091  0.00  0.00    -0.248 OA
ENDBRANCH   1  34
BRANCH   1  37
ATOM     37  C   UNL     1       1.011  -0.637  -1.371  0.00  0.00    -0.014 C 
ATOM     38  C   UNL     1       0.376  -0.043  -0.112  0.00  0.00    +0.006 C 
BRANCH  37  40
ATOM     39  C   UNL     1       2.775   1.132  -1.444  0.00  0.00    +0.004 C 
ATOM     40  C   UNL     1       2.518  -0.374  -1.355  0.00  0.00    -0.001 C 
ENDBRANCH  37  40
ENDBRANCH   1  37
TORSDOF 7
