REMARK  Name = ZINC63573036
REMARK  9 active torsions:
REMARK  status: ('A' for Active; 'I' for Inactive)
REMARK    1  A    between atoms: C_1  and  C_2
REMARK    2  A    between atoms: C_2  and  O_3
REMARK    3  A    between atoms: O_3  and  C_4
REMARK    4  A    between atoms: C_7  and  N_10
REMARK    5  A    between atoms: C_19  and  O_36
REMARK    6  A    between atoms: C_26  and  C_28
REMARK    7  A    between atoms: C_31  and  O_34
REMARK    8  A    between atoms: O_34  and  C_35
REMARK    9  A    between atoms: O_36  and  C_37
REMARK                            x       y       z     vdW  Elec       q    Type
REMARK                         _______ _______ _______ _____ _____    ______ ____
ROOT
ATOM      1  N   UNL     1      -2.328  -6.453  -1.765  0.00  0.00    -0.269 N 
ATOM      2  C   UNL     1      -3.422  -6.807  -1.063  0.00  0.00    +0.307 C 
ATOM      3  O   UNL     1      -4.354  -6.033  -0.959  0.00  0.00    -0.252 OA
ATOM      4  N   UNL     1      -3.484  -8.019  -0.477  0.00  0.00    -0.276 N 
ATOM      5  C   UNL     1      -2.313  -8.901  -0.509  0.00  0.00    +0.114 C 
ATOM      6  C   UNL     1      -1.902  -9.259   0.931  0.00  0.00    +0.052 C 
ATOM      7  C   UNL     1      -3.168  -9.621   1.666  0.00  0.00    -0.035 C 
ATOM      8  C   UNL     1      -3.490 -10.685   2.390  0.00  0.00    +0.003 A 
ATOM      9  C   UNL     1      -2.702 -11.846   2.833  0.00  0.00    +0.055 A 
ATOM     10  C   UNL     1      -3.361 -12.787   3.564  0.00  0.00    +0.121 A 
ATOM     11  C   UNL     1      -4.719 -12.707   3.905  0.00  0.00    +0.047 A 
ATOM     12  C   UNL     1      -5.534 -11.679   3.557  0.00  0.00    +0.029 A 
ATOM     13  C   UNL     1      -4.933 -10.592   2.771  0.00  0.00    +0.043 A 
ATOM     14  N   UNL     1      -5.453  -9.490   2.321  0.00  0.00    -0.375 N 
ATOM     15  C   UNL     1      -4.399  -8.720   1.659  0.00  0.00    +0.131 C 
ATOM     16  C   UNL     1      -4.725  -8.441   0.193  0.00  0.00    +0.134 C 
ATOM     17  H   UNL     1      -1.612  -7.093  -1.902  0.00  0.00    +0.156 HD
ATOM     18  H   UNL     1      -6.381  -9.223   2.410  0.00  0.00    +0.160 HD
ENDROOT
BRANCH   1  22
ATOM     19  C   UNL     1      -2.018  -2.607  -3.347  0.00  0.00    +0.121 A 
ATOM     20  C   UNL     1      -0.893  -3.241  -2.840  0.00  0.00    +0.047 A 
ATOM     21  C   UNL     1      -0.995  -4.514  -2.316  0.00  0.00    +0.027 A 
ATOM     22  C   UNL     1      -2.223  -5.160  -2.296  0.00  0.00    +0.035 A 
ATOM     23  C   UNL     1      -3.349  -4.525  -2.804  0.00  0.00    +0.027 A 
ATOM     24  C   UNL     1      -3.247  -3.250  -3.323  0.00  0.00    +0.047 A 
BRANCH  19  25
ATOM     25  O   UNL     1      -1.916  -1.353  -3.863  0.00  0.00    -0.492 OA
BRANCH  25  27
ATOM     26  C   UNL     1      -0.704   0.647  -4.471  0.00  0.00    +0.048 C 
ATOM     27  C   UNL     1      -0.620  -0.751  -3.856  0.00  0.00    +0.225 C 
ENDBRANCH  25  27
ENDBRANCH  19  25
ENDBRANCH   1  22
BRANCH  16  28
ATOM     28  C   UNL     1      -5.753  -7.343   0.102  0.00  0.00    -0.024 A 
ATOM     29  C   UNL     1      -5.621  -6.208   0.881  0.00  0.00    +0.009 A 
ATOM     30  C   UNL     1      -6.563  -5.200   0.800  0.00  0.00    +0.046 A 
ATOM     31  C   UNL     1      -7.641  -5.327  -0.064  0.00  0.00    +0.120 A 
ATOM     32  C   UNL     1      -7.770  -6.467  -0.845  0.00  0.00    +0.046 A 
ATOM     33  C   UNL     1      -6.823  -7.469  -0.764  0.00  0.00    +0.009 A 
BRANCH  31  34
ATOM     34  O   UNL     1      -8.568  -4.338  -0.145  0.00  0.00    -0.495 OA
ATOM     35  C   UNL     1      -9.651  -4.536  -1.057  0.00  0.00    +0.277 C 
ENDBRANCH  31  34
ENDBRANCH  16  28
BRANCH  10  36
ATOM     36  O   UNL     1      -2.659 -13.872   3.988  0.00  0.00    -0.495 OA
ATOM     37  C   UNL     1      -3.371 -14.846   4.753  0.00  0.00    +0.277 C 
ENDBRANCH  10  36
TORSDOF 6
