REMARK  Name = ZINC64612800
REMARK  7 active torsions:
REMARK  status: ('A' for Active; 'I' for Inactive)
REMARK    1  A    between atoms: C_1  and  C_2
REMARK    2  A    between atoms: C_4  and  C_30
REMARK    3  A    between atoms: C_6  and  N_8
REMARK    4  A    between atoms: N_8  and  S_9
REMARK    5  A    between atoms: S_9  and  C_12
REMARK    6  A    between atoms: C_15  and  C_17
REMARK    7  A    between atoms: C_21  and  C_24
REMARK                            x       y       z     vdW  Elec       q    Type
REMARK                         _______ _______ _______ _____ _____    ______ ____
ROOT
ATOM      1  C   UNL     1       0.070  -3.186   5.114  0.00  0.00    +0.111 C 
ATOM      2  C   UNL     1      -0.942  -3.558   5.891  0.00  0.00    +0.135 C 
ATOM      3  N   UNL     1      -0.584  -4.513   6.780  0.00  0.00    -0.258 NA
ATOM      4  C   UNL     1       0.655  -4.861   6.689  0.00  0.00    +0.069 C 
ATOM      5  C   UNL     1       1.247  -4.029   5.567  0.00  0.00    +0.113 C 
ENDROOT
BRANCH   4   6
ATOM      6  C   UNL     1       1.370  -5.891   7.525  0.00  0.00    +0.248 C 
ATOM      7  N   UNL     1       0.432  -6.971   7.929  0.00  0.00    -0.222 NA
ATOM      8  N   UNL     1       1.344  -8.103   8.172  0.00  0.00    -0.223 NA
ATOM      9  C   UNL     1       2.390  -7.938   7.138  0.00  0.00    +0.233 C 
ATOM     10  O   UNL     1       2.382  -6.555   6.747  0.00  0.00    -0.332 OA
ATOM     11  H   UNL     1      -0.067  -6.722   8.769  0.00  0.00    +0.144 HD
ATOM     12  H   UNL     1       0.864  -8.984   8.064  0.00  0.00    +0.144 HD
BRANCH   9  13
ATOM     13  C   UNL     1       3.737  -8.305   7.706  0.00  0.00    -0.003 A 
ATOM     14  C   UNL     1       3.991  -8.126   9.053  0.00  0.00    +0.007 A 
ATOM     15  C   UNL     1       5.226  -8.462   9.574  0.00  0.00    +0.000 A 
ATOM     16  C   UNL     1       6.207  -8.979   8.749  0.00  0.00    +0.000 A 
ATOM     17  C   UNL     1       5.953  -9.159   7.402  0.00  0.00    +0.000 A 
ATOM     18  C   UNL     1       4.716  -8.826   6.881  0.00  0.00    +0.007 A 
ENDBRANCH   9  13
ENDBRANCH   4   6
BRANCH   1  19
ATOM     19  S   UNL     1       0.048  -1.979   3.831  0.00  0.00    +0.090 S 
ATOM     20  O   UNL     1       1.284  -1.283   3.906  0.00  0.00    -0.149 OA
ATOM     21  O   UNL     1      -1.206  -1.316   3.918  0.00  0.00    -0.149 OA
BRANCH  19  22
ATOM     22  N   UNL     1       0.051  -2.796   2.390  0.00  0.00    -0.098 NA
BRANCH  22  28
ATOM     23  C   UNL     1      -0.018   1.503   0.010  0.00  0.00    +0.044 C 
ATOM     24  C   UNL     1       0.002  -0.004   0.002  0.00  0.00    -0.048 A 
ATOM     25  C   UNL     1       0.006  -0.688  -1.200  0.00  0.00    +0.006 A 
ATOM     26  C   UNL     1       0.024  -2.071  -1.212  0.00  0.00    -0.048 A 
ATOM     27  C   UNL     1       0.039  -2.773  -0.023  0.00  0.00    +0.030 A 
ATOM     28  C   UNL     1       0.036  -2.089   1.186  0.00  0.00    +0.075 A 
ATOM     29  C   UNL     1       0.023  -0.700   1.195  0.00  0.00    +0.030 A 
ATOM     30  C   UNL     1       0.027  -2.812  -2.524  0.00  0.00    +0.044 C 
ENDBRANCH  22  28
ENDBRANCH  19  22
ENDBRANCH   1  19
TORSDOF 5
