REMARK  Name = ZINC14467301
REMARK  7 active torsions:
REMARK  status: ('A' for Active; 'I' for Inactive)
REMARK    1  A    between atoms: C_1  and  C_2
REMARK    2  A    between atoms: C_4  and  C_37
REMARK    3  A    between atoms: C_6  and  N_8
REMARK    4  A    between atoms: N_8  and  S_9
REMARK    5  A    between atoms: S_9  and  C_12
REMARK    6  A    between atoms: C_25  and  C_28
REMARK    7  A    between atoms: C_33  and  O_34
REMARK                            x       y       z     vdW  Elec       q    Type
REMARK                         _______ _______ _______ _____ _____    ______ ____
ROOT
ATOM      1  C   UNL     1      -1.828   1.259  -0.048  0.00  0.00    +0.109 A 
ATOM      2  C   UNL     1      -1.873  -0.122  -0.097  0.00  0.00    +0.030 A 
ATOM      3  C   UNL     1      -0.703  -0.841  -0.231  0.00  0.00    +0.025 A 
ATOM      4  C   UNL     1       0.515  -0.176  -0.317  0.00  0.00    +0.031 A 
ATOM      5  C   UNL     1       0.566   1.205  -0.265  0.00  0.00    -0.018 A 
ATOM      6  C   UNL     1      -0.618   1.919  -0.127  0.00  0.00    +0.034 A 
ATOM      7  C   UNL     1       1.853   1.980  -0.347  0.00  0.00    +0.049 C 
ATOM      8  C   UNL     1       1.979   2.794   0.933  0.00  0.00    -0.023 C 
ATOM      9  C   UNL     1       2.730   2.166   1.803  0.00  0.00    -0.030 C 
ATOM     10  C   UNL     1       3.216   0.847   1.229  0.00  0.00    +0.033 C 
ATOM     11  C   UNL     1       3.091   1.067  -0.297  0.00  0.00    +0.029 C 
ATOM     12  C   UNL     1       2.865  -0.246  -1.021  0.00  0.00    +0.109 C 
ATOM     13  N   UNL     1       1.691  -0.922  -0.457  0.00  0.00    -0.336 N 
ATOM     14  H   UNL     1       1.729  -1.854  -0.190  0.00  0.00    +0.147 HD
ENDROOT
BRANCH  12  15
ATOM     15  C   UNL     1       2.634   0.021  -2.486  0.00  0.00    +0.017 A 
ATOM     16  C   UNL     1       1.353  -0.014  -3.002  0.00  0.00    +0.029 A 
ATOM     17  C   UNL     1       1.140   0.232  -4.346  0.00  0.00    +0.043 A 
ATOM     18  C   UNL     1       2.210   0.512  -5.178  0.00  0.00    +0.043 A 
ATOM     19  C   UNL     1       3.493   0.548  -4.667  0.00  0.00    +0.084 A 
ATOM     20  C   UNL     1       3.708   0.308  -3.316  0.00  0.00    +0.140 A 
ATOM     21 CL   UNL     1       4.835   0.901  -5.710  0.00  0.00    -0.080 Cl
ATOM     22 CL   UNL     1      -0.471   0.187  -4.991  0.00  0.00    -0.083 Cl
BRANCH  20  23
ATOM     23  O   UNL     1       4.968   0.348  -2.809  0.00  0.00    -0.505 OA
ATOM     24  H   UNL     1       5.430  -0.501  -2.835  0.00  0.00    +0.292 HD
ENDBRANCH  20  23
ENDBRANCH  12  15
BRANCH   1  25
ATOM     25  S   UNL     1      -3.320   2.181   0.122  0.00  0.00    +0.072 S 
ATOM     26  O   UNL     1      -3.099   3.432  -0.514  0.00  0.00    -0.150 OA
ATOM     27  O   UNL     1      -4.379   1.312  -0.255  0.00  0.00    -0.150 OA
BRANCH  25  28
ATOM     28  N   UNL     1      -3.519   2.498   1.735  0.00  0.00    -0.216 N 
ATOM     29  H   UNL     1      -3.533   3.415   2.051  0.00  0.00    +0.174 HD
BRANCH  28  35
ATOM     30  C   UNL     1      -5.621  -1.775   2.947  0.00  0.00    +0.044 C 
ATOM     31  C   UNL     1      -4.679  -0.640   3.255  0.00  0.00    -0.048 A 
ATOM     32  C   UNL     1      -3.959  -0.640   4.435  0.00  0.00    +0.006 A 
ATOM     33  C   UNL     1      -3.093   0.399   4.721  0.00  0.00    -0.048 A 
ATOM     34  C   UNL     1      -2.945   1.442   3.827  0.00  0.00    +0.028 A 
ATOM     35  C   UNL     1      -3.666   1.445   2.640  0.00  0.00    +0.049 A 
ATOM     36  C   UNL     1      -4.539   0.402   2.359  0.00  0.00    +0.028 A 
ATOM     37  C   UNL     1      -2.311   0.395   6.009  0.00  0.00    +0.044 C 
ENDBRANCH  28  35
ENDBRANCH  25  28
ENDBRANCH   1  25
TORSDOF 5
