REMARK  Name = ZINC16886884
REMARK  10 active torsions:
REMARK  status: ('A' for Active; 'I' for Inactive)
REMARK    1  A    between atoms: C_1  and  C_2
REMARK    2  A    between atoms: C_2  and  C_3
REMARK    3  A    between atoms: C_2  and  O_4
REMARK    4  A    between atoms: O_4  and  C_5
REMARK    5  A    between atoms: C_8  and  C_11
REMARK    6  A    between atoms: C_12  and  C_13
REMARK    7  A    between atoms: C_12  and  N_23
REMARK    8  A    between atoms: N_15  and  C_16
REMARK    9  A    between atoms: C_21  and  O_22
REMARK   10  A    between atoms: C_24  and  C_26
REMARK                            x       y       z     vdW  Elec       q    Type
REMARK                         _______ _______ _______ _____ _____    ______ ____
ROOT
ATOM      1  C   UNL     1      -0.345   1.346   4.898  0.00  0.00    +0.036 C 
ATOM      2  C   UNL     1      -0.180   0.004   4.827  0.00  0.00    +0.097 C 
ENDROOT
BRANCH   1   6
ATOM      3  C   UNL     1      -0.369   3.281   8.672  0.00  0.00    +0.121 A 
ATOM      4  C   UNL     1      -0.005   3.989   7.533  0.00  0.00    +0.046 A 
ATOM      5  C   UNL     1       0.004   3.366   6.306  0.00  0.00    +0.011 A 
ATOM      6  C   UNL     1      -0.354   2.016   6.206  0.00  0.00    -0.023 A 
ATOM      7  C   UNL     1      -0.725   1.309   7.356  0.00  0.00    +0.011 A 
ATOM      8  C   UNL     1      -0.726   1.941   8.579  0.00  0.00    +0.046 A 
BRANCH   3   9
ATOM      9  O   UNL     1      -0.378   3.901   9.881  0.00  0.00    -0.489 OA
BRANCH   9  11
ATOM     10  C   UNL     1      -0.746   5.934  11.134  0.00  0.00    +0.051 C 
ATOM     11  C   UNL     1      -0.113   5.305   9.891  0.00  0.00    +0.167 C 
ATOM     12  C   UNL     1       1.399   5.538   9.916  0.00  0.00    +0.051 C 
ENDBRANCH   9  11
ENDBRANCH   3   9
ENDBRANCH   1   6
BRANCH   2  13
ATOM     13  C   UNL     1      -0.080  -0.655   3.518  0.00  0.00    +0.263 C 
ATOM     14  O   UNL     1      -0.021  -1.869   3.450  0.00  0.00    -0.268 OA
ATOM     15  N   UNL     1      -0.054   0.085   2.392  0.00  0.00    -0.278 N 
ATOM     16  H   UNL     1      -0.015   1.052   2.448  0.00  0.00    +0.155 HD
BRANCH  15  17
ATOM     17  C   UNL     1      -0.083  -0.544   1.141  0.00  0.00    +0.076 A 
ATOM     18  C   UNL     1      -0.637  -1.809   1.011  0.00  0.00    +0.027 A 
ATOM     19  C   UNL     1      -0.664  -2.427  -0.225  0.00  0.00    +0.002 A 
ATOM     20  C   UNL     1      -0.141  -1.788  -1.334  0.00  0.00    +0.004 A 
ATOM     21  C   UNL     1       0.407  -0.524  -1.213  0.00  0.00    +0.047 A 
ATOM     22  C   UNL     1       0.444   0.100   0.023  0.00  0.00    +0.138 A 
BRANCH  22  23
ATOM     23  O   UNL     1       0.988   1.340   0.144  0.00  0.00    -0.505 OA
ATOM     24  H   UNL     1       1.935   1.337   0.343  0.00  0.00    +0.292 HD
ENDBRANCH  22  23
ENDBRANCH  15  17
ENDBRANCH   2  13
BRANCH   2  25
ATOM     25  N   UNL     1      -0.103  -0.756   5.999  0.00  0.00    -0.277 N 
ATOM     26  C   UNL     1      -1.002  -1.733   6.229  0.00  0.00    +0.250 C 
ATOM     27  O   UNL     1      -1.826  -2.014   5.380  0.00  0.00    -0.270 OA
ATOM     28  H   UNL     1       0.597  -0.578   6.647  0.00  0.00    +0.155 HD
BRANCH  26  29
ATOM     29  C   UNL     1      -0.987  -2.463   7.513  0.00  0.00    +0.055 A 
ATOM     30  C   UNL     1      -0.043  -2.143   8.491  0.00  0.00    +0.016 A 
ATOM     31  C   UNL     1      -0.033  -2.829   9.686  0.00  0.00    +0.021 A 
ATOM     32  C   UNL     1      -0.959  -3.833   9.921  0.00  0.00    +0.042 A 
ATOM     33  C   UNL     1      -1.898  -4.156   8.956  0.00  0.00    +0.040 A 
ATOM     34  C   UNL     1      -1.922  -3.474   7.756  0.00  0.00    +0.054 A 
ATOM     35 CL   UNL     1      -3.105  -3.874   6.551  0.00  0.00    -0.083 Cl
ATOM     36 CL   UNL     1      -0.939  -4.691  11.430  0.00  0.00    -0.083 Cl
ENDBRANCH  26  29
ENDBRANCH   2  25
TORSDOF 8
