REMARK  Name = ZINC13673922
REMARK  12 active torsions:
REMARK  status: ('A' for Active; 'I' for Inactive)
REMARK    1  A    between atoms: C_1  and  C_2
REMARK    2  A    between atoms: C_2  and  O_3
REMARK    3  A    between atoms: O_3  and  C_4
REMARK    4  A    between atoms: C_4  and  C_6
REMARK    5  A    between atoms: C_9  and  N_13
REMARK    6  A    between atoms: C_10  and  C_12
REMARK    7  A    between atoms: C_14  and  C_16
REMARK    8  A    between atoms: C_20  and  S_22
REMARK    9  A    between atoms: S_22  and  N_25
REMARK   10  A    between atoms: N_25  and  C_26
REMARK   11  A    between atoms: C_29  and  C_33
REMARK   12  A    between atoms: C_31  and  C_32
REMARK                            x       y       z     vdW  Elec       q    Type
REMARK                         _______ _______ _______ _____ _____    ______ ____
ROOT
ATOM      1  C   UNL     1       3.160   0.367  -4.854  0.00  0.00    +0.039 A 
ATOM      2  C   UNL     1       2.000   1.028  -5.262  0.00  0.00    +0.014 A 
ATOM      3  C   UNL     1       1.010   1.308  -4.343  0.00  0.00    +0.023 A 
ATOM      4  C   UNL     1       1.163   0.931  -3.019  0.00  0.00    +0.068 A 
ATOM      5  C   UNL     1       2.314   0.280  -2.607  0.00  0.00    +0.127 A 
ATOM      6  C   UNL     1       3.311  -0.006  -3.517  0.00  0.00    +0.043 A 
ATOM      7 CL   UNL     1      -0.090   1.281  -1.870  0.00  0.00    -0.082 Cl
ENDROOT
BRANCH   1   9
ATOM      8  N   UNL     1       4.076   0.424  -7.122  0.00  0.00    -0.281 N 
ATOM      9  C   UNL     1       4.224   0.063  -5.833  0.00  0.00    +0.248 C 
ATOM     10  O   UNL     1       5.233  -0.513  -5.475  0.00  0.00    -0.270 OA
ATOM     11  H   UNL     1       3.238   0.809  -7.425  0.00  0.00    +0.155 HD
BRANCH   8  15
ATOM     12  C   UNL     1       7.213  -0.113  -9.808  0.00  0.00    +0.059 A 
ATOM     13  C   UNL     1       7.474   0.007  -8.440  0.00  0.00    +0.017 A 
ATOM     14  C   UNL     1       6.436   0.185  -7.555  0.00  0.00    +0.024 A 
ATOM     15  C   UNL     1       5.125   0.245  -8.021  0.00  0.00    +0.037 A 
ATOM     16  C   UNL     1       4.861   0.120  -9.382  0.00  0.00    -0.028 A 
ATOM     17  C   UNL     1       5.896  -0.052 -10.273  0.00  0.00    +0.020 A 
ATOM     18  C   UNL     1       3.440   0.179  -9.880  0.00  0.00    +0.045 C 
BRANCH  12  19
ATOM     19  C   UNL     1       8.323  -0.303 -10.759  0.00  0.00    +0.339 C 
ATOM     20  O   UNL     1       8.094  -0.408 -11.948  0.00  0.00    -0.245 OA
BRANCH  19  21
ATOM     21  O   UNL     1       9.592  -0.361 -10.310  0.00  0.00    -0.461 OA
BRANCH  21  23
ATOM     22  C   UNL     1      11.998  -0.591 -10.609  0.00  0.00    +0.048 C 
ATOM     23  C   UNL     1      10.635  -0.550 -11.303  0.00  0.00    +0.229 C 
ENDBRANCH  21  23
ENDBRANCH  19  21
ENDBRANCH  12  19
ENDBRANCH   8  15
ENDBRANCH   1   9
BRANCH   5  24
ATOM     24  S   UNL     1       2.502  -0.191  -0.920  0.00  0.00    +0.074 S 
ATOM     25  O   UNL     1       3.792  -0.773  -0.802  0.00  0.00    -0.150 OA
ATOM     26  O   UNL     1       1.316  -0.885  -0.557  0.00  0.00    -0.150 OA
BRANCH  24  27
ATOM     27  N   UNL     1       2.527   1.202  -0.023  0.00  0.00    -0.216 N 
ATOM     28  H   UNL     1       1.790   1.407   0.574  0.00  0.00    +0.174 HD
BRANCH  27  29
ATOM     29  C   UNL     1       3.608   2.079  -0.127  0.00  0.00    +0.051 A 
ATOM     30  C   UNL     1       4.272   2.227  -1.338  0.00  0.00    +0.025 A 
ATOM     31  C   UNL     1       5.344   3.091  -1.435  0.00  0.00    +0.005 A 
ATOM     32  C   UNL     1       5.752   3.817  -0.331  0.00  0.00    -0.050 A 
ATOM     33  C   UNL     1       5.093   3.673   0.876  0.00  0.00    +0.008 A 
ATOM     34  C   UNL     1       4.023   2.806   0.982  0.00  0.00    -0.028 A 
ATOM     35  C   UNL     1       3.306   2.650   2.298  0.00  0.00    +0.046 C 
ATOM     36  C   UNL     1       6.920   4.763  -0.442  0.00  0.00    +0.044 C 
ENDBRANCH  27  29
ENDBRANCH  24  27
ENDBRANCH   5  24
TORSDOF 8
