REMARK  Name = ZINC36698919
REMARK  19 active torsions:
REMARK  status: ('A' for Active; 'I' for Inactive)
REMARK    1  A    between atoms: C_1  and  C_2
REMARK    2  A    between atoms: C_2  and  N_3
REMARK    3  A    between atoms: N_3  and  C_4
REMARK    4  A    between atoms: N_3  and  C_6
REMARK    5  A    between atoms: C_4  and  C_5
REMARK    6  A    between atoms: C_6  and  C_7
REMARK    7  A    between atoms: C_7  and  N_8
REMARK    8  A    between atoms: C_13  and  C_19
REMARK    9  A    between atoms: C_14  and  C_18
REMARK   10  A    between atoms: C_20  and  C_22
REMARK   11  A    between atoms: C_24  and  O_34
REMARK   12  A    between atoms: C_25  and  O_31
REMARK   13  A    between atoms: C_26  and  O_28
REMARK   14  A    between atoms: O_28  and  C_29
REMARK   15  A    between atoms: C_29  and  C_30
REMARK   16  A    between atoms: O_31  and  C_32
REMARK   17  A    between atoms: C_32  and  C_33
REMARK   18  A    between atoms: O_34  and  C_35
REMARK   19  A    between atoms: C_35  and  C_36
REMARK                            x       y       z     vdW  Elec       q    Type
REMARK                         _______ _______ _______ _____ _____    ______ ____
ROOT
ATOM      1  N   UNL     1       0.098  -3.267   1.061  0.00  0.00    -0.248 N 
ATOM      2  C   UNL     1       1.159  -3.926   0.465  0.00  0.00    +0.168 A 
ATOM      3  N   UNL     1       1.654  -3.768  -0.741  0.00  0.00    -0.224 NA
ATOM      4  C   UNL     1       2.704  -4.487  -1.195  0.00  0.00    +0.081 A 
ATOM      5  C   UNL     1       3.328  -4.416  -2.462  0.00  0.00    +0.032 A 
ATOM      6  C   UNL     1       4.392  -5.225  -2.764  0.00  0.00    -0.045 A 
ATOM      7  C   UNL     1       4.893  -6.137  -1.846  0.00  0.00    -0.046 A 
ATOM      8  C   UNL     1       4.307  -6.233  -0.598  0.00  0.00    +0.021 A 
ATOM      9  C   UNL     1       3.241  -5.427  -0.286  0.00  0.00    +0.041 A 
ATOM     10  S   UNL     1       2.210  -5.203   1.144  0.00  0.00    -0.052 S 
ATOM     11  C   UNL     1       6.065  -7.014  -2.207  0.00  0.00    +0.044 C 
ATOM     12  C   UNL     1       5.032  -5.122  -4.124  0.00  0.00    +0.044 C 
ATOM     13  C   UNL     1      -0.259  -3.570   2.325  0.00  0.00    +0.252 C 
ATOM     14  O   UNL     1       0.405  -4.356   2.973  0.00  0.00    -0.270 OA
ENDROOT
BRANCH  13  15
ATOM     15  C   UNL     1      -1.456  -2.947   2.923  0.00  0.00    +0.044 A 
ATOM     16  C   UNL     1      -2.513  -3.746   3.366  0.00  0.00    +0.062 A 
ATOM     17  C   UNL     1      -3.633  -3.160   3.925  0.00  0.00    +0.166 A 
ATOM     18  C   UNL     1      -3.708  -1.775   4.048  0.00  0.00    +0.204 A 
ATOM     19  C   UNL     1      -2.655  -0.977   3.608  0.00  0.00    +0.166 A 
ATOM     20  C   UNL     1      -1.531  -1.558   3.053  0.00  0.00    +0.062 A 
BRANCH  19  21
ATOM     21  O   UNL     1      -2.731   0.376   3.730  0.00  0.00    -0.488 OA
BRANCH  21  22
ATOM     22  C   UNL     1      -1.616   1.133   3.258  0.00  0.00    +0.226 C 
ATOM     23  C   UNL     1      -1.882   2.624   3.477  0.00  0.00    +0.048 C 
ENDBRANCH  21  22
ENDBRANCH  19  21
BRANCH  18  24
ATOM     24  O   UNL     1      -4.810  -1.202   4.599  0.00  0.00    -0.485 OA
BRANCH  24  25
ATOM     25  C   UNL     1      -4.799  -1.001   6.014  0.00  0.00    +0.226 C 
ATOM     26  C   UNL     1      -6.114  -0.349   6.446  0.00  0.00    +0.048 C 
ENDBRANCH  24  25
ENDBRANCH  18  24
BRANCH  17  27
ATOM     27  O   UNL     1      -4.663  -3.937   4.356  0.00  0.00    -0.488 OA
BRANCH  27  28
ATOM     28  C   UNL     1      -4.475  -5.352   4.301  0.00  0.00    +0.226 C 
ATOM     29  C   UNL     1      -5.764  -6.055   4.731  0.00  0.00    +0.048 C 
ENDBRANCH  27  28
ENDBRANCH  17  27
ENDBRANCH  13  15
BRANCH   1  30
ATOM     30  C   UNL     1      -0.638  -2.241   0.318  0.00  0.00    +0.097 C 
BRANCH  30  31
ATOM     31  C   UNL     1      -1.878  -2.868  -0.324  0.00  0.00    -0.059 C 
BRANCH  31  32
ATOM     32  N   UNL     1      -2.584  -1.853  -1.117  0.00  0.00    +0.380 N 
ATOM     33  H   UNL     1      -2.748  -1.036  -0.548  0.00  0.00    -0.082 HD
BRANCH  32  35
ATOM     34  C   UNL     1      -2.476  -0.385  -3.075  0.00  0.00    -0.017 C 
ATOM     35  C   UNL     1      -1.766  -1.483  -2.280  0.00  0.00    -0.082 C 
ENDBRANCH  32  35
BRANCH  32  36
ATOM     36  C   UNL     1      -3.869  -2.396  -1.576  0.00  0.00    -0.082 C 
ATOM     37  C   UNL     1      -4.750  -2.713  -0.365  0.00  0.00    -0.017 C 
ENDBRANCH  32  36
ENDBRANCH  31  32
ENDBRANCH  30  31
ENDBRANCH   1  30
TORSDOF 12
