REMARK  Name = ZINC02239592
REMARK  9 active torsions:
REMARK  status: ('A' for Active; 'I' for Inactive)
REMARK    1  A    between atoms: C_1  and  C_2
REMARK    2  A    between atoms: C_2  and  C_3
REMARK    3  A    between atoms: C_2  and  C_4
REMARK    4  A    between atoms: C_15  and  S_27
REMARK    5  A    between atoms: C_19  and  S_22
REMARK    6  A    between atoms: S_22  and  C_23
REMARK    7  A    between atoms: C_23  and  C_24
REMARK    8  A    between atoms: S_27  and  C_28
REMARK    9  A    between atoms: C_28  and  C_29
REMARK                            x       y       z     vdW  Elec       q    Type
REMARK                         _______ _______ _______ _____ _____    ______ ____
ROOT
ATOM      1  C   UNL     1       4.432  -0.122   0.395  0.00  0.00    +0.126 C 
ATOM      2  C   UNL     1       3.786   1.200  -0.029  0.00  0.00    +0.068 C 
ATOM      3  C   UNL     1       2.271   1.011  -0.015  0.00  0.00    -0.020 A 
ATOM      4  C   UNL     1       1.755  -0.241  -0.018  0.00  0.00    +0.021 A 
ATOM      5  S   UNL     1       0.002  -0.004   0.002  0.00  0.00    -0.072 S 
ATOM      6  C   UNL     1      -0.022   1.772   0.012  0.00  0.00    +0.101 A 
ATOM      7  C   UNL     1       1.323   2.120   0.001  0.00  0.00    +0.055 A 
ATOM      8  C   UNL     1       1.614   3.578   0.007  0.00  0.00    +0.174 A 
ATOM      9  N   UNL     1       2.730   4.264   0.002  0.00  0.00    -0.128 NA
ATOM     10  N   UNL     1       2.467   5.524   0.012  0.00  0.00    -0.122 NA
ATOM     11  C   UNL     1       1.167   5.716   0.024  0.00  0.00    +0.199 A 
ATOM     12  N   UNL     1       0.579   4.480   0.021  0.00  0.00    -0.237 N 
ATOM     13  C   UNL     1      -0.739   4.053   0.030  0.00  0.00    +0.245 A 
ATOM     14  N   UNL     1      -1.028   2.712   0.021  0.00  0.00    -0.249 N 
ATOM     15  C   UNL     1      -2.395   2.627   0.028  0.00  0.00    +0.198 A 
ATOM     16  N   UNL     1      -2.857   3.855   0.036  0.00  0.00    -0.120 NA
ATOM     17  N   UNL     1      -1.882   4.693   0.042  0.00  0.00    -0.109 NA
ATOM     18  C   UNL     1       2.532  -1.520  -0.035  0.00  0.00    +0.203 C 
ATOM     19  O   UNL     1       3.893  -1.204  -0.370  0.00  0.00    -0.371 OA
ENDROOT
BRANCH   1  21
ATOM     20  C   UNL     1       6.592  -1.363   0.591  0.00  0.00    +0.010 C 
ATOM     21  C   UNL     1       5.943  -0.044   0.168  0.00  0.00    +0.012 C 
ATOM     22  C   UNL     1       6.223   0.210  -1.315  0.00  0.00    +0.010 C 
ENDBRANCH   1  21
BRANCH  15  23
ATOM     23  S   UNL     1      -3.353   1.148   0.024  0.00  0.00    -0.076 S 
BRANCH  23  24
ATOM     24  C   UNL     1      -5.069   1.737   0.036  0.00  0.00    +0.172 C 
BRANCH  24  25
ATOM     25  C   UNL     1      -6.005   0.556   0.034  0.00  0.00    +0.221 C 
ATOM     26  O   UNL     1      -5.558  -0.572   0.026  0.00  0.00    -0.275 OA
ATOM     27  N   UNL     1      -7.338   0.753   0.041  0.00  0.00    -0.329 N 
ATOM     28  H   UNL     1      -7.695   1.655   0.048  0.00  0.00    +0.145 HD
ATOM     29  H   UNL     1      -7.940  -0.007   0.040  0.00  0.00    +0.145 HD
ENDBRANCH  24  25
ENDBRANCH  23  24
ENDBRANCH  15  23
BRANCH  11  30
ATOM     30  S   UNL     1       0.339   7.270   0.041  0.00  0.00    -0.076 S 
BRANCH  30  31
ATOM     31  C   UNL     1       1.685   8.486   0.037  0.00  0.00    +0.172 C 
BRANCH  31  32
ATOM     32  C   UNL     1       1.107   9.877   0.051  0.00  0.00    +0.221 C 
ATOM     33  O   UNL     1      -0.096  10.033   0.061  0.00  0.00    -0.275 OA
ATOM     34  N   UNL     1       1.925  10.948   0.050  0.00  0.00    -0.329 N 
ATOM     35  H   UNL     1       2.887  10.822   0.042  0.00  0.00    +0.145 HD
ATOM     36  H   UNL     1       1.553  11.843   0.059  0.00  0.00    +0.145 HD
ENDBRANCH  31  32
ENDBRANCH  30  31
ENDBRANCH  11  30
TORSDOF 7
