REMARK  Name = ZINC20467670
REMARK  8 active torsions:
REMARK  status: ('A' for Active; 'I' for Inactive)
REMARK    1  A    between atoms: C_3  and  S_21
REMARK    2  A    between atoms: C_6  and  C_7
REMARK    3  A    between atoms: C_7  and  C_8
REMARK    4  A    between atoms: C_8  and  N_9
REMARK    5  A    between atoms: N_9  and  S_10
REMARK    6  A    between atoms: S_10  and  C_13
REMARK    7  A    between atoms: C_18  and  N_19
REMARK    8  A    between atoms: S_21  and  N_24
REMARK                            x       y       z     vdW  Elec       q    Type
REMARK                         _______ _______ _______ _____ _____    ______ ____
ROOT
ATOM      1  N   UNL     1      -0.842   1.622  -1.308  0.00  0.00    -0.190 NA
ATOM      2  H   UNL     1      -1.903   1.907  -1.353  0.00  0.00    +0.148 HD
ENDROOT
BRANCH   1   3
ATOM      3  S   UNL     1       0.062   1.649  -2.696  0.00  0.00    +0.062 S 
ATOM      4  O   UNL     1      -0.744   2.260  -3.694  0.00  0.00    -0.153 OA
ATOM      5  O   UNL     1       1.342   2.151  -2.337  0.00  0.00    -0.153 OA
BRANCH   3   6
ATOM      6  C   UNL     1       0.300  -0.024  -3.195  0.00  0.00    +0.146 A 
ATOM      7  C   UNL     1       1.569  -0.575  -3.219  0.00  0.00    +0.048 A 
ATOM      8  C   UNL     1       1.709  -1.898  -3.619  0.00  0.00    +0.038 A 
ATOM      9  C   UNL     1       0.587  -2.619  -3.978  0.00  0.00    +0.128 A 
ATOM     10  N   UNL     1      -0.611  -2.067  -3.945  0.00  0.00    -0.238 NA
ATOM     11  C   UNL     1      -0.786  -0.810  -3.564  0.00  0.00    +0.143 A 
ATOM     12 BR   UNL     1       3.419  -2.703  -3.671  0.00  0.00    -0.049 Br
BRANCH  11  13
ATOM     13  N   UNL     1      -2.068  -0.271  -3.539  0.00  0.00    -0.342 N 
ATOM     14  H   UNL     1      -2.930  -0.888  -3.830  0.00  0.00    +0.144 HD
ATOM     15  H   UNL     1      -2.219   0.774  -3.228  0.00  0.00    +0.144 HD
ENDBRANCH  11  13
ENDBRANCH   3   6
ENDBRANCH   1   3
BRANCH   1  16
ATOM     16  C   UNL     1      -0.295   1.020  -0.090  0.00  0.00    +0.110 C 
BRANCH  16  17
ATOM     17  C   UNL     1      -1.135   1.452   1.114  0.00  0.00    +0.052 C 
BRANCH  17  23
ATOM     18  C   UNL     1      -1.029  -0.402   2.792  0.00  0.00    +0.005 A 
ATOM     19  C   UNL     1      -0.510  -0.972   3.940  0.00  0.00    +0.029 A 
ATOM     20  C   UNL     1       0.458  -0.304   4.667  0.00  0.00    +0.105 A 
ATOM     21  C   UNL     1       0.909   0.932   4.245  0.00  0.00    +0.029 A 
ATOM     22  C   UNL     1       0.394   1.500   3.095  0.00  0.00    +0.005 A 
ATOM     23  C   UNL     1      -0.573   0.833   2.367  0.00  0.00    -0.046 A 
BRANCH  20  24
ATOM     24  S   UNL     1       1.116  -1.030   6.132  0.00  0.00    +0.056 S 
ATOM     25  O   UNL     1       0.922  -2.432   6.013  0.00  0.00    -0.153 OA
ATOM     26  O   UNL     1       2.399  -0.452   6.330  0.00  0.00    -0.153 OA
BRANCH  24  27
ATOM     27  N   UNL     1       0.170  -0.526   7.395  0.00  0.00    -0.204 NA
ATOM     28  H   UNL     1       0.549  -0.959   8.332  0.00  0.00    +0.144 HD
ATOM     29  H   UNL     1      -0.866  -0.857   7.231  0.00  0.00    +0.144 HD
ENDBRANCH  24  27
ENDBRANCH  20  24
ENDBRANCH  17  23
ENDBRANCH  16  17
ENDBRANCH   1  16
TORSDOF 8
