REMARK  Name = ZINC14463552
REMARK  12 active torsions:
REMARK  status: ('A' for Active; 'I' for Inactive)
REMARK    1  A    between atoms: C_1  and  C_2
REMARK    2  A    between atoms: C_2  and  N_69
REMARK    3  A    between atoms: C_3  and  C_4
REMARK    4  A    between atoms: C_3  and  N_69
REMARK    5  A    between atoms: C_5  and  C_6
REMARK    6  A    between atoms: C_5  and  N_69
REMARK    7  A    between atoms: C_6  and  N_7
REMARK    8  A    between atoms: C_8  and  C_10
REMARK    9  A    between atoms: C_23  and  C_26
REMARK   10  A    between atoms: C_29  and  C_32
REMARK   11  A    between atoms: C_32  and  C_33
REMARK   12  A    between atoms: C_32  and  C_34
REMARK                            x       y       z     vdW  Elec       q    Type
REMARK                         _______ _______ _______ _____ _____    ______ ____
ROOT
ATOM      1  C   UNL     1      -1.964   0.516   0.526  0.00  0.00    +0.037 A 
ATOM      2  C   UNL     1      -1.554   1.847   0.403  0.00  0.00    +0.015 A 
ATOM      3  C   UNL     1      -2.489   2.843   0.252  0.00  0.00    +0.024 A 
ATOM      4  C   UNL     1      -3.849   2.541   0.233  0.00  0.00    +0.031 A 
ATOM      5  C   UNL     1      -4.258   1.204   0.350  0.00  0.00    -0.019 A 
ATOM      6  C   UNL     1      -3.327   0.207   0.500  0.00  0.00    +0.019 A 
ATOM      7  C   UNL     1      -5.710   0.928   0.284  0.00  0.00    +0.049 C 
ATOM      8  C   UNL     1      -6.313  -0.267   0.929  0.00  0.00    -0.023 C 
ATOM      9  C   UNL     1      -7.547   0.036   1.312  0.00  0.00    -0.030 C 
ATOM     10  C   UNL     1      -7.857   1.496   0.975  0.00  0.00    +0.033 C 
ATOM     11  C   UNL     1      -6.453   2.115   0.967  0.00  0.00    +0.029 C 
ATOM     12  C   UNL     1      -6.226   3.310   0.059  0.00  0.00    +0.105 C 
ATOM     13  N   UNL     1      -4.772   3.577   0.106  0.00  0.00    -0.336 N 
ATOM     14  H   UNL     1      -4.455   4.492   0.049  0.00  0.00    +0.147 HD
ENDROOT
BRANCH  12  15
ATOM     15  C   UNL     1      -6.649   2.981  -1.349  0.00  0.00    -0.027 A 
ATOM     16  C   UNL     1      -5.736   2.446  -2.238  0.00  0.00    +0.006 A 
ATOM     17  C   UNL     1      -6.125   2.140  -3.529  0.00  0.00    +0.004 A 
ATOM     18  C   UNL     1      -7.425   2.378  -3.933  0.00  0.00    -0.045 A 
ATOM     19  C   UNL     1      -8.337   2.918  -3.046  0.00  0.00    +0.004 A 
ATOM     20  C   UNL     1      -7.949   3.220  -1.754  0.00  0.00    +0.006 A 
BRANCH  18  21
ATOM     21  C   UNL     1      -7.848   2.049  -5.342  0.00  0.00    +0.013 C 
ATOM     22  C   UNL     1      -7.001   2.852  -6.330  0.00  0.00    +0.012 C 
ATOM     23  C   UNL     1      -7.650   0.553  -5.597  0.00  0.00    +0.012 C 
ENDBRANCH  18  21
ENDBRANCH  12  15
BRANCH   1  25
ATOM     24  N   UNL     1       0.350  -0.255   0.706  0.00  0.00    -0.313 N 
ATOM     25  C   UNL     1      -0.964  -0.556   0.688  0.00  0.00    +0.244 C 
ATOM     26  O   UNL     1      -1.324  -1.712   0.799  0.00  0.00    -0.270 OA
ATOM     27  H   UNL     1       0.637   0.667   0.617  0.00  0.00    +0.149 HD
BRANCH  24  28
ATOM     28  C   UNL     1       1.344  -1.321   0.860  0.00  0.00    +0.086 C 
BRANCH  28  29
ATOM     29  C   UNL     1       2.748  -0.714   0.849  0.00  0.00    -0.060 C 
BRANCH  29  30
ATOM     30  N   UNL     1       3.727  -1.780   1.148  0.00  0.00    +0.380 N 
ATOM     31  H   UNL     1       3.359  -2.368   1.905  0.00  0.00    -0.082 HD
BRANCH  30  33
ATOM     32  C   UNL     1       4.779  -3.838   0.345  0.00  0.00    -0.017 C 
ATOM     33  C   UNL     1       3.942  -2.619  -0.050  0.00  0.00    -0.082 C 
ENDBRANCH  30  33
BRANCH  30  34
ATOM     34  C   UNL     1       5.008  -1.183   1.582  0.00  0.00    -0.082 C 
ATOM     35  C   UNL     1       4.865  -0.721   3.034  0.00  0.00    -0.017 C 
ENDBRANCH  30  34
ENDBRANCH  29  30
ENDBRANCH  28  29
ENDBRANCH  24  28
ENDBRANCH   1  25
TORSDOF 8
