REMARK  Name = ZINC41080058
REMARK  6 active torsions:
REMARK  status: ('A' for Active; 'I' for Inactive)
REMARK    1  A    between atoms: C_1  and  C_2
REMARK    2  A    between atoms: C_5  and  O_9
REMARK    3  A    between atoms: C_6  and  C_8
REMARK    4  A    between atoms: O_9  and  C_10
REMARK    5  A    between atoms: C_13  and  N_19
REMARK    6  A    between atoms: C_15  and  C_16
REMARK                            x       y       z     vdW  Elec       q    Type
REMARK                         _______ _______ _______ _____ _____    ______ ____
ROOT
ATOM      1  C   UNL     1      -0.044  -4.761  -1.218  0.00  0.00    +0.141 A 
ATOM      2  C   UNL     1      -0.058  -4.025  -2.393  0.00  0.00    +0.049 A 
ATOM      3  C   UNL     1      -0.163  -4.666  -3.611  0.00  0.00    +0.026 A 
ATOM      4  C   UNL     1      -0.254  -6.053  -3.669  0.00  0.00    +0.025 A 
ATOM      5  C   UNL     1      -0.241  -6.800  -2.504  0.00  0.00    +0.039 A 
ATOM      6  C   UNL     1      -0.130  -6.159  -1.268  0.00  0.00    +0.080 A 
ENDROOT
BRANCH   6   7
ATOM      7  C   UNL     1      -0.110  -6.948  -0.022  0.00  0.00    +0.245 C 
ATOM      8  O   UNL     1      -0.018  -6.387   1.052  0.00  0.00    -0.270 OA
ATOM      9  N   UNL     1      -0.192  -8.293  -0.075  0.00  0.00    -0.325 N 
ATOM     10  H   UNL     1      -0.266  -8.741  -0.932  0.00  0.00    +0.145 HD
ATOM     11  H   UNL     1      -0.179  -8.812   0.744  0.00  0.00    +0.145 HD
ENDBRANCH   6   7
BRANCH   4  12
ATOM     12  N   UNL     1      -0.360  -6.694  -4.909  0.00  0.00    -0.358 N 
ATOM     13  H   UNL     1      -0.369  -6.171  -5.726  0.00  0.00    +0.142 HD
ATOM     14  H   UNL     1      -0.424  -7.661  -4.951  0.00  0.00    +0.142 HD
ENDBRANCH   4  12
BRANCH   1  15
ATOM     15  O   UNL     1       0.058  -4.129  -0.021  0.00  0.00    -0.455 OA
BRANCH  15  20
ATOM     16  C   UNL     1      -0.101   1.501   0.017  0.00  0.00    +0.044 C 
ATOM     17  C   UNL     1      -0.058  -0.005   0.007  0.00  0.00    -0.050 A 
ATOM     18  C   UNL     1       1.159  -0.662   0.040  0.00  0.00    +0.007 A 
ATOM     19  C   UNL     1       1.200  -2.042   0.031  0.00  0.00    +0.047 A 
ATOM     20  C   UNL     1       0.020  -2.771  -0.011  0.00  0.00    +0.131 A 
ATOM     21  C   UNL     1      -1.200  -2.110  -0.044  0.00  0.00    -0.008 A 
ATOM     22  C   UNL     1      -1.236  -0.729  -0.030  0.00  0.00    +0.010 A 
ATOM     23  C   UNL     1      -2.483  -2.897  -0.091  0.00  0.00    +0.047 C 
ENDBRANCH  15  20
ENDBRANCH   1  15
TORSDOF 4
