REMARK  Name = ZINC33326906
REMARK  10 active torsions:
REMARK  status: ('A' for Active; 'I' for Inactive)
REMARK    1  A    between atoms: C_1  and  C_2
REMARK    2  A    between atoms: C_4  and  C_34
REMARK    3  A    between atoms: C_5  and  S_9
REMARK    4  A    between atoms: C_6  and  C_8
REMARK    5  A    between atoms: S_9  and  N_12
REMARK    6  A    between atoms: N_12  and  C_13
REMARK    7  A    between atoms: C_16  and  N_19
REMARK    8  A    between atoms: C_22  and  N_27
REMARK    9  A    between atoms: C_24  and  C_26
REMARK   10  A    between atoms: N_27  and  C_28
REMARK                            x       y       z     vdW  Elec       q    Type
REMARK                         _______ _______ _______ _____ _____    ______ ____
ROOT
ATOM      1  C   UNL     1       2.710   0.379   0.217  0.00  0.00    +0.048 A 
ATOM      2  C   UNL     1       1.617  -0.358  -0.221  0.00  0.00    +0.026 A 
ATOM      3  C   UNL     1       0.365   0.223  -0.263  0.00  0.00    +0.025 A 
ATOM      4  C   UNL     1       0.199   1.544   0.132  0.00  0.00    +0.032 A 
ATOM      5  C   UNL     1       1.291   2.281   0.570  0.00  0.00    +0.025 A 
ATOM      6  C   UNL     1       2.543   1.700   0.612  0.00  0.00    +0.026 A 
ENDROOT
BRANCH   4   7
ATOM      7  N   UNL     1      -1.070   2.135   0.084  0.00  0.00    -0.301 N 
ATOM      8  C   UNL     1      -2.166   1.468   0.610  0.00  0.00    +0.105 A 
ATOM      9  C   UNL     1      -1.997   0.287   1.327  0.00  0.00    +0.085 A 
ATOM     10  C   UNL     1      -3.128  -0.344   1.835  0.00  0.00    +0.124 A 
ATOM     11  N   UNL     1      -4.324   0.201   1.617  0.00  0.00    -0.220 NA
ATOM     12  C   UNL     1      -4.443   1.320   0.933  0.00  0.00    +0.107 A 
ATOM     13  N   UNL     1      -3.396   1.950   0.441  0.00  0.00    -0.332 N 
ATOM     14  C   UNL     1      -5.817   1.899   0.711  0.00  0.00    +0.086 C 
ATOM     15  H   UNL     1      -1.198   3.128  -0.372  0.00  0.00    +0.154 HD
ATOM     16  H   UNL     1      -3.548   2.887  -0.115  0.00  0.00    +0.168 HD
BRANCH  10  17
ATOM     17  N   UNL     1      -3.013  -1.522   2.557  0.00  0.00    -0.326 N 
ATOM     18  H   UNL     1      -3.916  -2.050   2.896  0.00  0.00    +0.148 HD
BRANCH  17  19
ATOM     19  C   UNL     1      -1.687  -2.063   2.868  0.00  0.00    +0.072 C 
ATOM     20  C   UNL     1      -1.186  -2.896   1.687  0.00  0.00    +0.022 C 
ATOM     21  C   UNL     1       0.198  -3.462   2.012  0.00  0.00    +0.002 C 
ATOM     22  C   UNL     1       0.108  -4.345   3.258  0.00  0.00    +0.000 C 
ATOM     23  C   UNL     1      -0.393  -3.511   4.439  0.00  0.00    +0.002 C 
ATOM     24  C   UNL     1      -1.777  -2.946   4.114  0.00  0.00    +0.022 C 
ENDBRANCH  17  19
ENDBRANCH  10  17
ENDBRANCH   4   7
BRANCH   1  25
ATOM     25  N   UNL     1       3.979  -0.210   0.260  0.00  0.00    -0.216 N 
ATOM     26  H   UNL     1       4.622  -0.067   1.141  0.00  0.00    +0.174 HD
BRANCH  25  27
ATOM     27  S   UNL     1       4.513  -1.121  -1.015  0.00  0.00    +0.073 S 
ATOM     28  O   UNL     1       5.826  -1.553  -0.684  0.00  0.00    -0.150 OA
ATOM     29  O   UNL     1       3.468  -2.032  -1.329  0.00  0.00    -0.150 OA
BRANCH  27  34
ATOM     30  C   UNL     1       5.054   2.578  -5.750  0.00  0.00    +0.044 C 
ATOM     31  C   UNL     1       4.919   1.655  -4.567  0.00  0.00    -0.050 A 
ATOM     32  C   UNL     1       3.793   0.863  -4.434  0.00  0.00    +0.008 A 
ATOM     33  C   UNL     1       3.669   0.016  -3.349  0.00  0.00    -0.023 A 
ATOM     34  C   UNL     1       4.671  -0.041  -2.398  0.00  0.00    +0.114 A 
ATOM     35  C   UNL     1       5.794   0.755  -2.529  0.00  0.00    -0.023 A 
ATOM     36  C   UNL     1       5.920   1.599  -3.616  0.00  0.00    +0.008 A 
ATOM     37  C   UNL     1       6.883   0.698  -1.488  0.00  0.00    +0.046 C 
ATOM     38  C   UNL     1       2.442  -0.847  -3.203  0.00  0.00    +0.046 C 
ENDBRANCH  27  34
ENDBRANCH  25  27
ENDBRANCH   1  25
TORSDOF 6
