REMARK  Name = ZINC39676575
REMARK  10 active torsions:
REMARK  status: ('A' for Active; 'I' for Inactive)
REMARK    1  A    between atoms: C_1  and  N_2
REMARK    2  A    between atoms: C_6  and  C_7
REMARK    3  A    between atoms: C_11  and  C_20
REMARK    4  A    between atoms: N_22  and  C_23
REMARK    5  A    between atoms: C_23  and  C_24
REMARK    6  A    between atoms: C_23  and  C_32
REMARK    7  A    between atoms: C_27  and  O_30
REMARK    8  A    between atoms: O_30  and  C_31
REMARK    9  A    between atoms: C_35  and  O_38
REMARK   10  A    between atoms: O_38  and  C_39
REMARK                            x       y       z     vdW  Elec       q    Type
REMARK                         _______ _______ _______ _____ _____    ______ ____
ROOT
ATOM      1  C   UNL     1      -3.082   2.536   2.027  0.00  0.00    +0.219 C 
ATOM      2  O   UNL     1      -3.288   1.421   1.597  0.00  0.00    -0.275 OA
ATOM      3  N   UNL     1      -4.083   3.438   2.070  0.00  0.00    -0.304 N 
ATOM      4  H   UNL     1      -3.918   4.330   2.414  0.00  0.00    +0.150 HD
ENDROOT
BRANCH   1   9
ATOM      5  C   UNL     1      -0.177  -0.368   2.470  0.00  0.00    +0.263 C 
ATOM      6  O   UNL     1      -0.113  -1.191   3.364  0.00  0.00    -0.268 OA
ATOM      7  N   UNL     1      -0.385   0.931   2.762  0.00  0.00    -0.295 N 
ATOM      8  C   UNL     1      -0.633   2.046   1.817  0.00  0.00    +0.121 C 
ATOM      9  C   UNL     1      -1.706   2.914   2.512  0.00  0.00    +0.100 C 
ATOM     10  C   UNL     1      -1.558   2.597   4.010  0.00  0.00    -0.004 C 
ATOM     11  C   UNL     1      -0.424   1.566   4.101  0.00  0.00    +0.115 C 
ATOM     12  C   UNL     1      -2.852   1.998   4.553  0.00  0.00    -0.010 C 
ATOM     13  C   UNL     1      -2.699   1.744   6.056  0.00  0.00    -0.082 C 
ATOM     14  N   UNL     1      -2.396   3.008   6.739  0.00  0.00    +0.379 N 
ATOM     15  C   UNL     1      -1.105   3.530   6.277  0.00  0.00    -0.082 C 
ATOM     16  C   UNL     1      -1.190   3.859   4.784  0.00  0.00    -0.010 C 
ATOM     17  H   UNL     1      -3.121   3.680   6.537  0.00  0.00    -0.086 HD
ATOM     18  H   UNL     1      -2.357   2.849   7.735  0.00  0.00    -0.086 HD
BRANCH   5  24
ATOM     19  C   UNL     1      -0.035  -3.291   1.452  0.00  0.00    +0.149 C 
ATOM     20  N   UNL     1       0.036  -2.089   0.618  0.00  0.00    -0.346 N 
ATOM     21  C   UNL     1       0.169  -2.069  -0.731  0.00  0.00    +0.086 A 
ATOM     22  C   UNL     1       0.197  -0.781  -1.149  0.00  0.00    +0.020 A 
ATOM     23  C   UNL     1       0.078   0.039  -0.023  0.00  0.00    +0.032 A 
ATOM     24  C   UNL     1      -0.028  -0.791   1.073  0.00  0.00    +0.104 A 
ENDBRANCH   5  24
ENDBRANCH   1   9
BRANCH   3  25
ATOM     25  C   UNL     1      -5.420   3.070   1.599  0.00  0.00    +0.134 C 
BRANCH  25  26
ATOM     26  C   UNL     1      -6.448   3.939   2.276  0.00  0.00    -0.023 A 
ATOM     27  C   UNL     1      -6.194   5.284   2.472  0.00  0.00    +0.009 A 
ATOM     28  C   UNL     1      -7.135   6.082   3.094  0.00  0.00    +0.046 A 
ATOM     29  C   UNL     1      -8.335   5.534   3.522  0.00  0.00    +0.120 A 
ATOM     30  C   UNL     1      -8.587   4.184   3.324  0.00  0.00    +0.046 A 
ATOM     31  C   UNL     1      -7.646   3.391   2.697  0.00  0.00    +0.009 A 
BRANCH  29  32
ATOM     32  O   UNL     1      -9.262   6.317   4.134  0.00  0.00    -0.495 OA
ATOM     33  C   UNL     1     -10.474   5.684   4.548  0.00  0.00    +0.277 C 
ENDBRANCH  29  32
ENDBRANCH  25  26
BRANCH  25  34
ATOM     34  C   UNL     1      -5.499   3.270   0.107  0.00  0.00    -0.023 A 
ATOM     35  C   UNL     1      -4.896   4.370  -0.475  0.00  0.00    +0.009 A 
ATOM     36  C   UNL     1      -4.967   4.555  -1.842  0.00  0.00    +0.046 A 
ATOM     37  C   UNL     1      -5.644   3.636  -2.631  0.00  0.00    +0.120 A 
ATOM     38  C   UNL     1      -6.248   2.534  -2.045  0.00  0.00    +0.046 A 
ATOM     39  C   UNL     1      -6.169   2.350  -0.678  0.00  0.00    +0.009 A 
BRANCH  37  40
ATOM     40  O   UNL     1      -5.716   3.817  -3.976  0.00  0.00    -0.495 OA
ATOM     41  C   UNL     1      -6.429   2.831  -4.726  0.00  0.00    +0.277 C 
ENDBRANCH  37  40
ENDBRANCH  25  34
ENDBRANCH   3  25
TORSDOF 7
