REMARK  Name = ZINC21082335
REMARK  9 active torsions:
REMARK  status: ('A' for Active; 'I' for Inactive)
REMARK    1  A    between atoms: C_1  and  C_2
REMARK    2  A    between atoms: C_2  and  C_28
REMARK    3  A    between atoms: N_3  and  N_4
REMARK    4  A    between atoms: C_7  and  S_10
REMARK    5  A    between atoms: S_10  and  C_11
REMARK    6  A    between atoms: C_11  and  C_12
REMARK    7  A    between atoms: N_14  and  C_15
REMARK    8  A    between atoms: C_15  and  C_16
REMARK    9  A    between atoms: C_15  and  C_22
REMARK                            x       y       z     vdW  Elec       q    Type
REMARK                         _______ _______ _______ _____ _____    ______ ____
ROOT
ATOM      1  N   UNL     1       6.010   6.032  -0.023  0.00  0.00    -0.205 N 
ATOM      2  C   UNL     1       5.990   7.419  -0.016  0.00  0.00    +0.232 A 
ATOM      3  N   UNL     1       7.084   8.239  -0.022  0.00  0.00    -0.186 NA
ATOM      4  C   UNL     1       6.644   9.531  -0.013  0.00  0.00    +0.211 A 
ATOM      5  N   UNL     1       5.332   9.513  -0.001  0.00  0.00    -0.144 NA
ATOM      6  N   UNL     1       4.918   8.174  -0.009  0.00  0.00    -0.245 N 
ATOM      7  H   UNL     1       6.970   5.495  -0.034  0.00  0.00    +0.177 HD
ATOM      8  H   UNL     1       3.920   7.712  -0.009  0.00  0.00    +0.192 HD
ENDROOT
BRANCH   1  11
ATOM      9  C   UNL     1       6.141   3.280  -0.037  0.00  0.00    +0.068 C 
ATOM     10  C   UNL     1       4.826   4.015  -0.021  0.00  0.00    +0.063 C 
ATOM     11  N   UNL     1       4.807   5.314  -0.015  0.00  0.00    -0.184 NA
BRANCH  10  12
ATOM     12  C   UNL     1       3.560   3.260  -0.013  0.00  0.00    -0.002 A 
ATOM     13  C   UNL     1       3.586   1.852  -0.021  0.00  0.00    +0.010 A 
ATOM     14  C   UNL     1       2.434   1.135  -0.014  0.00  0.00    +0.009 A 
ATOM     15  C   UNL     1       1.192   1.798   0.000  0.00  0.00    -0.018 A 
ATOM     16  C   UNL     1      -0.013   1.076   0.008  0.00  0.00    +0.008 A 
ATOM     17  C   UNL     1      -1.199   1.743   0.017  0.00  0.00    +0.001 A 
ATOM     18  C   UNL     1      -1.239   3.136   0.030  0.00  0.00    +0.001 A 
ATOM     19  C   UNL     1      -0.093   3.870   0.023  0.00  0.00    +0.008 A 
ATOM     20  C   UNL     1       1.152   3.215   0.008  0.00  0.00    -0.017 A 
ATOM     21  C   UNL     1       2.353   3.941   0.001  0.00  0.00    +0.018 A 
ENDBRANCH  10  12
ENDBRANCH   1  11
BRANCH   4  22
ATOM     22  S   UNL     1       7.659  10.972  -0.016  0.00  0.00    -0.075 S 
BRANCH  22  23
ATOM     23  C   UNL     1       6.473  12.344   0.001  0.00  0.00    +0.173 C 
BRANCH  23  24
ATOM     24  C   UNL     1       7.220  13.653  -0.000  0.00  0.00    +0.224 C 
ATOM     25  O   UNL     1       8.433  13.659  -0.011  0.00  0.00    -0.275 OA
ATOM     26  N   UNL     1       6.541  14.817   0.011  0.00  0.00    -0.304 N 
ATOM     27  H   UNL     1       5.441  14.811   0.021  0.00  0.00    +0.150 HD
BRANCH  26  28
ATOM     28  C   UNL     1       7.267  16.089   0.010  0.00  0.00    +0.134 C 
BRANCH  28  29
ATOM     29  C   UNL     1       7.610  16.470  -1.407  0.00  0.00    -0.023 A 
ATOM     30  C   UNL     1       6.695  16.257  -2.421  0.00  0.00    +0.006 A 
ATOM     31  C   UNL     1       7.008  16.611  -3.720  0.00  0.00    +0.000 A 
ATOM     32  C   UNL     1       8.241  17.169  -4.007  0.00  0.00    +0.000 A 
ATOM     33  C   UNL     1       9.158  17.377  -2.994  0.00  0.00    +0.000 A 
ATOM     34  C   UNL     1       8.842  17.028  -1.694  0.00  0.00    +0.006 A 
ENDBRANCH  28  29
BRANCH  28  35
ATOM     35  C   UNL     1       6.403  17.161   0.623  0.00  0.00    -0.023 A 
ATOM     36  C   UNL     1       5.051  17.206   0.338  0.00  0.00    +0.006 A 
ATOM     37  C   UNL     1       4.258  18.187   0.904  0.00  0.00    +0.000 A 
ATOM     38  C   UNL     1       4.818  19.128   1.747  0.00  0.00    +0.000 A 
ATOM     39  C   UNL     1       6.171  19.086   2.027  0.00  0.00    +0.000 A 
ATOM     40  C   UNL     1       6.964  18.103   1.465  0.00  0.00    +0.006 A 
ENDBRANCH  28  35
ENDBRANCH  26  28
ENDBRANCH  23  24
ENDBRANCH  22  23
ENDBRANCH   4  22
TORSDOF 8
