REMARK  Name = ZINC65375872
REMARK  6 active torsions:
REMARK  status: ('A' for Active; 'I' for Inactive)
REMARK    1  A    between atoms: C_4  and  C_7
REMARK    2  A    between atoms: C_7  and  C_8
REMARK    3  A    between atoms: C_8  and  C_9
REMARK    4  A    between atoms: N_11  and  C_24
REMARK    5  A    between atoms: C_12  and  C_15
REMARK    6  A    between atoms: C_15  and  C_16
REMARK                            x       y       z     vdW  Elec       q    Type
REMARK                         _______ _______ _______ _____ _____    ______ ____
ROOT
ATOM      1  C   UNL     1       5.487  -1.699   1.381  0.00  0.00    +0.115 C 
ATOM      2  N   UNL     1       6.104  -2.039   0.309  0.00  0.00    -0.167 NA
ATOM      3  N   UNL     1       7.300  -2.709   0.594  0.00  0.00    -0.202 N 
ATOM      4  C   UNL     1       7.394  -2.768   2.063  0.00  0.00    +0.187 C 
ATOM      5  N   UNL     1       6.174  -2.082   2.521  0.00  0.00    -0.311 N 
ATOM      6  H   UNL     1       5.904  -1.931   3.440  0.00  0.00    +0.149 HD
ENDROOT
BRANCH   3   7
ATOM      7  C   UNL     1       8.217  -3.216  -0.326  0.00  0.00    +0.054 A 
ATOM      8  C   UNL     1       9.363  -3.866   0.118  0.00  0.00    +0.025 A 
ATOM      9  C   UNL     1      10.268  -4.367  -0.797  0.00  0.00    +0.002 A 
ATOM     10  C   UNL     1      10.036  -4.223  -2.153  0.00  0.00    +0.000 A 
ATOM     11  C   UNL     1       8.897  -3.577  -2.598  0.00  0.00    +0.002 A 
ATOM     12  C   UNL     1       7.984  -3.079  -1.690  0.00  0.00    +0.025 A 
ENDBRANCH   3   7
BRANCH   1  13
ATOM     13  C   UNL     1       4.171  -0.963   1.399  0.00  0.00    +0.078 C 
BRANCH  13  14
ATOM     14  C   UNL     1       3.711  -0.707  -0.038  0.00  0.00    +0.042 C 
BRANCH  14  18
ATOM     15  C   UNL     1      -0.017   1.378   0.010  0.00  0.00    +0.000 A 
ATOM     16  C   UNL     1       1.171   2.086   0.002  0.00  0.00    +0.000 A 
ATOM     17  C   UNL     1       2.377   1.411  -0.013  0.00  0.00    +0.003 A 
ATOM     18  C   UNL     1       2.396   0.029  -0.020  0.00  0.00    -0.047 A 
ATOM     19  C   UNL     1       1.208  -0.679  -0.012  0.00  0.00    +0.003 A 
ATOM     20  C   UNL     1       0.002  -0.004   0.002  0.00  0.00    +0.000 A 
ENDBRANCH  14  18
ENDBRANCH  13  14
ENDBRANCH   1  13
BRANCH   4  21
ATOM     21  C   UNL     1       8.641  -2.028   2.552  0.00  0.00    +0.086 C 
BRANCH  21  22
ATOM     22  C   UNL     1       8.780  -2.207   4.042  0.00  0.00    +0.038 A 
ATOM     23  C   UNL     1       9.570  -3.197   4.551  0.00  0.00    +0.123 A 
ATOM     24  N   UNL     1       9.686  -3.347   5.868  0.00  0.00    -0.224 NA
ATOM     25  C   UNL     1       9.049  -2.556   6.708  0.00  0.00    +0.193 A 
ATOM     26  N   UNL     1       8.247  -1.553   6.259  0.00  0.00    -0.295 N 
ATOM     27  C   UNL     1       8.101  -1.355   4.931  0.00  0.00    +0.256 A 
ATOM     28  O   UNL     1       7.391  -0.457   4.511  0.00  0.00    -0.267 OA
ATOM     29  N   UNL     1       9.197  -2.746   8.056  0.00  0.00    -0.329 N 
ATOM     30  H   UNL     1       9.766  -3.459   8.385  0.00  0.00    +0.145 HD
ATOM     31  H   UNL     1       7.785  -0.979   6.890  0.00  0.00    +0.172 HD
ATOM     32  H   UNL     1       8.732  -2.168   8.681  0.00  0.00    +0.145 HD
ENDBRANCH  21  22
ENDBRANCH   4  21
TORSDOF 6
