REMARK  Name = ZINC00958567
REMARK  8 active torsions:
REMARK  status: ('A' for Active; 'I' for Inactive)
REMARK    1  A    between atoms: C_1  and  C_2
REMARK    2  A    between atoms: C_3  and  C_29
REMARK    3  A    between atoms: C_4  and  C_21
REMARK    4  A    between atoms: C_10  and  S_12
REMARK    5  A    between atoms: S_12  and  C_13
REMARK    6  A    between atoms: C_13  and  C_14
REMARK    7  A    between atoms: C_24  and  O_27
REMARK    8  A    between atoms: O_27  and  C_28
REMARK                            x       y       z     vdW  Elec       q    Type
REMARK                         _______ _______ _______ _____ _____    ______ ____
ROOT
ATOM      1  C   UNL     1       0.458   1.363   0.000  0.00  0.00    +0.064 C 
ATOM      2  C   UNL     1       0.266  -0.132   0.025  0.00  0.00    +0.026 C 
ATOM      3  C   UNL     1      -1.005  -0.637   0.006  0.00  0.00    +0.059 C 
ATOM      4  C   UNL     1      -1.151  -2.149   0.032  0.00  0.00    +0.166 C 
ATOM      5  N   UNL     1       0.098  -2.917   0.077  0.00  0.00    -0.187 N 
ATOM      6  C   UNL     1       1.296  -2.241   0.091  0.00  0.00    +0.217 C 
ATOM      7  N   UNL     1       1.331  -0.915   0.061  0.00  0.00    -0.330 N 
ATOM      8  N   UNL     1       2.273  -3.156   0.133  0.00  0.00    -0.190 NA
ATOM      9  C   UNL     1       1.762  -4.374   0.145  0.00  0.00    +0.197 C 
ATOM     10  N   UNL     1       0.397  -4.282   0.111  0.00  0.00    -0.118 NA
ATOM     11  H   UNL     1       2.203  -0.489   0.070  0.00  0.00    +0.168 HD
ENDROOT
BRANCH   4  12
ATOM     12  C   UNL     1      -1.970  -2.520   1.242  0.00  0.00    -0.020 A 
ATOM     13  C   UNL     1      -1.436  -2.372   2.508  0.00  0.00    +0.009 A 
ATOM     14  C   UNL     1      -2.184  -2.712   3.619  0.00  0.00    +0.046 A 
ATOM     15  C   UNL     1      -3.472  -3.203   3.462  0.00  0.00    +0.120 A 
ATOM     16  C   UNL     1      -4.006  -3.350   2.190  0.00  0.00    +0.046 A 
ATOM     17  C   UNL     1      -3.255  -3.003   1.083  0.00  0.00    +0.009 A 
BRANCH  15  18
ATOM     18  O   UNL     1      -4.210  -3.538   4.552  0.00  0.00    -0.495 OA
ATOM     19  C   UNL     1      -5.529  -4.037   4.316  0.00  0.00    +0.277 C 
ENDBRANCH  15  18
ENDBRANCH   4  12
BRANCH   3  20
ATOM     20  C   UNL     1      -2.128   0.207  -0.037  0.00  0.00    +0.241 C 
ATOM     21  O   UNL     1      -1.988   1.414   0.058  0.00  0.00    -0.271 OA
ATOM     22  N   UNL     1      -3.361  -0.319  -0.183  0.00  0.00    -0.325 N 
ATOM     23  H   UNL     1      -3.480  -1.282  -0.189  0.00  0.00    +0.145 HD
ATOM     24  H   UNL     1      -4.128   0.266  -0.282  0.00  0.00    +0.145 HD
ENDBRANCH   3  20
BRANCH   9  25
ATOM     25  S   UNL     1       2.687  -5.873   0.196  0.00  0.00    -0.082 S 
BRANCH  25  26
ATOM     26  C   UNL     1       4.415  -5.322   0.227  0.00  0.00    +0.113 C 
BRANCH  26  27
ATOM     27  C   UNL     1       5.324  -6.522   0.272  0.00  0.00    -0.019 A 
ATOM     28  C   UNL     1       5.708  -7.053   1.489  0.00  0.00    +0.006 A 
ATOM     29  C   UNL     1       6.543  -8.154   1.531  0.00  0.00    +0.000 A 
ATOM     30  C   UNL     1       6.993  -8.726   0.355  0.00  0.00    +0.001 A 
ATOM     31  C   UNL     1       6.610  -8.196  -0.862  0.00  0.00    +0.020 A 
ATOM     32  C   UNL     1       5.770  -7.097  -0.905  0.00  0.00    +0.045 A 
ATOM     33 CL   UNL     1       5.283  -6.435  -2.434  0.00  0.00    -0.083 Cl
ENDBRANCH  26  27
ENDBRANCH  25  26
ENDBRANCH   9  25
TORSDOF 6
