REMARK  Name = ZINC45133197
REMARK  9 active torsions:
REMARK  status: ('A' for Active; 'I' for Inactive)
REMARK    1  A    between atoms: C_1  and  C_2
REMARK    2  A    between atoms: C_2  and  O_3
REMARK    3  A    between atoms: O_3  and  C_4
REMARK    4  A    between atoms: C_11  and  C_13
REMARK    5  A    between atoms: C_13  and  C_15
REMARK    6  A    between atoms: C_13  and  N_16
REMARK    7  A    between atoms: N_19  and  N_20
REMARK    8  A    between atoms: N_20  and  C_21
REMARK    9  A    between atoms: C_21  and  C_28
REMARK                            x       y       z     vdW  Elec       q    Type
REMARK                         _______ _______ _______ _____ _____    ______ ____
ROOT
ATOM      1  N   UNL     1       2.579  -1.306  -6.341  0.00  0.00    -0.289 N 
ATOM      2  C   UNL     1       2.691  -1.184  -7.678  0.00  0.00    +0.314 C 
ATOM      3  O   UNL     1       3.324  -2.005  -8.313  0.00  0.00    -0.252 OA
ATOM      4  N   UNL     1       2.100  -0.152  -8.312  0.00  0.00    -0.234 N 
ATOM      5  H   UNL     1       2.074  -0.651  -5.834  0.00  0.00    +0.151 HD
ATOM      6  H   UNL     1       2.180  -0.064  -9.275  0.00  0.00    +0.171 HD
ENDROOT
BRANCH   1   7
ATOM      7  C   UNL     1       3.221  -2.429  -5.652  0.00  0.00    +0.137 C 
ATOM      8  C   UNL     1       4.679  -2.076  -5.351  0.00  0.00    +0.036 C 
BRANCH   7  16
ATOM      9  C   UNL     1       0.777  -1.811  -1.336  0.00  0.00    +0.163 A 
ATOM     10  C   UNL     1       0.244  -2.667  -0.390  0.00  0.00    +0.049 A 
ATOM     11  C   UNL     1       0.346  -4.042  -0.543  0.00  0.00    +0.004 A 
ATOM     12  C   UNL     1       0.980  -4.573  -1.645  0.00  0.00    +0.012 A 
ATOM     13  C   UNL     1       1.522  -3.721  -2.608  0.00  0.00    +0.024 A 
ATOM     14  C   UNL     1       1.417  -2.330  -2.460  0.00  0.00    +0.177 A 
ATOM     15  O   UNL     1       2.015  -1.766  -3.529  0.00  0.00    -0.454 OA
ATOM     16  C   UNL     1       2.495  -2.707  -4.361  0.00  0.00    +0.126 A 
ATOM     17  C   UNL     1       2.244  -3.928  -3.870  0.00  0.00    +0.055 A 
BRANCH   9  18
ATOM     18  O   UNL     1       0.671  -0.465  -1.174  0.00  0.00    -0.489 OA
BRANCH  18  20
ATOM     19  C   UNL     1      -0.019   1.526   0.010  0.00  0.00    +0.048 C 
ATOM     20  C   UNL     1       0.002  -0.004   0.002  0.00  0.00    +0.226 C 
ENDBRANCH  18  20
ENDBRANCH   9  18
ENDBRANCH   7  16
ENDBRANCH   1   7
BRANCH   4  21
ATOM     21  N   UNL     1       1.389   0.771  -7.599  0.00  0.00    -0.232 NA
ATOM     22  H   UNL     1       1.956   1.182  -6.873  0.00  0.00    +0.145 HD
BRANCH  21  23
ATOM     23  C   UNL     1       0.833   1.805  -8.483  0.00  0.00    +0.054 C 
ATOM     24  C   UNL     1      -0.013   1.126  -9.559  0.00  0.00    +0.047 C 
ATOM     25  C   UNL     1      -1.487   0.996  -9.082  0.00  0.00    +0.168 C 
ATOM     26  S   UNL     1      -1.683   2.626  -8.237  0.00  0.00    -0.029 S 
ATOM     27  O   UNL     1      -1.947   3.628  -9.209  0.00  0.00    -0.174 OA
ATOM     28  O   UNL     1      -2.558   2.474  -7.127  0.00  0.00    -0.174 OA
ATOM     29  C   UNL     1       0.044   2.814  -7.626  0.00  0.00    +0.189 C 
ATOM     30  C   UNL     1       1.990   2.539  -9.164  0.00  0.00    +0.031 C 
ENDBRANCH  21  23
ENDBRANCH   4  21
TORSDOF 6
