REMARK  Name = ZINC02448408
REMARK  7 active torsions:
REMARK  status: ('A' for Active; 'I' for Inactive)
REMARK    1  A    between atoms: C_1  and  N_53
REMARK    2  A    between atoms: C_2  and  C_3
REMARK    3  A    between atoms: C_2  and  N_53
REMARK    4  A    between atoms: C_4  and  C_14
REMARK    5  A    between atoms: N_16  and  N_17
REMARK    6  A    between atoms: C_18  and  C_19
REMARK    7  A    between atoms: C_24  and  N_53
REMARK                            x       y       z     vdW  Elec       q    Type
REMARK                         _______ _______ _______ _____ _____    ______ ____
ROOT
ATOM      1  C   UNL     1       8.282   3.576  -0.056  0.00  0.00    +0.063 A 
ATOM      2  C   UNL     1       7.223   2.713  -0.050  0.00  0.00    +0.170 A 
ATOM      3  N   UNL     1       7.698   1.456  -0.054  0.00  0.00    -0.124 NA
ATOM      4  N   UNL     1       8.985   1.481  -0.072  0.00  0.00    -0.058 NA
ATOM      5  N   UNL     1       9.402   2.820  -0.069  0.00  0.00    -0.194 N 
ATOM      6  C   UNL     1      10.722   3.283  -0.079  0.00  0.00    +0.240 A 
ATOM      7  C   UNL     1      11.925   2.445  -0.094  0.00  0.00    +0.206 A 
ATOM      8  N   UNL     1      12.969   3.227  -0.101  0.00  0.00    -0.032 NA
ATOM      9  O   UNL     1      12.508   4.567  -0.090  0.00  0.00    -0.239 OA
ATOM     10  N   UNL     1      11.092   4.532  -0.082  0.00  0.00    -0.027 NA
ATOM     11  N   UNL     1      11.949   1.055  -0.100  0.00  0.00    -0.337 N 
ATOM     12  H   UNL     1      11.117   0.556  -0.094  0.00  0.00    +0.144 HD
ATOM     13  H   UNL     1      12.797   0.585  -0.110  0.00  0.00    +0.144 HD
ENDROOT
BRANCH   2  14
ATOM     14  C   UNL     1       5.799   3.097  -0.035  0.00  0.00    +0.285 C 
ATOM     15  O   UNL     1       5.485   4.272  -0.027  0.00  0.00    -0.267 OA
ATOM     16  N   UNL     1       4.845   2.145  -0.031  0.00  0.00    -0.202 N 
ATOM     17  H   UNL     1       5.094   1.208  -0.038  0.00  0.00    +0.178 HD
BRANCH  16  18
ATOM     18  N   UNL     1       3.492   2.509  -0.017  0.00  0.00    -0.187 NA
ATOM     19  C   UNL     1       2.573   1.593  -0.013  0.00  0.00    +0.141 C 
BRANCH  19  20
ATOM     20  C   UNL     1       1.149   1.976   0.002  0.00  0.00    +0.032 A 
ATOM     21  C   UNL     1      -0.013   1.076   0.008  0.00  0.00    +0.050 A 
ATOM     22  C   UNL     1      -1.096   1.869   0.017  0.00  0.00    +0.195 A 
ATOM     23  O   UNL     1      -0.701   3.151   0.025  0.00  0.00    -0.470 OA
ATOM     24  C   UNL     1       0.636   3.238   0.013  0.00  0.00    +0.204 A 
ENDBRANCH  19  20
ENDBRANCH  16  18
ENDBRANCH   2  14
BRANCH   1  25
ATOM     25  C   UNL     1       8.214   5.082  -0.048  0.00  0.00    -0.020 C 
BRANCH  25  27
ATOM     26  C   UNL     1       6.936   5.176  -2.102  0.00  0.00    -0.095 C 
ATOM     27  N   UNL     1       8.201   5.566  -1.444  0.00  0.00    +0.383 N 
ATOM     28  H   UNL     1       8.986   5.141  -1.952  0.00  0.00    -0.081 HD
BRANCH  27  29
ATOM     29  C   UNL     1       8.352   7.036  -1.471  0.00  0.00    -0.068 C 
ATOM     30  C   UNL     1       7.160   7.710  -0.788  0.00  0.00    -0.015 C 
ATOM     31  C   UNL     1       7.340   9.229  -0.831  0.00  0.00    -0.002 C 
ATOM     32  C   UNL     1       7.423   9.692  -2.287  0.00  0.00    -0.000 C 
ATOM     33  C   UNL     1       8.615   9.018  -2.969  0.00  0.00    -0.002 C 
ATOM     34  C   UNL     1       8.435   7.499  -2.927  0.00  0.00    -0.015 C 
ENDBRANCH  27  29
ENDBRANCH  25  27
ENDBRANCH   1  25
TORSDOF 6
