REMARK  Name = ZINC32086979
REMARK  5 active torsions:
REMARK  status: ('A' for Active; 'I' for Inactive)
REMARK    1  A    between atoms: C_4  and  C_20
REMARK    2  A    between atoms: C_6  and  N_7
REMARK    3  A    between atoms: N_7  and  S_8
REMARK    4  A    between atoms: S_8  and  C_11
REMARK    5  A    between atoms: C_16  and  C_17
REMARK                            x       y       z     vdW  Elec       q    Type
REMARK                         _______ _______ _______ _____ _____    ______ ____
ROOT
ATOM      1  N   UNL     1       3.468   2.171  -0.022  0.00  0.00    -0.098 NA
ENDROOT
BRANCH   1   7
ATOM      2  C   UNL     1       1.059   2.311  -0.109  0.00  0.00    +0.029 A 
ATOM      3  C   UNL     1      -0.180   1.699  -0.116  0.00  0.00    +0.041 A 
ATOM      4  C   UNL     1      -0.276   0.322  -0.044  0.00  0.00    +0.136 A 
ATOM      5  C   UNL     1       0.884  -0.456   0.036  0.00  0.00    +0.073 A 
ATOM      6  C   UNL     1       2.134   0.165   0.043  0.00  0.00    +0.042 A 
ATOM      7  C   UNL     1       2.217   1.546  -0.029  0.00  0.00    +0.075 A 
ATOM      8  F   UNL     1      -1.489  -0.273  -0.052  0.00  0.00    -0.205 F 
BRANCH   5   9
ATOM      9  C   UNL     1       0.786  -1.927   0.114  0.00  0.00    +0.244 C 
ATOM     10  O   UNL     1      -0.304  -2.465   0.108  0.00  0.00    -0.270 OA
ATOM     11  N   UNL     1       1.905  -2.674   0.191  0.00  0.00    -0.325 N 
ATOM     12  H   UNL     1       1.833  -3.770   0.249  0.00  0.00    +0.145 HD
ATOM     13  H   UNL     1       2.892  -2.187   0.197  0.00  0.00    +0.145 HD
ENDBRANCH   5   9
ENDBRANCH   1   7
BRANCH   1  14
ATOM     14  S   UNL     1       3.800   3.371  -1.115  0.00  0.00    +0.093 S 
ATOM     15  O   UNL     1       2.749   4.321  -1.006  0.00  0.00    -0.148 OA
ATOM     16  O   UNL     1       5.165   3.720  -0.932  0.00  0.00    -0.148 OA
BRANCH  14  17
ATOM     17  C   UNL     1       3.673   2.661  -2.723  0.00  0.00    +0.129 A 
ATOM     18  C   UNL     1       2.702   3.100  -3.597  0.00  0.00    +0.050 A 
ATOM     19  C   UNL     1       2.601   2.544  -4.862  0.00  0.00    +0.043 A 
ATOM     20  C   UNL     1       3.475   1.544  -5.256  0.00  0.00    +0.021 A 
ATOM     21  C   UNL     1       4.450   1.095  -4.390  0.00  0.00    +0.022 A 
ATOM     22  C   UNL     1       4.560   1.656  -3.116  0.00  0.00    +0.078 A 
ATOM     23 CL   UNL     1       1.376   3.103  -5.957  0.00  0.00    -0.083 Cl
BRANCH  22  24
ATOM     24  C   UNL     1       5.574   1.199  -2.214  0.00  0.00    +0.101 C 
ATOM     25  N   UNL     1       6.379   0.837  -1.499  0.00  0.00    -0.191 NA
ENDBRANCH  22  24
ENDBRANCH  14  17
ENDBRANCH   1  14
TORSDOF 5
