REMARK  Name = ZINC39694701
REMARK  10 active torsions:
REMARK  status: ('A' for Active; 'I' for Inactive)
REMARK    1  A    between atoms: C_1  and  C_2
REMARK    2  A    between atoms: C_4  and  C_35
REMARK    3  A    between atoms: C_6  and  C_8
REMARK    4  A    between atoms: C_8  and  N_9
REMARK    5  A    between atoms: C_10  and  C_12
REMARK    6  A    between atoms: C_23  and  C_25
REMARK    7  A    between atoms: C_27  and  O_33
REMARK    8  A    between atoms: C_29  and  O_31
REMARK    9  A    between atoms: O_31  and  C_32
REMARK   10  A    between atoms: O_33  and  C_34
REMARK                            x       y       z     vdW  Elec       q    Type
REMARK                         _______ _______ _______ _____ _____    ______ ____
ROOT
ATOM      1  C   UNL     1       3.815  -3.964   4.433  0.00  0.00    +0.100 C 
ATOM      2  C   UNL     1       4.229  -2.485   4.599  0.00  0.00    +0.121 C 
ATOM      3  N   UNL     1       4.039  -2.203   6.042  0.00  0.00    -0.296 N 
ATOM      4  C   UNL     1       4.503  -3.435   6.722  0.00  0.00    +0.115 C 
ATOM      5  C   UNL     1       4.000  -4.585   5.827  0.00  0.00    -0.004 C 
ATOM      6  C   UNL     1       5.036  -5.704   5.774  0.00  0.00    -0.010 C 
ATOM      7  C   UNL     1       5.160  -6.345   7.159  0.00  0.00    -0.082 C 
ATOM      8  N   UNL     1       3.856  -6.877   7.573  0.00  0.00    +0.379 N 
ATOM      9  C   UNL     1       2.889  -5.781   7.712  0.00  0.00    -0.082 C 
ATOM     10  C   UNL     1       2.669  -5.116   6.350  0.00  0.00    -0.010 C 
ATOM     11  C   UNL     1       3.553  -1.079   6.607  0.00  0.00    +0.247 C 
ATOM     12  O   UNL     1       3.094  -0.197   5.908  0.00  0.00    -0.270 OA
ATOM     13  H   UNL     1       3.524  -7.530   6.879  0.00  0.00    -0.086 HD
ATOM     14  H   UNL     1       3.953  -7.352   8.458  0.00  0.00    -0.086 HD
ENDROOT
BRANCH  11  15
ATOM     15  C   UNL     1       3.580  -0.921   8.077  0.00  0.00    +0.044 A 
ATOM     16  C   UNL     1       4.463  -1.678   8.846  0.00  0.00    +0.059 A 
ATOM     17  C   UNL     1       4.485  -1.526  10.223  0.00  0.00    +0.124 A 
ATOM     18  C   UNL     1       3.630  -0.622  10.836  0.00  0.00    +0.091 A 
ATOM     19  C   UNL     1       2.751   0.134  10.075  0.00  0.00    +0.124 A 
ATOM     20  C   UNL     1       2.726  -0.008   8.697  0.00  0.00    +0.059 A 
BRANCH  19  21
ATOM     21  O   UNL     1       1.916   1.018  10.681  0.00  0.00    -0.495 OA
ATOM     22  C   UNL     1       1.998   1.117  12.104  0.00  0.00    +0.277 C 
ENDBRANCH  19  21
BRANCH  17  23
ATOM     23  O   UNL     1       5.345  -2.264  10.974  0.00  0.00    -0.495 OA
ATOM     24  C   UNL     1       5.315  -2.056  12.387  0.00  0.00    +0.277 C 
ENDBRANCH  17  23
ENDBRANCH  11  15
BRANCH   1  26
ATOM     25  N   UNL     1       1.937  -5.157   3.351  0.00  0.00    -0.311 N 
ATOM     26  C   UNL     1       2.374  -4.061   4.002  0.00  0.00    +0.218 C 
ATOM     27  O   UNL     1       1.607  -3.152   4.242  0.00  0.00    -0.275 OA
ATOM     28  H   UNL     1       2.551  -5.884   3.160  0.00  0.00    +0.149 HD
BRANCH  25  29
ATOM     29  C   UNL     1       0.537  -5.251   2.933  0.00  0.00    +0.139 C 
BRANCH  29  35
ATOM     30  C   UNL     1       0.461  -7.963  -1.272  0.00  0.00    +0.044 C 
ATOM     31  C   UNL     1       0.272  -7.862   0.219  0.00  0.00    -0.050 A 
ATOM     32  C   UNL     1      -0.110  -8.976   0.944  0.00  0.00    +0.006 A 
ATOM     33  C   UNL     1      -0.283  -8.884   2.312  0.00  0.00    -0.050 A 
ATOM     34  C   UNL     1      -0.073  -7.679   2.956  0.00  0.00    +0.008 A 
ATOM     35  C   UNL     1       0.309  -6.565   2.231  0.00  0.00    -0.030 A 
ATOM     36  C   UNL     1       0.486  -6.658   0.864  0.00  0.00    +0.008 A 
ATOM     37  C   UNL     1      -0.700 -10.098   3.102  0.00  0.00    +0.044 C 
ENDBRANCH  29  35
ENDBRANCH  25  29
ENDBRANCH   1  26
TORSDOF 6
