REMARK  Name = ZINC01927793
REMARK  3 active torsions:
REMARK  status: ('A' for Active; 'I' for Inactive)
REMARK    1  A    between atoms: C_1  and  C_2
REMARK    2  A    between atoms: N_9  and  C_10
REMARK    3  A    between atoms: C_18  and  C_20
REMARK                            x       y       z     vdW  Elec       q    Type
REMARK                         _______ _______ _______ _____ _____    ______ ____
ROOT
ATOM      1  C   UNL     1       8.567   5.885  -0.087  0.00  0.00    +0.044 C 
ATOM      2  C   UNL     1       7.231   5.190  -0.064  0.00  0.00    -0.050 A 
ATOM      3  C   UNL     1       7.172   3.805  -0.065  0.00  0.00    +0.007 A 
ATOM      4  C   UNL     1       5.957   3.152  -0.044  0.00  0.00    +0.047 A 
ATOM      5  C   UNL     1       4.777   3.884  -0.021  0.00  0.00    +0.138 A 
ATOM      6  C   UNL     1       4.838   5.285  -0.020  0.00  0.00    +0.041 A 
ATOM      7  C   UNL     1       6.069   5.934  -0.041  0.00  0.00    +0.017 A 
ATOM      8  C   UNL     1       3.569   6.045   0.005  0.00  0.00    +0.054 A 
ATOM      9  N   UNL     1       3.558   7.368   0.008  0.00  0.00    -0.354 N 
ATOM     10  C   UNL     1       2.361   5.296   0.019  0.00  0.00    +0.073 A 
ATOM     11  C   UNL     1       2.417   3.941   0.021  0.00  0.00    +0.139 A 
ATOM     12  O   UNL     1       3.578   3.263  -0.001  0.00  0.00    -0.455 OA
ATOM     13  H   UNL     1       4.504   7.926   0.081  0.00  0.00    +0.166 HD
ENDROOT
BRANCH   9  14
ATOM     14  C   UNL     1       2.375   8.041  -0.081  0.00  0.00    +0.040 A 
ATOM     15  C   UNL     1       1.810   8.308  -1.332  0.00  0.00    +0.027 A 
ATOM     16  C   UNL     1       0.611   8.984  -1.413  0.00  0.00    +0.017 A 
ATOM     17  C   UNL     1      -0.028   9.408  -0.260  0.00  0.00    +0.018 A 
ATOM     18  C   UNL     1       0.528   9.153   0.982  0.00  0.00    +0.017 A 
ATOM     19  C   UNL     1       1.724   8.473   1.079  0.00  0.00    +0.027 A 
ATOM     20 BR   UNL     1      -1.669  10.341  -0.383  0.00  0.00    -0.050 Br
ENDBRANCH   9  14
BRANCH  11  21
ATOM     21  C   UNL     1       1.152   3.179   0.043  0.00  0.00    +0.036 A 
ATOM     22  C   UNL     1      -0.072   3.852   0.066  0.00  0.00    +0.013 A 
ATOM     23  C   UNL     1      -1.249   3.135   0.086  0.00  0.00    +0.001 A 
ATOM     24  C   UNL     1      -1.221   1.751   0.078  0.00  0.00    +0.001 A 
ATOM     25  C   UNL     1      -0.014   1.077   0.060  0.00  0.00    +0.021 A 
ATOM     26  C   UNL     1       1.174   1.782   0.040  0.00  0.00    +0.052 A 
ATOM     27 CL   UNL     1       2.689   0.934   0.011  0.00  0.00    -0.083 Cl
ENDBRANCH  11  21
TORSDOF 2
