REMARK  Name = ZINC02133362
REMARK  4 active torsions:
REMARK  status: ('A' for Active; 'I' for Inactive)
REMARK    1  A    between atoms: C_12  and  C_14
REMARK    2  A    between atoms: C_14  and  C_15
REMARK    3  A    between atoms: C_18  and  O_21
REMARK    4  A    between atoms: N_24  and  C_27
REMARK                            x       y       z     vdW  Elec       q    Type
REMARK                         _______ _______ _______ _____ _____    ______ ____
ROOT
ATOM      1  C   UNL     1       3.596   5.418  -0.555  0.00  0.00    +0.000 A 
ATOM      2  C   UNL     1       4.565   6.231  -1.115  0.00  0.00    +0.002 A 
ATOM      3  C   UNL     1       5.117   5.915  -2.338  0.00  0.00    +0.023 A 
ATOM      4  C   UNL     1       4.704   4.772  -3.020  0.00  0.00    +0.036 A 
ATOM      5  C   UNL     1       3.728   3.962  -2.447  0.00  0.00    -0.028 A 
ATOM      6  C   UNL     1       3.179   4.282  -1.225  0.00  0.00    +0.004 A 
ATOM      7  C   UNL     1       3.510   2.835  -3.416  0.00  0.00    +0.050 C 
ATOM      8  C   UNL     1       2.053   2.780  -3.894  0.00  0.00    +0.088 C 
ATOM      9  C   UNL     1       1.747   1.264  -4.042  0.00  0.00    +0.073 C 
ATOM     10  C   UNL     1       3.061   0.554  -3.656  0.00  0.00    -0.053 C 
ATOM     11  C   UNL     1       0.709   1.012  -2.972  0.00  0.00    +0.224 C 
ATOM     12  O   UNL     1       0.198  -0.061  -2.731  0.00  0.00    -0.275 OA
ATOM     13  N   UNL     1       0.441   2.156  -2.333  0.00  0.00    -0.239 N 
ATOM     14  C   UNL     1       1.132   3.214  -2.775  0.00  0.00    +0.225 C 
ATOM     15  O   UNL     1       1.036   4.343  -2.345  0.00  0.00    -0.275 OA
ATOM     16  C   UNL     1       4.452   3.110  -4.555  0.00  0.00    +0.211 C 
ATOM     17  O   UNL     1       4.597   2.437  -5.554  0.00  0.00    -0.277 OA
ATOM     18  N   UNL     1       5.106   4.248  -4.250  0.00  0.00    -0.286 N 
ATOM     19  H   UNL     1       5.777   4.655  -4.819  0.00  0.00    +0.155 HD
ATOM     20  N   UNL     1       3.762   1.533  -2.822  0.00  0.00    +0.394 N 
ATOM     21  H   UNL     1       3.400   1.505  -1.862  0.00  0.00    -0.083 HD
ATOM     22  H   UNL     1       4.770   1.336  -2.814  0.00  0.00    -0.083 HD
ENDROOT
BRANCH  13  23
ATOM     23  C   UNL     1      -0.533   2.246  -1.243  0.00  0.00    +0.084 C 
ATOM     24  C   UNL     1      -0.091   1.311  -0.099  0.00  0.00    +0.023 C 
ATOM     25  C   UNL     1      -0.755   1.758   1.174  0.00  0.00    +0.002 C 
ATOM     26  C   UNL     1      -2.073   1.004   1.446  0.00  0.00    +0.000 C 
ATOM     27  C   UNL     1      -2.926   0.809   0.178  0.00  0.00    +0.000 C 
ATOM     28  C   UNL     1      -2.954   2.037  -0.692  0.00  0.00    +0.002 C 
ATOM     29  C   UNL     1      -1.850   1.905  -1.761  0.00  0.00    +0.023 C 
ENDBRANCH  13  23
BRANCH  10  30
ATOM     30  C   UNL     1       3.884   0.242  -4.907  0.00  0.00    +0.020 C 
BRANCH  30  31
ATOM     31  C   UNL     1       3.526  -1.131  -5.415  0.00  0.00    -0.049 A 
ATOM     32  C   UNL     1       4.226  -2.237  -4.967  0.00  0.00    +0.007 A 
ATOM     33  C   UNL     1       3.895  -3.497  -5.426  0.00  0.00    +0.045 A 
ATOM     34  C   UNL     1       2.868  -3.652  -6.346  0.00  0.00    +0.117 A 
ATOM     35  C   UNL     1       2.172  -2.541  -6.798  0.00  0.00    +0.045 A 
ATOM     36  C   UNL     1       2.502  -1.283  -6.332  0.00  0.00    +0.007 A 
BRANCH  34  37
ATOM     37  O   UNL     1       2.545  -4.890  -6.803  0.00  0.00    -0.507 OA
ATOM     38  H   UNL     1       3.030  -5.156  -7.597  0.00  0.00    +0.292 HD
ENDBRANCH  34  37
ENDBRANCH  30  31
ENDBRANCH  10  30
TORSDOF 4
