REMARK  Name = ZINC09359431
REMARK  18 active torsions:
REMARK  status: ('A' for Active; 'I' for Inactive)
REMARK    1  A    between atoms: C_1  and  C_2
REMARK    2  A    between atoms: C_2  and  O_3
REMARK    3  A    between atoms: O_3  and  C_4
REMARK    4  A    between atoms: C_6  and  C_11
REMARK    5  A    between atoms: C_9  and  O_10
REMARK    6  A    between atoms: C_14  and  C_15
REMARK    7  A    between atoms: C_14  and  O_26
REMARK    8  A    between atoms: C_18  and  O_21
REMARK    9  A    between atoms: O_21  and  C_22
REMARK   10  A    between atoms: C_22  and  C_23
REMARK   11  A    between atoms: C_23  and  C_24
REMARK   12  A    between atoms: C_23  and  C_25
REMARK   13  A    between atoms: N_31  and  C_32
REMARK   14  A    between atoms: C_32  and  C_33
REMARK   15  A    between atoms: C_33  and  C_34
REMARK   16  A    between atoms: C_34  and  N_72
REMARK   17  A    between atoms: C_35  and  N_72
REMARK   18  A    between atoms: C_36  and  N_72
REMARK                            x       y       z     vdW  Elec       q    Type
REMARK                         _______ _______ _______ _____ _____    ______ ____
ROOT
ATOM      1  C   UNL     1       2.179  -0.411  -1.448  0.00  0.00    +0.145 C 
ATOM      2  C   UNL     1       2.453  -0.900  -2.851  0.00  0.00    +0.071 C 
ATOM      3  C   UNL     1       3.579  -1.567  -3.293  0.00  0.00    +0.133 C 
ATOM      4  C   UNL     1       1.333  -0.541  -3.615  0.00  0.00    +0.249 C 
ATOM      5  O   UNL     1       1.177  -0.763  -4.803  0.00  0.00    -0.282 OA
ATOM      6  C   UNL     1       0.366   0.154  -2.723  0.00  0.00    +0.288 C 
ATOM      7  O   UNL     1      -0.712   0.591  -3.071  0.00  0.00    -0.266 OA
ATOM      8  N   UNL     1       0.862   0.231  -1.477  0.00  0.00    -0.284 N 
ENDROOT
BRANCH   1  11
ATOM      9  C   UNL     1       5.214   1.117   0.204  0.00  0.00    +0.162 A 
ATOM     10  C   UNL     1       4.246   0.201  -0.178  0.00  0.00    +0.055 A 
ATOM     11  C   UNL     1       3.230   0.586  -1.033  0.00  0.00    -0.019 A 
ATOM     12  C   UNL     1       3.180   1.881  -1.513  0.00  0.00    +0.009 A 
ATOM     13  C   UNL     1       4.139   2.801  -1.131  0.00  0.00    +0.049 A 
ATOM     14  C   UNL     1       5.160   2.422  -0.275  0.00  0.00    +0.158 A 
BRANCH  14  15
ATOM     15  O   UNL     1       6.107   3.324   0.097  0.00  0.00    -0.503 OA
ATOM     16  H   UNL     1       6.876   3.351  -0.489  0.00  0.00    +0.292 HD
ENDBRANCH  14  15
BRANCH   9  17
ATOM     17  O   UNL     1       6.214   0.740   1.045  0.00  0.00    -0.489 OA
BRANCH  17  19
ATOM     18  C   UNL     1       7.397  -0.850   2.428  0.00  0.00    +0.048 C 
ATOM     19  C   UNL     1       6.206  -0.616   1.497  0.00  0.00    +0.226 C 
ENDBRANCH  17  19
ENDBRANCH   9  17
ENDBRANCH   1  11
BRANCH   3  20
ATOM     20  C   UNL     1       3.627  -2.104  -4.661  0.00  0.00    +0.017 A 
ATOM     21  C   UNL     1       2.590  -2.919  -5.133  0.00  0.00    +0.015 A 
ATOM     22  C   UNL     1       2.636  -3.413  -6.416  0.00  0.00    +0.046 A 
ATOM     23  C   UNL     1       3.717  -3.116  -7.240  0.00  0.00    +0.121 A 
ATOM     24  C   UNL     1       4.752  -2.313  -6.774  0.00  0.00    +0.046 A 
ATOM     25  C   UNL     1       4.712  -1.808  -5.495  0.00  0.00    +0.015 A 
BRANCH  23  26
ATOM     26  O   UNL     1       3.761  -3.611  -8.503  0.00  0.00    -0.492 OA
BRANCH  26  27
ATOM     27  C   UNL     1       2.665  -4.429  -8.917  0.00  0.00    +0.232 C 
BRANCH  27  28
ATOM     28  C   UNL     1       2.889  -4.891 -10.358  0.00  0.00    +0.020 C 
ATOM     29  C   UNL     1       1.781  -5.865 -10.760  0.00  0.00    +0.010 C 
ATOM     30  C   UNL     1       2.866  -3.679 -11.292  0.00  0.00    +0.010 C 
ENDBRANCH  27  28
ENDBRANCH  26  27
ENDBRANCH  23  26
ENDBRANCH   3  20
BRANCH   3  31
ATOM     31  O   UNL     1       4.636  -1.726  -2.468  0.00  0.00    -0.506 OA
ATOM     32  H   UNL     1       5.359  -2.227  -2.945  0.00  0.00    +0.292 HD
ENDBRANCH   3  31
BRANCH   8  33
ATOM     33  C   UNL     1       0.192   0.851  -0.331  0.00  0.00    +0.107 C 
BRANCH  33  34
ATOM     34  C   UNL     1       0.581   2.328  -0.250  0.00  0.00    +0.000 C 
BRANCH  34  35
ATOM     35  C   UNL     1      -0.119   2.975   0.947  0.00  0.00    -0.078 C 
BRANCH  35  38
ATOM     36  C   UNL     1      -0.266   5.139  -0.130  0.00  0.00    -0.097 C 
ATOM     37  C   UNL     1      -0.204   4.990   2.286  0.00  0.00    -0.097 C 
ATOM     38  N   UNL     1       0.283   4.395   1.024  0.00  0.00    +0.376 N 
ATOM     39  H   UNL     1       1.308   4.453   1.001  0.00  0.00    -0.083 HD
ENDBRANCH  35  38
ENDBRANCH  34  35
ENDBRANCH  33  34
ENDBRANCH   8  33
TORSDOF 13
