REMARK  Name = ZINC12413719
REMARK  11 active torsions:
REMARK  status: ('A' for Active; 'I' for Inactive)
REMARK    1  A    between atoms: C_1  and  C_2
REMARK    2  A    between atoms: C_2  and  O_3
REMARK    3  A    between atoms: O_3  and  C_4
REMARK    4  A    between atoms: C_4  and  C_6
REMARK    5  A    between atoms: C_7  and  C_27
REMARK    6  A    between atoms: N_8  and  C_21
REMARK    7  A    between atoms: C_11  and  C_17
REMARK    8  A    between atoms: C_17  and  N_18
REMARK    9  A    between atoms: N_18  and  C_19
REMARK   10  A    between atoms: N_18  and  C_20
REMARK   11  A    between atoms: C_27  and  N_28
REMARK                            x       y       z     vdW  Elec       q    Type
REMARK                         _______ _______ _______ _____ _____    ______ ____
ROOT
ATOM      1  C   UNL     1      -1.248  -2.099   0.003  0.00  0.00    +0.086 A 
ATOM      2  C   UNL     1      -1.290  -2.909  -1.095  0.00  0.00    +0.018 A 
ATOM      3  N   UNL     1      -1.336  -4.205  -0.706  0.00  0.00    -0.342 N 
ATOM      4  C   UNL     1      -1.327  -4.295   0.673  0.00  0.00    +0.052 A 
ATOM      5  C   UNL     1      -1.264  -2.987   1.180  0.00  0.00    +0.019 A 
ATOM      6  C   UNL     1      -1.248  -2.770   2.555  0.00  0.00    -0.006 A 
ATOM      7  C   UNL     1      -1.282  -3.849   3.418  0.00  0.00    +0.195 A 
ATOM      8  C   UNL     1      -1.338  -5.146   2.915  0.00  0.00    +0.067 A 
ATOM      9  C   UNL     1      -1.360  -5.370   1.555  0.00  0.00    +0.045 A 
ATOM     10 BR   UNL     1      -1.383  -6.613   4.107  0.00  0.00    -0.046 Br
ATOM     11  O   UNL     1      -1.261  -3.643   4.762  0.00  0.00    -0.286 OA
ENDROOT
BRANCH   3  12
ATOM     12  C   UNL     1      -1.391  -5.350  -1.618  0.00  0.00    +0.087 C 
ATOM     13  C   UNL     1      -2.669  -6.149  -1.358  0.00  0.00    +0.025 C 
ATOM     14  C   UNL     1      -2.726  -7.345  -2.311  0.00  0.00    +0.002 C 
ATOM     15  C   UNL     1      -1.508  -8.241  -2.077  0.00  0.00    +0.000 C 
ATOM     16  C   UNL     1      -0.229  -7.442  -2.336  0.00  0.00    +0.002 C 
ATOM     17  C   UNL     1      -0.173  -6.246  -1.384  0.00  0.00    +0.025 C 
ENDBRANCH   3  12
BRANCH   1  18
ATOM     18  C   UNL     1      -1.191  -0.632   0.010  0.00  0.00    +0.341 C 
ATOM     19  O   UNL     1      -2.220   0.016   0.023  0.00  0.00    -0.245 OA
BRANCH  18  20
ATOM     20  O   UNL     1       0.002  -0.004   0.002  0.00  0.00    -0.461 OA
BRANCH  20  22
ATOM     21  C   UNL     1       1.418   1.977  -0.001  0.00  0.00    +0.048 C 
ATOM     22  C   UNL     1      -0.018   1.448   0.010  0.00  0.00    +0.229 C 
ENDBRANCH  20  22
ENDBRANCH  18  20
ENDBRANCH   1  18
BRANCH   6  23
ATOM     23  C   UNL     1      -1.188  -1.366   3.099  0.00  0.00    -0.039 C 
BRANCH  23  24
ATOM     24  N   UNL     1       0.215  -0.964   3.262  0.00  0.00    +0.379 N 
ATOM     25  C   UNL     1       0.320   0.470   3.563  0.00  0.00    -0.096 C 
ATOM     26  C   UNL     1       0.877  -1.769   4.298  0.00  0.00    -0.096 C 
ATOM     27  H   UNL     1       0.732  -1.148   2.309  0.00  0.00    -0.082 HD
ENDBRANCH  23  24
ENDBRANCH   6  23
BRANCH   2  28
ATOM     28  C   UNL     1      -1.286  -2.433  -2.525  0.00  0.00    -0.024 C 
BRANCH  28  29
ATOM     29  N   UNL     1      -2.668  -2.225  -2.975  0.00  0.00    +0.383 N 
ATOM     30  C   UNL     1      -3.408  -1.345  -2.034  0.00  0.00    -0.078 C 
ATOM     31  C   UNL     1      -4.588  -0.822  -2.891  0.00  0.00    -0.020 C 
ATOM     32  C   UNL     1      -3.945  -0.626  -4.283  0.00  0.00    -0.020 C 
ATOM     33  C   UNL     1      -2.701  -1.535  -4.283  0.00  0.00    -0.078 C 
ATOM     34  H   UNL     1      -3.118  -3.227  -3.037  0.00  0.00    -0.081 HD
ENDBRANCH  28  29
ENDBRANCH   2  28
TORSDOF 8
