REMARK  Name = ZINC01807554
REMARK  15 active torsions:
REMARK  status: ('A' for Active; 'I' for Inactive)
REMARK    1  A    between atoms: C_1  and  C_2
REMARK    2  A    between atoms: C_2  and  O_3
REMARK    3  A    between atoms: O_3  and  C_4
REMARK    4  A    between atoms: C_7  and  C_12
REMARK    5  A    between atoms: C_9  and  O_10
REMARK    6  A    between atoms: O_10  and  C_11
REMARK    7  A    between atoms: N_13  and  N_14
REMARK    8  A    between atoms: C_15  and  C_17
REMARK    9  A    between atoms: C_17  and  S_18
REMARK   10  A    between atoms: S_18  and  C_19
REMARK   11  A    between atoms: C_22  and  C_32
REMARK   12  A    between atoms: N_23  and  C_24
REMARK   13  A    between atoms: C_27  and  O_30
REMARK   14  A    between atoms: O_30  and  C_31
REMARK   15  A    between atoms: C_35  and  C_38
REMARK                            x       y       z     vdW  Elec       q    Type
REMARK                         _______ _______ _______ _____ _____    ______ ____
ROOT
ATOM      1  C   UNL     1      -0.268 -13.077   0.686  0.00  0.00    +0.197 A 
ATOM      2  N   UNL     1       0.341 -13.588  -0.361  0.00  0.00    -0.122 NA
ATOM      3  N   UNL     1       0.318 -14.871  -0.303  0.00  0.00    -0.128 NA
ATOM      4  C   UNL     1      -0.306 -15.261   0.785  0.00  0.00    +0.169 A 
ATOM      5  N   UNL     1      -0.697 -14.123   1.456  0.00  0.00    -0.270 N 
ENDROOT
BRANCH   4   6
ATOM      6  C   UNL     1      -0.540 -16.657   1.211  0.00  0.00    +0.020 A 
ATOM      7  C   UNL     1      -1.480 -16.938   2.205  0.00  0.00    +0.012 A 
ATOM      8  C   UNL     1      -1.693 -18.242   2.599  0.00  0.00    +0.004 A 
ATOM      9  C   UNL     1      -0.979 -19.271   2.011  0.00  0.00    -0.050 A 
ATOM     10  C   UNL     1      -0.047 -19.000   1.025  0.00  0.00    +0.004 A 
ATOM     11  C   UNL     1       0.172 -17.700   0.618  0.00  0.00    +0.012 A 
ATOM     12  C   UNL     1      -1.218 -20.694   2.446  0.00  0.00    +0.044 C 
ENDBRANCH   4   6
BRANCH   5  13
ATOM     13  C   UNL     1      -1.393 -14.052   2.672  0.00  0.00    +0.051 A 
ATOM     14  C   UNL     1      -0.797 -14.509   3.840  0.00  0.00    +0.030 A 
ATOM     15  C   UNL     1      -1.482 -14.439   5.037  0.00  0.00    +0.047 A 
ATOM     16  C   UNL     1      -2.765 -13.913   5.073  0.00  0.00    +0.120 A 
ATOM     17  C   UNL     1      -3.361 -13.456   3.906  0.00  0.00    +0.047 A 
ATOM     18  C   UNL     1      -2.674 -13.520   2.709  0.00  0.00    +0.030 A 
BRANCH  16  19
ATOM     19  O   UNL     1      -3.439 -13.844   6.251  0.00  0.00    -0.495 OA
ATOM     20  C   UNL     1      -4.756 -13.291   6.215  0.00  0.00    +0.277 C 
ENDBRANCH  16  19
ENDBRANCH   5  13
BRANCH   1  21
ATOM     21  S   UNL     1      -0.485 -11.364   1.036  0.00  0.00    -0.076 S 
BRANCH  21  22
ATOM     22  C   UNL     1       0.306 -10.526  -0.365  0.00  0.00    +0.174 C 
BRANCH  22  24
ATOM     23  N   UNL     1       0.711  -8.203  -1.113  0.00  0.00    -0.206 N 
ATOM     24  C   UNL     1       0.191  -9.034  -0.188  0.00  0.00    +0.242 C 
ATOM     25  O   UNL     1      -0.370  -8.580   0.787  0.00  0.00    -0.273 OA
ATOM     26  H   UNL     1       1.159  -8.566  -1.893  0.00  0.00    +0.177 HD
BRANCH  23  28
ATOM     27  C   UNL     1       1.104  -6.016  -1.840  0.00  0.00    +0.138 C 
ATOM     28  N   UNL     1       0.604  -6.816  -0.949  0.00  0.00    -0.188 NA
BRANCH  27  32
ATOM     29  C   UNL     1       0.777  -1.810  -1.336  0.00  0.00    +0.162 A 
ATOM     30  C   UNL     1       0.242  -2.667  -0.385  0.00  0.00    +0.050 A 
ATOM     31  C   UNL     1       0.346  -4.032  -0.545  0.00  0.00    +0.013 A 
ATOM     32  C   UNL     1       0.991  -4.556  -1.667  0.00  0.00    -0.002 A 
ATOM     33  C   UNL     1       1.530  -3.694  -2.625  0.00  0.00    +0.059 A 
ATOM     34  C   UNL     1       1.417  -2.326  -2.461  0.00  0.00    +0.162 A 
BRANCH  34  35
ATOM     35  O   UNL     1       1.936  -1.484  -3.394  0.00  0.00    -0.491 OA
ATOM     36  C   UNL     1       2.579  -2.082  -4.521  0.00  0.00    +0.277 C 
ENDBRANCH  34  35
BRANCH  29  37
ATOM     37  O   UNL     1       0.671  -0.465  -1.174  0.00  0.00    -0.489 OA
BRANCH  37  39
ATOM     38  C   UNL     1      -0.019   1.526   0.010  0.00  0.00    +0.048 C 
ATOM     39  C   UNL     1       0.002  -0.004   0.002  0.00  0.00    +0.226 C 
ENDBRANCH  37  39
ENDBRANCH  29  37
ENDBRANCH  27  32
ENDBRANCH  23  28
ENDBRANCH  22  24
ENDBRANCH  21  22
ENDBRANCH   1  21
TORSDOF 11
