REMARK  Name = ZINC12731489
REMARK  8 active torsions:
REMARK  status: ('A' for Active; 'I' for Inactive)
REMARK    1  A    between atoms: C_1  and  C_2
REMARK    2  A    between atoms: N_4  and  C_5
REMARK    3  A    between atoms: C_10  and  S_14
REMARK    4  A    between atoms: C_12  and  O_13
REMARK    5  A    between atoms: S_14  and  C_15
REMARK    6  A    between atoms: C_15  and  C_16
REMARK    7  A    between atoms: N_18  and  C_19
REMARK    8  A    between atoms: C_20  and  C_30
REMARK                            x       y       z     vdW  Elec       q    Type
REMARK                         _______ _______ _______ _____ _____    ______ ____
ROOT
ATOM      1  C   UNL     1      -0.046   1.077   0.021  0.00  0.00    +0.173 C 
ENDROOT
BRANCH   1   2
ATOM      2  C   UNL     1      -0.782   1.575  -1.196  0.00  0.00    +0.228 C 
ATOM      3  O   UNL     1      -1.774   2.261  -1.067  0.00  0.00    -0.275 OA
ATOM      4  N   UNL     1      -0.338   1.258  -2.429  0.00  0.00    -0.278 N 
ATOM      5  H   UNL     1       0.455   0.709  -2.532  0.00  0.00    +0.155 HD
BRANCH   4   6
ATOM      6  C   UNL     1      -1.016   1.716  -3.550  0.00  0.00    +0.090 A 
ATOM      7  C   UNL     1      -0.717   1.505  -4.881  0.00  0.00    +0.084 A 
ATOM      8  C   UNL     1      -1.607   2.082  -5.895  0.00  0.00    -0.018 A 
ATOM      9  C   UNL     1      -2.616   2.810  -5.385  0.00  0.00    -0.004 A 
ATOM     10  S   UNL     1      -2.438   2.699  -3.622  0.00  0.00    -0.077 S 
ATOM     11  C   UNL     1      -3.654   3.617  -6.112  0.00  0.00    +0.043 C 
ATOM     12  C   UNL     1      -2.991   4.953  -6.493  0.00  0.00    +0.005 C 
ATOM     13  C   UNL     1      -1.696   4.645  -7.257  0.00  0.00    +0.000 C 
ATOM     14  C   UNL     1      -2.132   3.905  -8.503  0.00  0.00    +0.000 C 
ATOM     15  C   UNL     1      -2.360   2.418  -8.293  0.00  0.00    +0.005 C 
ATOM     16  C   UNL     1      -1.323   1.792  -7.369  0.00  0.00    +0.037 C 
BRANCH   7  17
ATOM     17  C   UNL     1       0.431   0.739  -5.263  0.00  0.00    +0.102 C 
ATOM     18  N   UNL     1       1.341   0.131  -5.566  0.00  0.00    -0.191 NA
ENDBRANCH   7  17
ENDBRANCH   4   6
ENDBRANCH   1   2
BRANCH   1  19
ATOM     19  S   UNL     1      -0.882   1.667   1.514  0.00  0.00    -0.078 S 
BRANCH  19  25
ATOM     20  C   UNL     1       1.768  -0.135   4.633  0.00  0.00    +0.161 A 
ATOM     21  C   UNL     1       0.659   0.635   5.020  0.00  0.00    +0.277 A 
ATOM     22  O   UNL     1       0.410   0.817   6.202  0.00  0.00    -0.266 OA
ATOM     23  N   UNL     1      -0.125   1.173   4.062  0.00  0.00    -0.300 N 
ATOM     24  H   UNL     1      -0.893   1.711   4.310  0.00  0.00    +0.171 HD
ATOM     25  C   UNL     1       0.159   0.959   2.747  0.00  0.00    +0.173 A 
ATOM     26  N   UNL     1       1.198   0.239   2.378  0.00  0.00    -0.187 NA
ATOM     27  C   UNL     1       2.013  -0.316   3.279  0.00  0.00    +0.242 A 
BRANCH  20  31
ATOM     28  C   UNL     1       4.245  -0.531   7.452  0.00  0.00    +0.109 C 
ATOM     29  C   UNL     1       3.258   0.074   6.486  0.00  0.00    +0.214 C 
ATOM     30  O   UNL     1       3.044   1.268   6.507  0.00  0.00    -0.276 OA
ATOM     31  N   UNL     1       2.615  -0.711   5.600  0.00  0.00    -0.277 N 
ATOM     32  H   UNL     1       2.734  -1.673   5.628  0.00  0.00    +0.155 HD
ENDBRANCH  20  31
BRANCH  27  33
ATOM     33  O   UNL     1       3.074  -1.053   2.873  0.00  0.00    -0.491 OA
ATOM     34  H   UNL     1       3.161  -1.122   1.913  0.00  0.00    +0.294 HD
ENDBRANCH  27  33
ENDBRANCH  19  25
ENDBRANCH   1  19
TORSDOF 7
