REMARK  Name = ZINC21516010
REMARK  5 active torsions:
REMARK  status: ('A' for Active; 'I' for Inactive)
REMARK    1  A    between atoms: C_1  and  C_2
REMARK    2  A    between atoms: N_8  and  S_9
REMARK    3  A    between atoms: S_9  and  C_12
REMARK    4  A    between atoms: C_15  and  C_19
REMARK    5  A    between atoms: C_16  and  N_18
REMARK                            x       y       z     vdW  Elec       q    Type
REMARK                         _______ _______ _______ _____ _____    ______ ____
ROOT
ATOM      1  S   UNL     1      -1.512  -0.905   0.012  0.00  0.00    +0.074 S 
ATOM      2  O   UNL     1      -1.220  -2.186   0.553  0.00  0.00    -0.150 OA
ATOM      3  O   UNL     1      -2.493  -0.045   0.577  0.00  0.00    -0.150 OA
ENDROOT
BRANCH   1  11
ATOM      4  C   UNL     1       1.310  -4.354  -4.833  0.00  0.00    +0.045 C 
ATOM      5  C   UNL     1       0.413  -3.489  -3.986  0.00  0.00    -0.032 A 
ATOM      6  C   UNL     1      -0.733  -2.924  -4.530  0.00  0.00    +0.008 A 
ATOM      7  C   UNL     1      -1.529  -2.135  -3.720  0.00  0.00    +0.045 A 
ATOM      8  C   UNL     1      -1.157  -1.937  -2.394  0.00  0.00    +0.138 A 
ATOM      9  N   UNL     1      -0.054  -2.488  -1.913  0.00  0.00    -0.239 NA
ATOM     10  C   UNL     1       0.722  -3.249  -2.663  0.00  0.00    +0.116 A 
ATOM     11  N   UNL     1      -1.948  -1.147  -1.568  0.00  0.00    -0.199 N 
ATOM     12  H   UNL     1      -2.864  -0.682  -1.963  0.00  0.00    +0.175 HD
ENDBRANCH   1  11
BRANCH   1  13
ATOM     13  C   UNL     1       0.002  -0.004   0.002  0.00  0.00    +0.110 A 
ATOM     14  C   UNL     1       1.208  -0.681  -0.014  0.00  0.00    +0.029 A 
ATOM     15  C   UNL     1       2.399   0.022  -0.021  0.00  0.00    +0.007 A 
ATOM     16  C   UNL     1       2.387   1.403  -0.013  0.00  0.00    -0.030 A 
ATOM     17  C   UNL     1       1.178   2.086   0.002  0.00  0.00    +0.029 A 
ATOM     18  C   UNL     1      -0.017   1.377   0.010  0.00  0.00    +0.051 A 
ATOM     19  C   UNL     1       3.686   2.168  -0.021  0.00  0.00    +0.045 C 
BRANCH  17  20
ATOM     20  N   UNL     1       1.163   3.483   0.009  0.00  0.00    -0.358 N 
ATOM     21  H   UNL     1       0.204   4.022   0.021  0.00  0.00    +0.142 HD
ATOM     22  H   UNL     1       2.109   4.043   0.003  0.00  0.00    +0.142 HD
ENDBRANCH  17  20
ENDBRANCH   1  13
TORSDOF 3
