REMARK  Name = ZINC19745202
REMARK  7 active torsions:
REMARK  status: ('A' for Active; 'I' for Inactive)
REMARK    1  A    between atoms: C_4  and  C_7
REMARK    2  A    between atoms: C_7  and  C_8
REMARK    3  A    between atoms: C_8  and  N_9
REMARK    4  A    between atoms: C_15  and  C_17
REMARK    5  A    between atoms: C_17  and  C_18
REMARK    6  A    between atoms: N_20  and  C_21
REMARK    7  A    between atoms: C_21  and  C_22
REMARK                            x       y       z     vdW  Elec       q    Type
REMARK                         _______ _______ _______ _____ _____    ______ ____
ROOT
ATOM      1  N   UNL     1       2.506  -0.000   0.189  0.00  0.00    +0.389 N 
ATOM      2  C   UNL     1       1.540  -0.738  -0.642  0.00  0.00    -0.059 C 
ATOM      3  C   UNL     1       0.125  -0.376  -0.189  0.00  0.00    +0.085 C 
ATOM      4  N   UNL     1      -0.023   1.075  -0.120  0.00  0.00    -0.318 N 
ATOM      5  C   UNL     1       1.020   1.911  -0.070  0.00  0.00    +0.200 C 
ATOM      6  O   UNL     1       0.808   3.101   0.017  0.00  0.00    -0.278 OA
ATOM      7  C   UNL     1       2.445   1.435  -0.117  0.00  0.00    +0.028 C 
ATOM      8  H   UNL     1      -1.026   1.526  -0.108  0.00  0.00    +0.149 HD
ATOM      9  H   UNL     1       2.238  -0.142   1.246  0.00  0.00    -0.081 HD
ENDROOT
BRANCH   1  10
ATOM     10  C   UNL     1       3.867  -0.521   0.003  0.00  0.00    -0.073 C 
BRANCH  10  11
ATOM     11  C   UNL     1       4.310  -0.285  -1.443  0.00  0.00    +0.016 C 
BRANCH  11  15
ATOM     12  C   UNL     1       8.338  -1.620  -1.933  0.00  0.00    +0.000 A 
ATOM     13  C   UNL     1       7.287  -2.462  -2.249  0.00  0.00    +0.000 A 
ATOM     14  C   UNL     1       5.984  -2.030  -2.090  0.00  0.00    +0.003 A 
ATOM     15  C   UNL     1       5.731  -0.756  -1.615  0.00  0.00    -0.049 A 
ATOM     16  C   UNL     1       6.781   0.087  -1.305  0.00  0.00    +0.003 A 
ATOM     17  C   UNL     1       8.085  -0.346  -1.459  0.00  0.00    +0.000 A 
ENDBRANCH  11  15
ENDBRANCH  10  11
ENDBRANCH   1  10
BRANCH   7  18
ATOM     18  C   UNL     1       3.273   2.209   0.911  0.00  0.00    +0.089 C 
BRANCH  18  19
ATOM     19  C   UNL     1       2.727   1.951   2.292  0.00  0.00    +0.212 C 
ATOM     20  O   UNL     1       1.831   1.149   2.450  0.00  0.00    -0.276 OA
ATOM     21  N   UNL     1       3.236   2.611   3.352  0.00  0.00    -0.310 N 
ATOM     22  H   UNL     1       4.048   3.338   3.208  0.00  0.00    +0.149 HD
BRANCH  21  23
ATOM     23  C   UNL     1       2.705   2.360   4.694  0.00  0.00    +0.157 C 
BRANCH  23  24
ATOM     24  C   UNL     1       3.439   3.218   5.692  0.00  0.00    +0.034 A 
ATOM     25  C   UNL     1       3.023   4.417   6.131  0.00  0.00    +0.032 A 
ATOM     26  C   UNL     1       4.027   4.896   7.084  0.00  0.00    +0.001 A 
ATOM     27  C   UNL     1       4.157   6.051   7.858  0.00  0.00    +0.030 A 
ATOM     28  C   UNL     1       5.245   6.204   8.672  0.00  0.00    +0.042 A 
ATOM     29  C   UNL     1       6.223   5.219   8.734  0.00  0.00    +0.022 A 
ATOM     30  C   UNL     1       6.114   4.073   7.978  0.00  0.00    +0.027 A 
ATOM     31  C   UNL     1       5.015   3.897   7.144  0.00  0.00    +0.047 A 
ATOM     32  N   UNL     1       4.625   2.889   6.290  0.00  0.00    -0.357 N 
ATOM     33  H   UNL     1       5.112   1.931   6.054  0.00  0.00    +0.166 HD
ATOM     34 CL   UNL     1       5.405   7.640   9.635  0.00  0.00    -0.084 Cl
ENDBRANCH  23  24
ENDBRANCH  21  23
ENDBRANCH  18  19
ENDBRANCH   7  18
TORSDOF 7
