REMARK  Name = ZINC17094541
REMARK  4 active torsions:
REMARK  status: ('A' for Active; 'I' for Inactive)
REMARK    1  A    between atoms: C_1  and  C_2
REMARK    2  A    between atoms: C_2  and  C_3
REMARK    3  A    between atoms: C_2  and  C_4
REMARK    4  A    between atoms: C_7  and  C_10
REMARK                            x       y       z     vdW  Elec       q    Type
REMARK                         _______ _______ _______ _____ _____    ______ ____
ROOT
ATOM      1  C   UNL     1       2.152  -4.614  -0.182  0.00  0.00    +0.032 C 
ATOM      2  C   UNL     1       1.020  -4.517  -1.204  0.00  0.00    +0.060 C 
ATOM      3  C   UNL     1       0.767  -3.077  -1.584  0.00  0.00    +0.020 C 
ATOM      4  C   UNL     1       1.071  -2.054  -0.767  0.00  0.00    +0.038 C 
ATOM      5  C   UNL     1       1.642  -2.305   0.497  0.00  0.00    +0.164 C 
ATOM      6  O   UNL     1       2.036  -1.395   1.195  0.00  0.00    -0.292 OA
ATOM      7  C   UNL     1       1.797  -3.714   1.006  0.00  0.00    +0.088 C 
ATOM      8  C   UNL     1       0.843  -0.588  -1.131  0.00  0.00    +0.078 C 
ATOM      9  C   UNL     1       0.002  -0.004   0.002  0.00  0.00    +0.033 C 
ATOM     10  C   UNL     1      -0.019   1.518   0.010  0.00  0.00    +0.003 C 
ATOM     11  C   UNL     1       1.398   2.083  -0.000  0.00  0.00    +0.000 C 
ATOM     12  C   UNL     1       2.179   1.567  -1.205  0.00  0.00    +0.003 C 
ATOM     13  C   UNL     1       2.232   0.045  -1.190  0.00  0.00    +0.033 C 
ATOM     14  N   UNL     1       0.153  -0.476  -2.412  0.00  0.00    -0.301 N 
ATOM     15  C   UNL     1      -0.310   0.608  -3.111  0.00  0.00    +0.071 A 
ATOM     16  C   UNL     1      -0.279   1.983  -2.915  0.00  0.00    +0.028 A 
ATOM     17  C   UNL     1      -0.912   2.796  -3.843  0.00  0.00    +0.002 A 
ATOM     18  C   UNL     1      -1.569   2.283  -4.947  0.00  0.00    +0.002 A 
ATOM     19  C   UNL     1      -1.607   0.924  -5.188  0.00  0.00    +0.030 A 
ATOM     20  C   UNL     1      -0.959   0.093  -4.266  0.00  0.00    +0.091 A 
ATOM     21  N   UNL     1      -0.816  -1.243  -4.248  0.00  0.00    -0.214 NA
ATOM     22  C   UNL     1      -0.159  -1.584  -3.174  0.00  0.00    +0.201 A 
ATOM     23  N   UNL     1       0.191  -2.870  -2.812  0.00  0.00    -0.288 N 
ATOM     24  H   UNL     1       0.033  -3.615  -3.417  0.00  0.00    +0.155 HD
ENDROOT
BRANCH   1  28
ATOM     25  C   UNL     1       2.558  -8.653   1.147  0.00  0.00    -0.045 A 
ATOM     26  C   UNL     1       3.618  -8.021   0.525  0.00  0.00    +0.004 A 
ATOM     27  C   UNL     1       3.486  -6.714   0.095  0.00  0.00    +0.004 A 
ATOM     28  C   UNL     1       2.295  -6.039   0.286  0.00  0.00    -0.043 A 
ATOM     29  C   UNL     1       1.236  -6.670   0.913  0.00  0.00    +0.004 A 
ATOM     30  C   UNL     1       1.366  -7.979   1.338  0.00  0.00    +0.004 A 
BRANCH  25  32
ATOM     31  C   UNL     1       2.479 -10.142   3.129  0.00  0.00    +0.012 C 
ATOM     32  C   UNL     1       2.701 -10.078   1.617  0.00  0.00    +0.013 C 
ATOM     33  C   UNL     1       1.663 -10.954   0.911  0.00  0.00    +0.012 C 
ENDBRANCH  25  32
ENDBRANCH   1  28
TORSDOF 2
