REMARK  Name = ZINC12881481
REMARK  7 active torsions:
REMARK  status: ('A' for Active; 'I' for Inactive)
REMARK    1  A    between atoms: C_1  and  C_2
REMARK    2  A    between atoms: C_16  and  C_18
REMARK    3  A    between atoms: C_18  and  C_19
REMARK    4  A    between atoms: N_24  and  C_27
REMARK    5  A    between atoms: C_27  and  C_28
REMARK    6  A    between atoms: C_31  and  O_34
REMARK    7  A    between atoms: O_34  and  C_35
REMARK                            x       y       z     vdW  Elec       q    Type
REMARK                         _______ _______ _______ _____ _____    ______ ____
ROOT
ATOM      1  C   UNL     1      -0.998   2.015   0.610  0.00  0.00    +0.045 C 
ATOM      2  C   UNL     1       0.299   1.263   0.453  0.00  0.00    -0.029 A 
ATOM      3  C   UNL     1       0.290  -0.114   0.372  0.00  0.00    +0.005 A 
ATOM      4  C   UNL     1       1.474  -0.812   0.223  0.00  0.00    +0.001 A 
ATOM      5  C   UNL     1       2.675  -0.126   0.156  0.00  0.00    +0.004 A 
ATOM      6  C   UNL     1       2.688   1.248   0.237  0.00  0.00    -0.027 A 
ATOM      7  C   UNL     1       1.502   1.962   0.386  0.00  0.00    +0.039 A 
ATOM      8  N   UNL     1       1.767   3.332   0.443  0.00  0.00    -0.286 N 
ATOM      9  C   UNL     1       3.083   3.599   0.341  0.00  0.00    +0.211 C 
ATOM     10  O   UNL     1       3.603   4.695   0.359  0.00  0.00    -0.277 OA
ATOM     11  C   UNL     1       3.784   2.276   0.202  0.00  0.00    +0.050 C 
ATOM     12  C   UNL     1       4.586   2.200  -1.102  0.00  0.00    +0.088 C 
ATOM     13  C   UNL     1       5.856   1.383  -0.735  0.00  0.00    +0.073 C 
ATOM     14  C   UNL     1       5.679   1.027   0.757  0.00  0.00    -0.049 C 
ATOM     15  C   UNL     1       5.714   0.127  -1.564  0.00  0.00    +0.224 C 
ATOM     16  O   UNL     1       6.502  -0.794  -1.582  0.00  0.00    -0.275 OA
ATOM     17  N   UNL     1       4.583   0.190  -2.276  0.00  0.00    -0.237 N 
ATOM     18  C   UNL     1       3.872   1.308  -2.092  0.00  0.00    +0.225 C 
ATOM     19  O   UNL     1       2.820   1.567  -2.636  0.00  0.00    -0.275 OA
ATOM     20  H   UNL     1       1.082   4.011   0.544  0.00  0.00    +0.155 HD
ATOM     21  N   UNL     1       4.756   2.049   1.257  0.00  0.00    +0.394 N 
ATOM     22  H   UNL     1       4.286   1.717   2.107  0.00  0.00    -0.083 HD
ATOM     23  H   UNL     1       5.265   2.916   1.463  0.00  0.00    -0.083 HD
ENDROOT
BRANCH  14  24
ATOM     24  C   UNL     1       7.025   1.087   1.482  0.00  0.00    +0.080 C 
BRANCH  24  25
ATOM     25  C   UNL     1       6.836   0.692   2.924  0.00  0.00    +0.209 C 
ATOM     26  O   UNL     1       5.734   0.392   3.332  0.00  0.00    -0.276 OA
ATOM     27  N   UNL     1       7.893   0.673   3.761  0.00  0.00    -0.329 N 
ATOM     28  H   UNL     1       8.774   0.913   3.435  0.00  0.00    +0.145 HD
ATOM     29  H   UNL     1       7.771   0.418   4.689  0.00  0.00    +0.145 HD
ENDBRANCH  24  25
ENDBRANCH  14  24
BRANCH  17  30
ATOM     30  C   UNL     1       4.157  -0.880  -3.182  0.00  0.00    +0.151 C 
BRANCH  30  31
ATOM     31  C   UNL     1       4.719  -0.627  -4.557  0.00  0.00    -0.029 A 
ATOM     32  C   UNL     1       4.000   0.122  -5.470  0.00  0.00    +0.009 A 
ATOM     33  C   UNL     1       4.516   0.360  -6.729  0.00  0.00    +0.046 A 
ATOM     34  C   UNL     1       5.752  -0.163  -7.081  0.00  0.00    +0.120 A 
ATOM     35  C   UNL     1       6.469  -0.919  -6.165  0.00  0.00    +0.046 A 
ATOM     36  C   UNL     1       5.951  -1.150  -4.906  0.00  0.00    +0.009 A 
BRANCH  34  37
ATOM     37  O   UNL     1       6.260   0.065  -8.321  0.00  0.00    -0.495 OA
ATOM     38  C   UNL     1       5.467   0.852  -9.212  0.00  0.00    +0.277 C 
ENDBRANCH  34  37
ENDBRANCH  30  31
ENDBRANCH  17  30
TORSDOF 5
