REMARK  Name = ZINC16790898
REMARK  9 active torsions:
REMARK  status: ('A' for Active; 'I' for Inactive)
REMARK    1  A    between atoms: C_4  and  C_7
REMARK    2  A    between atoms: C_8  and  C_9
REMARK    3  A    between atoms: N_11  and  C_12
REMARK    4  A    between atoms: C_12  and  C_14
REMARK    5  A    between atoms: C_12  and  N_18
REMARK    6  A    between atoms: N_18  and  C_19
REMARK    7  A    between atoms: C_19  and  N_21
REMARK    8  A    between atoms: N_21  and  C_22
REMARK    9  A    between atoms: C_23  and  C_31
REMARK                            x       y       z     vdW  Elec       q    Type
REMARK                         _______ _______ _______ _____ _____    ______ ____
ROOT
ATOM      1  C   UNL     1      -3.810   9.366  -6.653  0.00  0.00    +0.211 C 
ENDROOT
BRANCH   1   4
ATOM      2  C   UNL     1      -1.442   9.156  -7.188  0.00  0.00    +0.238 C 
ATOM      3  O   UNL     1      -1.692   8.105  -7.748  0.00  0.00    -0.271 OA
ATOM      4  N   UNL     1      -2.433   9.863  -6.609  0.00  0.00    -0.290 N 
ATOM      5  H   UNL     1      -2.234  10.701  -6.162  0.00  0.00    +0.151 HD
BRANCH   2   7
ATOM      6  C   UNL     1       0.943   8.886  -7.601  0.00  0.00    +0.013 C 
ATOM      7  C   UNL     1      -0.066   9.653  -7.144  0.00  0.00    +0.068 C 
BRANCH   6  11
ATOM      8  C   UNL     1       0.255   4.801  -8.516  0.00  0.00    +0.000 A 
ATOM      9  C   UNL     1       1.003   5.583  -9.378  0.00  0.00    +0.001 A 
ATOM     10  C   UNL     1       1.231   6.911  -9.088  0.00  0.00    +0.008 A 
ATOM     11  C   UNL     1       0.704   7.468  -7.919  0.00  0.00    -0.025 A 
ATOM     12  C   UNL     1      -0.047   6.670  -7.050  0.00  0.00    +0.008 A 
ATOM     13  C   UNL     1      -0.271   5.345  -7.357  0.00  0.00    +0.001 A 
ENDBRANCH   6  11
ENDBRANCH   2   7
ENDBRANCH   1   4
BRANCH   1  14
ATOM     14  C   UNL     1      -4.755  10.512  -7.019  0.00  0.00    +0.225 C 
ATOM     15 CL   UNL     1      -4.627  11.815  -5.779  0.00  0.00    -0.080 Cl
ATOM     16 CL   UNL     1      -4.302  11.172  -8.634  0.00  0.00    -0.080 Cl
ATOM     17 CL   UNL     1      -6.450   9.900  -7.073  0.00  0.00    -0.080 Cl
ENDBRANCH   1  14
BRANCH   1  18
ATOM     18  N   UNL     1      -4.178   8.829  -5.340  0.00  0.00    -0.305 N 
ATOM     19  H   UNL     1      -4.374   9.434  -4.607  0.00  0.00    +0.150 HD
BRANCH  18  20
ATOM     20  C   UNL     1      -4.245   7.497  -5.151  0.00  0.00    +0.136 C 
ATOM     21  S   UNL     1      -3.900   6.430  -6.445  0.00  0.00    -0.019 S 
BRANCH  20  22
ATOM     22  N   UNL     1      -4.584   7.003  -3.944  0.00  0.00    -0.290 N 
ATOM     23  H   UNL     1      -4.780   7.607  -3.211  0.00  0.00    +0.154 HD
BRANCH  22  24
ATOM     24  C   UNL     1      -4.652   5.631  -3.749  0.00  0.00    +0.089 A 
ATOM     25  C   UNL     1      -4.979   4.940  -2.592  0.00  0.00    +0.084 A 
ATOM     26  C   UNL     1      -4.978   3.489  -2.653  0.00  0.00    -0.018 A 
ATOM     27  C   UNL     1      -4.651   2.964  -3.854  0.00  0.00    -0.004 A 
ATOM     28  S   UNL     1      -4.350   4.365  -4.893  0.00  0.00    -0.077 S 
ATOM     29  C   UNL     1      -4.566   1.512  -4.213  0.00  0.00    +0.043 C 
ATOM     30  C   UNL     1      -4.540   0.694  -2.913  0.00  0.00    +0.005 C 
ATOM     31  C   UNL     1      -5.656   1.193  -1.990  0.00  0.00    +0.005 C 
ATOM     32  C   UNL     1      -5.316   2.590  -1.470  0.00  0.00    +0.037 C 
BRANCH  25  33
ATOM     33  C   UNL     1      -5.307   5.632  -1.381  0.00  0.00    +0.102 C 
ATOM     34  N   UNL     1      -5.566   6.181  -0.421  0.00  0.00    -0.191 NA
ENDBRANCH  25  33
ENDBRANCH  22  24
ENDBRANCH  20  22
ENDBRANCH  18  20
ENDBRANCH   1  18
TORSDOF 9
