REMARK  Name = ZINC49409655
REMARK  9 active torsions:
REMARK  status: ('A' for Active; 'I' for Inactive)
REMARK    1  A    between atoms: C_1  and  N_2
REMARK    2  A    between atoms: N_2  and  C_3
REMARK    3  A    between atoms: N_2  and  C_4
REMARK    4  A    between atoms: C_4  and  C_6
REMARK    5  A    between atoms: C_4  and  C_22
REMARK    6  A    between atoms: C_6  and  N_7
REMARK    7  A    between atoms: C_8  and  C_10
REMARK    8  A    between atoms: N_12  and  C_13
REMARK    9  A    between atoms: C_16  and  N_19
REMARK                            x       y       z     vdW  Elec       q    Type
REMARK                         _______ _______ _______ _____ _____    ______ ____
ROOT
ATOM      1  N   UNL     1      -1.254  -2.586   1.198  0.00  0.00    -0.309 N 
ATOM      2  C   UNL     1      -1.485  -3.895   1.417  0.00  0.00    +0.299 C 
ATOM      3  O   UNL     1      -2.126  -4.541   0.614  0.00  0.00    -0.265 OA
ATOM      4  H   UNL     1      -0.742  -2.070   1.841  0.00  0.00    +0.149 HD
ENDROOT
BRANCH   2   5
ATOM      5  C   UNL     1      -0.952  -4.552   2.648  0.00  0.00    +0.303 C 
ATOM      6  O   UNL     1      -0.311  -3.907   3.451  0.00  0.00    -0.265 OA
ATOM      7  N   UNL     1      -1.183  -5.862   2.867  0.00  0.00    -0.278 N 
ATOM      8  H   UNL     1      -1.630  -6.395   2.191  0.00  0.00    +0.155 HD
BRANCH   7   9
ATOM      9  C   UNL     1      -0.778  -6.452   4.067  0.00  0.00    +0.034 A 
ATOM     10  C   UNL     1      -0.330  -7.767   4.080  0.00  0.00    +0.025 A 
ATOM     11  C   UNL     1       0.070  -8.347   5.268  0.00  0.00    +0.034 A 
ATOM     12  C   UNL     1       0.024  -7.620   6.444  0.00  0.00    +0.126 A 
ATOM     13  C   UNL     1      -0.422  -6.311   6.434  0.00  0.00    +0.034 A 
ATOM     14  C   UNL     1      -0.818  -5.723   5.249  0.00  0.00    +0.025 A 
BRANCH  12  15
ATOM     15  N   UNL     1       0.452  -8.245   7.715  0.00  0.00    +0.056 N 
ATOM     16  O   UNL     1       0.842  -9.390   7.725  0.00  0.00    -0.126 OA
ATOM     17  O   UNL     1       0.412  -7.611   8.744  0.00  0.00    -0.126 OA
ENDBRANCH  12  15
ENDBRANCH   7   9
ENDBRANCH   2   5
BRANCH   1  18
ATOM     18  C   UNL     1      -1.777  -1.941  -0.009  0.00  0.00    +0.094 C 
BRANCH  18  19
ATOM     19  C   UNL     1      -1.486  -0.440   0.047  0.00  0.00    -0.020 C 
BRANCH  19  20
ATOM     20  C   UNL     1       0.003  -0.215  -0.014  0.00  0.00    -0.041 A 
ATOM     21  C   UNL     1       0.729  -0.070   1.154  0.00  0.00    +0.003 A 
ATOM     22  C   UNL     1       2.094   0.137   1.098  0.00  0.00    +0.000 A 
ATOM     23  C   UNL     1       2.735   0.199  -0.125  0.00  0.00    +0.001 A 
ATOM     24  C   UNL     1       2.011   0.054  -1.293  0.00  0.00    +0.020 A 
ATOM     25  C   UNL     1       0.644  -0.159  -1.238  0.00  0.00    +0.043 A 
ATOM     26 CL   UNL     1      -0.265  -0.348  -2.704  0.00  0.00    -0.083 Cl
ENDBRANCH  19  20
BRANCH  19  28
ATOM     27  C   UNL     1      -1.837   1.573   1.304  0.00  0.00    -0.096 C 
ATOM     28  N   UNL     1      -2.014   0.115   1.301  0.00  0.00    +0.382 N 
ATOM     29  C   UNL     1      -3.444  -0.205   1.414  0.00  0.00    -0.096 C 
ATOM     30  H   UNL     1      -1.517  -0.286   2.082  0.00  0.00    -0.082 HD
ENDBRANCH  19  28
ENDBRANCH  18  19
ENDBRANCH   1  18
TORSDOF 7
