REMARK  Name = ZINC40555045
REMARK  10 active torsions:
REMARK  status: ('A' for Active; 'I' for Inactive)
REMARK    1  A    between atoms: C_1  and  C_2
REMARK    2  A    between atoms: C_4  and  O_41
REMARK    3  A    between atoms: C_6  and  N_40
REMARK    4  A    between atoms: C_9  and  O_12
REMARK    5  A    between atoms: O_12  and  C_13
REMARK    6  A    between atoms: C_16  and  C_36
REMARK    7  A    between atoms: C_16  and  O_39
REMARK    8  A    between atoms: C_20  and  O_35
REMARK    9  A    between atoms: C_23  and  O_24
REMARK   10  A    between atoms: C_36  and  C_38
REMARK                            x       y       z     vdW  Elec       q    Type
REMARK                         _______ _______ _______ _____ _____    ______ ____
ROOT
ATOM      1  C   UNL     1       2.696  -1.527   2.572  0.00  0.00    +0.158 C 
ATOM      2  C   UNL     1       3.475  -1.433   3.882  0.00  0.00    +0.079 C 
ATOM      3  C   UNL     1       4.972  -1.399   3.550  0.00  0.00    +0.130 C 
ATOM      4  C   UNL     1       5.380  -2.775   3.029  0.00  0.00    +0.082 C 
ATOM      5  C   UNL     1       4.455  -3.221   1.925  0.00  0.00    +0.007 A 
ATOM      6  C   UNL     1       3.224  -2.652   1.720  0.00  0.00    +0.030 A 
ATOM      7  C   UNL     1       2.402  -3.114   0.682  0.00  0.00    +0.134 A 
ATOM      8  C   UNL     1       2.826  -4.148  -0.150  0.00  0.00    +0.078 A 
ATOM      9  C   UNL     1       4.093  -4.730   0.060  0.00  0.00    +0.078 A 
ATOM     10  C   UNL     1       4.896  -4.260   1.095  0.00  0.00    +0.132 A 
ATOM     11  C   UNL     1       4.556  -5.823  -0.812  0.00  0.00    +0.198 C 
ATOM     12  O   UNL     1       5.649  -6.324  -0.631  0.00  0.00    -0.286 OA
ATOM     13  C   UNL     1       3.691  -6.309  -1.907  0.00  0.00    +0.033 A 
ATOM     14  C   UNL     1       4.121  -7.341  -2.736  0.00  0.00    +0.012 A 
ATOM     15  C   UNL     1       3.304  -7.789  -3.759  0.00  0.00    +0.001 A 
ATOM     16  C   UNL     1       2.061  -7.219  -3.964  0.00  0.00    +0.001 A 
ATOM     17  C   UNL     1       1.618  -6.193  -3.149  0.00  0.00    +0.012 A 
ATOM     18  C   UNL     1       2.427  -5.729  -2.116  0.00  0.00    +0.033 A 
ATOM     19  C   UNL     1       1.962  -4.633  -1.240  0.00  0.00    +0.198 C 
ATOM     20  O   UNL     1       0.869  -4.132  -1.420  0.00  0.00    -0.286 OA
ENDROOT
BRANCH   3  21
ATOM     21  C   UNL     1       5.234  -0.357   2.494  0.00  0.00    +0.162 C 
ATOM     22  O   UNL     1       5.295  -0.678   1.331  0.00  0.00    -0.295 OA
ATOM     23  C   UNL     1       5.420   1.086   2.887  0.00  0.00    +0.089 C 
ENDBRANCH   3  21
BRANCH  10  24
ATOM     24  O   UNL     1       6.116  -4.815   1.303  0.00  0.00    -0.506 OA
ATOM     25  H   UNL     1       6.107  -5.567   1.911  0.00  0.00    +0.292 HD
ENDBRANCH  10  24
BRANCH   7  26
ATOM     26  O   UNL     1       1.185  -2.549   0.486  0.00  0.00    -0.506 OA
ATOM     27  H   UNL     1       1.206  -1.750  -0.060  0.00  0.00    +0.292 HD
ENDBRANCH   7  26
BRANCH   3  28
ATOM     28  O   UNL     1       5.719  -1.090   4.728  0.00  0.00    -0.381 OA
ATOM     29  H   UNL     1       6.676  -1.052   4.589  0.00  0.00    +0.211 HD
ENDBRANCH   3  28
BRANCH   1  30
ATOM     30  O   UNL     1       1.316  -1.762   2.861  0.00  0.00    -0.343 OA
BRANCH  30  36
ATOM     31  C   UNL     1       0.622   1.993   5.676  0.00  0.00    +0.040 C 
ATOM     32  C   UNL     1       0.161   1.337   4.372  0.00  0.00    +0.145 C 
ATOM     33  C   UNL     1      -1.340   1.048   4.450  0.00  0.00    +0.129 C 
ATOM     34  C   UNL     1      -1.782   0.338   3.167  0.00  0.00    -0.039 C 
ATOM     35  C   UNL     1      -0.953  -0.938   2.990  0.00  0.00    +0.048 C 
ATOM     36  C   UNL     1       0.534  -0.572   2.969  0.00  0.00    +0.250 C 
ATOM     37  O   UNL     1       0.872   0.113   4.177  0.00  0.00    -0.346 OA
BRANCH  34  38
ATOM     38  N   UNL     1      -3.206  -0.009   3.263  0.00  0.00    +0.382 N 
ATOM     39  H   UNL     1      -3.750   0.832   3.385  0.00  0.00    -0.090 HD
ATOM     40  H   UNL     1      -3.496  -0.477   2.417  0.00  0.00    -0.090 HD
ATOM     41  H   UNL     1      -3.351  -0.621   4.052  0.00  0.00    -0.090 HD
ENDBRANCH  34  38
BRANCH  33  42
ATOM     42  O   UNL     1      -1.608   0.211   5.577  0.00  0.00    -0.391 OA
ATOM     43  H   UNL     1      -1.348   0.597   6.424  0.00  0.00    +0.210 HD
ENDBRANCH  33  42
ENDBRANCH  30  36
ENDBRANCH   1  30
TORSDOF 8
