REMARK  Name = ZINC01084294
REMARK  7 active torsions:
REMARK  status: ('A' for Active; 'I' for Inactive)
REMARK    1  A    between atoms: C_4  and  O_7
REMARK    2  A    between atoms: O_7  and  C_8
REMARK    3  A    between atoms: C_8  and  C_9
REMARK    4  A    between atoms: C_8  and  C_13
REMARK    5  A    between atoms: C_8  and  N_17
REMARK    6  A    between atoms: N_20  and  C_21
REMARK    7  A    between atoms: C_22  and  C_30
REMARK                            x       y       z     vdW  Elec       q    Type
REMARK                         _______ _______ _______ _____ _____    ______ ____
ROOT
ATOM      1  N   UNL     1      -0.670   1.669   1.284  0.00  0.00    -0.247 N 
ATOM      2  C   UNL     1      -0.853   2.942   1.690  0.00  0.00    +0.308 C 
ATOM      3  O   UNL     1      -0.530   3.863   0.966  0.00  0.00    -0.252 OA
ATOM      4  N   UNL     1      -1.394   3.192   2.899  0.00  0.00    -0.263 N 
ATOM      5  H   UNL     1      -0.998   0.935   1.827  0.00  0.00    +0.155 HD
ATOM      6  H   UNL     1      -1.652   2.457   3.476  0.00  0.00    +0.157 HD
ENDROOT
BRANCH   4   7
ATOM      7  C   UNL     1      -1.583   4.501   3.316  0.00  0.00    +0.086 A 
ATOM      8  C   UNL     1      -2.124   4.956   4.510  0.00  0.00    +0.068 A 
ATOM      9  C   UNL     1      -2.207   6.394   4.705  0.00  0.00    -0.023 A 
ATOM     10  C   UNL     1      -1.748   7.141   3.678  0.00  0.00    -0.004 A 
ATOM     11  S   UNL     1      -1.206   5.966   2.470  0.00  0.00    -0.077 S 
ATOM     12  C   UNL     1      -1.713   8.636   3.593  0.00  0.00    +0.043 C 
ATOM     13  C   UNL     1      -2.621   9.204   4.694  0.00  0.00    +0.005 C 
ATOM     14  C   UNL     1      -2.295   8.501   6.014  0.00  0.00    +0.005 C 
ATOM     15  C   UNL     1      -2.769   7.048   5.961  0.00  0.00    +0.037 C 
BRANCH   8  16
ATOM     16  C   UNL     1      -2.591   4.021   5.538  0.00  0.00    +0.244 C 
ATOM     17  O   UNL     1      -1.825   3.632   6.400  0.00  0.00    -0.270 OA
ATOM     18  N   UNL     1      -3.869   3.592   5.528  0.00  0.00    -0.325 N 
ATOM     19  H   UNL     1      -4.479   3.902   4.840  0.00  0.00    +0.145 HD
ATOM     20  H   UNL     1      -4.178   2.974   6.208  0.00  0.00    +0.145 HD
ENDBRANCH   8  16
ENDBRANCH   4   7
BRANCH   1  21
ATOM     21  C   UNL     1       0.024   1.395   0.024  0.00  0.00    +0.371 C 
BRANCH  21  22
ATOM     22  C   UNL     1      -0.215  -0.060  -0.384  0.00  0.00    +0.457 C 
ATOM     23  F   UNL     1       0.558  -0.361  -1.510  0.00  0.00    -0.165 F 
ATOM     24  F   UNL     1       0.149  -0.905   0.670  0.00  0.00    -0.165 F 
ATOM     25  F   UNL     1      -1.569  -0.244  -0.684  0.00  0.00    -0.165 F 
ENDBRANCH  21  22
BRANCH  21  26
ATOM     26  C   UNL     1       1.524   1.635   0.205  0.00  0.00    +0.457 C 
ATOM     27  F   UNL     1       1.736   2.936   0.674  0.00  0.00    -0.165 F 
ATOM     28  F   UNL     1       2.034   0.717   1.130  0.00  0.00    -0.165 F 
ATOM     29  F   UNL     1       2.175   1.470  -1.022  0.00  0.00    -0.165 F 
ENDBRANCH  21  26
BRANCH  21  30
ATOM     30  O   UNL     1      -0.477   2.263  -0.995  0.00  0.00    -0.452 OA
BRANCH  30  34
ATOM     31  C   UNL     1      -4.570   2.398  -1.494  0.00  0.00    +0.000 A 
ATOM     32  C   UNL     1      -3.744   3.064  -2.381  0.00  0.00    +0.004 A 
ATOM     33  C   UNL     1      -2.373   3.021  -2.216  0.00  0.00    +0.046 A 
ATOM     34  C   UNL     1      -1.825   2.308  -1.159  0.00  0.00    +0.124 A 
ATOM     35  C   UNL     1      -2.656   1.636  -0.274  0.00  0.00    +0.046 A 
ATOM     36  C   UNL     1      -4.026   1.688  -0.440  0.00  0.00    +0.004 A 
ENDBRANCH  30  34
ENDBRANCH  21  30
ENDBRANCH   1  21
TORSDOF 7
