REMARK  Name = ZINC58972068
REMARK  13 active torsions:
REMARK  status: ('A' for Active; 'I' for Inactive)
REMARK    1  A    between atoms: C_1  and  C_2
REMARK    2  A    between atoms: C_5  and  S_25
REMARK    3  A    between atoms: C_7  and  C_8
REMARK    4  A    between atoms: N_10  and  C_11
REMARK    5  A    between atoms: C_11  and  C_12
REMARK    6  A    between atoms: C_12  and  C_13
REMARK    7  A    between atoms: C_13  and  C_14
REMARK    8  A    between atoms: C_14  and  N_15
REMARK    9  A    between atoms: C_17  and  C_24
REMARK   10  A    between atoms: C_20  and  C_23
REMARK   11  A    between atoms: S_25  and  N_28
REMARK   12  A    between atoms: N_28  and  C_29
REMARK   13  A    between atoms: C_29  and  C_30
REMARK                            x       y       z     vdW  Elec       q    Type
REMARK                         _______ _______ _______ _____ _____    ______ ____
ROOT
ATOM      1  C   UNL     1      -0.511   1.452   0.082  0.00  0.00    +0.044 C 
ATOM      2  C   UNL     1      -0.234  -0.028   0.036  0.00  0.00    -0.038 A 
ATOM      3  C   UNL     1      -0.334  -0.714  -1.157  0.00  0.00    +0.006 A 
ATOM      4  C   UNL     1      -0.080  -2.073  -1.200  0.00  0.00    +0.029 A 
ATOM      5  C   UNL     1       0.275  -2.754  -0.049  0.00  0.00    +0.106 A 
ATOM      6  C   UNL     1       0.378  -2.080   1.150  0.00  0.00    +0.041 A 
ATOM      7  C   UNL     1       0.128  -0.708   1.200  0.00  0.00    +0.041 A 
ENDROOT
BRANCH   7   8
ATOM      8  C   UNL     1       0.242   0.021   2.481  0.00  0.00    +0.244 C 
ATOM      9  O   UNL     1       0.135   1.232   2.503  0.00  0.00    -0.270 OA
ATOM     10  N   UNL     1       0.465  -0.656   3.625  0.00  0.00    -0.311 N 
ATOM     11  H   UNL     1       0.551  -1.622   3.607  0.00  0.00    +0.149 HD
BRANCH  10  12
ATOM     12  C   UNL     1       0.578   0.067   4.894  0.00  0.00    +0.104 C 
BRANCH  12  13
ATOM     13  C   UNL     1       0.829  -0.930   6.028  0.00  0.00    +0.017 C 
BRANCH  13  14
ATOM     14  C   UNL     1       0.947  -0.175   7.353  0.00  0.00    -0.017 C 
BRANCH  14  15
ATOM     15  C   UNL     1       1.197  -1.171   8.487  0.00  0.00    -0.079 C 
BRANCH  15  16
ATOM     16  N   UNL     1       1.310  -0.447   9.760  0.00  0.00    +0.380 N 
ATOM     17  C   UNL     1       2.495   0.419   9.724  0.00  0.00    -0.076 C 
ATOM     18  C   UNL     1       2.573   1.237  11.015  0.00  0.00    -0.031 C 
ATOM     19  C   UNL     1       2.670   0.285  12.211  0.00  0.00    +0.003 C 
ATOM     20  C   UNL     1       1.468  -0.663  12.195  0.00  0.00    -0.031 C 
ATOM     21  C   UNL     1       1.431  -1.410  10.861  0.00  0.00    -0.076 C 
ATOM     22  C   UNL     1       0.179   0.144  12.366  0.00  0.00    +0.005 C 
ATOM     23  C   UNL     1       3.809   2.138  10.976  0.00  0.00    +0.005 C 
ATOM     24  H   UNL     1       0.486   0.119   9.898  0.00  0.00    -0.082 HD
ENDBRANCH  15  16
ENDBRANCH  14  15
ENDBRANCH  13  14
ENDBRANCH  12  13
ENDBRANCH  10  12
ENDBRANCH   7   8
BRANCH   5  25
ATOM     25  S   UNL     1       0.595  -4.486  -0.115  0.00  0.00    +0.059 S 
ATOM     26  O   UNL     1       0.375  -4.989   1.195  0.00  0.00    -0.153 OA
ATOM     27  O   UNL     1      -0.101  -4.984  -1.250  0.00  0.00    -0.153 OA
BRANCH  25  28
ATOM     28  N   UNL     1       2.210  -4.673  -0.430  0.00  0.00    -0.183 NA
ATOM     29  H   UNL     1       2.498  -5.079  -1.263  0.00  0.00    +0.148 HD
BRANCH  28  30
ATOM     30  C   UNL     1       3.204  -4.226   0.549  0.00  0.00    +0.180 C 
BRANCH  30  31
ATOM     31  C   UNL     1       4.545  -4.826   0.213  0.00  0.00    +0.120 A 
ATOM     32  C   UNL     1       5.476  -4.273  -0.585  0.00  0.00    +0.046 A 
ATOM     33  C   UNL     1       6.569  -5.169  -0.622  0.00  0.00    +0.041 A 
ATOM     34  C   UNL     1       6.240  -6.216   0.156  0.00  0.00    +0.195 A 
ATOM     35  O   UNL     1       5.015  -6.000   0.664  0.00  0.00    -0.466 OA
ENDBRANCH  30  31
ENDBRANCH  28  30
ENDBRANCH  25  28
ENDBRANCH   5  25
TORSDOF 10
