REMARK  Name = ZINC25170865
REMARK  8 active torsions:
REMARK  status: ('A' for Active; 'I' for Inactive)
REMARK    1  A    between atoms: C_1  and  C_2
REMARK    2  A    between atoms: C_4  and  C_13
REMARK    3  A    between atoms: C_6  and  C_12
REMARK    4  A    between atoms: N_8  and  C_11
REMARK    5  A    between atoms: C_18  and  C_21
REMARK    6  A    between atoms: C_24  and  C_26
REMARK    7  A    between atoms: C_26  and  N_27
REMARK    8  A    between atoms: C_28  and  C_30
REMARK                            x       y       z     vdW  Elec       q    Type
REMARK                         _______ _______ _______ _____ _____    ______ ____
ROOT
ATOM      1  C   UNL     1      -2.363   0.781  -0.013  0.00  0.00    +0.250 C 
ATOM      2  O   UNL     1      -3.426   1.359  -0.126  0.00  0.00    -0.270 OA
ATOM      3  N   UNL     1      -2.335  -0.561   0.107  0.00  0.00    -0.261 N 
ATOM      4  C   UNL     1      -3.520  -1.283   0.103  0.00  0.00    +0.165 A 
ATOM      5  N   UNL     1      -3.704  -2.586   0.208  0.00  0.00    -0.221 NA
ATOM      6  C   UNL     1      -4.926  -3.113   0.185  0.00  0.00    +0.115 A 
ATOM      7  C   UNL     1      -6.008  -2.286   0.049  0.00  0.00    +0.080 A 
ATOM      8  S   UNL     1      -5.201  -0.693  -0.038  0.00  0.00    -0.060 S 
ATOM      9  H   UNL     1      -1.373  -1.084   0.209  0.00  0.00    +0.157 HD
ENDROOT
BRANCH   1  13
ATOM     10  C   UNL     1       2.408   1.333  -1.392  0.00  0.00    +0.065 C 
ATOM     11  C   UNL     1       1.192   1.837  -0.658  0.00  0.00    +0.041 A 
ATOM     12  C   UNL     1       0.028   1.084  -0.681  0.00  0.00    +0.037 A 
ATOM     13  C   UNL     1      -1.100   1.550  -0.009  0.00  0.00    +0.051 A 
ATOM     14  C   UNL     1      -0.996   2.778   0.681  0.00  0.00    +0.054 A 
ATOM     15  C   UNL     1      -1.894   3.546   1.454  0.00  0.00    +0.070 A 
ATOM     16  N   UNL     1      -1.278   4.619   1.861  0.00  0.00    -0.174 NA
ATOM     17  N   UNL     1       0.039   4.618   1.386  0.00  0.00    -0.249 N 
ATOM     18  C   UNL     1       0.227   3.477   0.650  0.00  0.00    +0.159 A 
ATOM     19  N   UNL     1       1.262   2.981  -0.013  0.00  0.00    -0.233 NA
ATOM     20  C   UNL     1       1.042   5.657   1.633  0.00  0.00    +0.174 C 
ATOM     21  C   UNL     1      -3.325   3.183   1.758  0.00  0.00    +0.068 C 
ENDBRANCH   1  13
BRANCH   6  22
ATOM     22  C   UNL     1      -5.112  -4.575   0.303  0.00  0.00    +0.154 A 
ATOM     23  C   UNL     1      -4.121  -5.497   0.436  0.00  0.00    +0.052 A 
ATOM     24  C   UNL     1      -4.748  -6.757   0.517  0.00  0.00    +0.047 A 
ATOM     25  C   UNL     1      -6.074  -6.545   0.421  0.00  0.00    +0.123 A 
ATOM     26  O   UNL     1      -6.291  -5.225   0.292  0.00  0.00    -0.457 OA
BRANCH  25  27
ATOM     27  C   UNL     1      -7.139  -7.611   0.454  0.00  0.00    +0.178 C 
BRANCH  27  28
ATOM     28  N   UNL     1      -7.564  -7.835   1.838  0.00  0.00    -0.308 N 
ATOM     29  C   UNL     1      -8.515  -8.750   2.111  0.00  0.00    +0.210 C 
ATOM     30  O   UNL     1      -9.018  -9.389   1.211  0.00  0.00    -0.276 OA
ATOM     31  C   UNL     1      -8.953  -8.980   3.535  0.00  0.00    +0.109 C 
ATOM     32  H   UNL     1      -7.108  -7.255   2.654  0.00  0.00    +0.149 HD
ENDBRANCH  27  28
ENDBRANCH  25  27
ENDBRANCH   6  22
TORSDOF 4
