REMARK  Name = ZINC64354494
REMARK  6 active torsions:
REMARK  status: ('A' for Active; 'I' for Inactive)
REMARK    1  A    between atoms: C_1  and  N_2
REMARK    2  A    between atoms: N_2  and  C_3
REMARK    3  A    between atoms: C_8  and  C_9
REMARK    4  A    between atoms: N_11  and  N_12
REMARK    5  A    between atoms: C_13  and  C_15
REMARK    6  A    between atoms: C_24  and  C_26
REMARK                            x       y       z     vdW  Elec       q    Type
REMARK                         _______ _______ _______ _____ _____    ______ ____
ROOT
ATOM      1  C   UNL     1       2.237  -0.756   1.342  0.00  0.00    +0.262 C 
ATOM      2  O   UNL     1       2.332  -0.153   0.290  0.00  0.00    -0.269 OA
ATOM      3  N   UNL     1       3.349  -1.132   2.006  0.00  0.00    -0.230 N 
ATOM      4  H   UNL     1       3.273  -1.613   2.845  0.00  0.00    +0.173 HD
ENDROOT
BRANCH   1  10
ATOM      5  C   UNL     1      -0.253  -0.685   1.205  0.00  0.00    +0.048 A 
ATOM      6  C   UNL     1      -1.500  -0.997   1.730  0.00  0.00    +0.024 A 
ATOM      7  C   UNL     1      -1.597  -1.681   2.925  0.00  0.00    +0.002 A 
ATOM      8  C   UNL     1      -0.454  -2.062   3.609  0.00  0.00    +0.001 A 
ATOM      9  C   UNL     1       0.793  -1.762   3.103  0.00  0.00    +0.015 A 
ATOM     10  C   UNL     1       0.906  -1.075   1.892  0.00  0.00    +0.059 A 
BRANCH   5  12
ATOM     11  C   UNL     1      -0.104   1.470  -0.003  0.00  0.00    +0.138 C 
ATOM     12  N   UNL     1      -0.153   0.005  -0.000  0.00  0.00    -0.273 N 
ATOM     13  C   UNL     1      -0.102  -0.673  -1.163  0.00  0.00    +0.233 C 
ATOM     14  O   UNL     1       0.020  -0.073  -2.210  0.00  0.00    -0.274 OA
BRANCH  13  15
ATOM     15  C   UNL     1      -0.195  -2.177  -1.163  0.00  0.00    +0.141 C 
ATOM     16  C   UNL     1       0.543  -2.793  -2.381  0.00  0.00    +0.051 C 
ATOM     17  C   UNL     1      -0.219  -3.958  -2.928  0.00  0.00    -0.019 C 
ATOM     18  C   UNL     1      -1.493  -4.109  -2.624  0.00  0.00    +0.037 C 
ATOM     19  S   UNL     1      -1.904  -2.748  -1.545  0.00  0.00    -0.120 S 
ENDBRANCH  13  15
ENDBRANCH   5  12
ENDBRANCH   1  10
BRANCH   3  20
ATOM     20  N   UNL     1       4.613  -0.829   1.483  0.00  0.00    -0.230 N 
ATOM     21  C   UNL     1       5.724  -1.206   2.147  0.00  0.00    +0.258 C 
ATOM     22  O   UNL     1       5.629  -1.808   3.199  0.00  0.00    -0.269 OA
ATOM     23  H   UNL     1       4.688  -0.349   0.644  0.00  0.00    +0.173 HD
BRANCH  21  24
ATOM     24  C   UNL     1       7.047  -0.888   1.600  0.00  0.00    +0.044 C 
ATOM     25  C   UNL     1       8.272  -1.204   2.147  0.00  0.00    +0.008 A 
ATOM     26  C   UNL     1       8.651  -1.888   3.330  0.00  0.00    +0.010 A 
ATOM     27  C   UNL     1       9.957  -2.058   3.628  0.00  0.00    +0.001 A 
ATOM     28  C   UNL     1      10.987  -1.580   2.803  0.00  0.00    +0.002 A 
ATOM     29  C   UNL     1      10.734  -0.916   1.654  0.00  0.00    +0.026 A 
ATOM     30  C   UNL     1       9.337  -0.687   1.253  0.00  0.00    +0.043 A 
ATOM     31  N   UNL     1       8.814  -0.089   0.220  0.00  0.00    -0.380 N 
ATOM     32  C   UNL     1       7.352  -0.152   0.314  0.00  0.00    +0.154 C 
ATOM     33  H   UNL     1       9.314   0.328  -0.500  0.00  0.00    +0.160 HD
ENDBRANCH  21  24
ENDBRANCH   3  20
TORSDOF 5
