REMARK  Name = ZINC65774862
REMARK  12 active torsions:
REMARK  status: ('A' for Active; 'I' for Inactive)
REMARK    1  A    between atoms: C_1  and  C_2
REMARK    2  A    between atoms: C_2  and  C_3
REMARK    3  A    between atoms: C_2  and  N_4
REMARK    4  A    between atoms: C_5  and  N_9
REMARK    5  A    between atoms: N_12  and  N_13
REMARK    6  A    between atoms: C_14  and  C_16
REMARK    7  A    between atoms: C_19  and  O_24
REMARK    8  A    between atoms: C_20  and  O_22
REMARK    9  A    between atoms: O_22  and  C_23
REMARK   10  A    between atoms: O_24  and  C_25
REMARK   11  A    between atoms: C_25  and  C_26
REMARK   12  A    between atoms: C_25  and  C_27
REMARK                            x       y       z     vdW  Elec       q    Type
REMARK                         _______ _______ _______ _____ _____    ______ ____
ROOT
ATOM      1  N   UNL     1      -0.138  -2.510  -4.458  0.00  0.00    -0.229 N 
ATOM      2  C   UNL     1       0.526  -3.132  -5.452  0.00  0.00    +0.260 C 
ATOM      3  O   UNL     1      -0.032  -3.982  -6.118  0.00  0.00    -0.269 OA
ATOM      4  H   UNL     1       0.308  -1.831  -3.927  0.00  0.00    +0.173 HD
ENDROOT
BRANCH   1   8
ATOM      5  N   UNL     1      -1.516  -1.280  -2.458  0.00  0.00    -0.253 N 
ATOM      6  C   UNL     1      -2.135  -2.223  -3.196  0.00  0.00    +0.321 C 
ATOM      7  O   UNL     1      -3.293  -2.513  -2.963  0.00  0.00    -0.251 OA
ATOM      8  N   UNL     1      -1.472  -2.844  -4.190  0.00  0.00    -0.218 N 
ATOM      9  H   UNL     1      -0.593  -1.048  -2.643  0.00  0.00    +0.158 HD
ATOM     10  H   UNL     1      -1.917  -3.523  -4.721  0.00  0.00    +0.174 HD
BRANCH   5  12
ATOM     11  N   UNL     1      -1.708   0.323  -0.615  0.00  0.00    -0.248 N 
ATOM     12  C   UNL     1      -2.203  -0.637  -1.429  0.00  0.00    +0.125 A 
ATOM     13  C   UNL     1      -3.495  -0.860  -1.061  0.00  0.00    +0.065 A 
ATOM     14  C   UNL     1      -3.789  -0.010   0.008  0.00  0.00    +0.136 A 
ATOM     15  N   UNL     1      -2.720   0.694   0.280  0.00  0.00    -0.178 NA
BRANCH  11  17
ATOM     16  C   UNL     1      -0.417   2.378  -0.915  0.00  0.00    +0.032 C 
ATOM     17  C   UNL     1      -0.350   0.872  -0.656  0.00  0.00    +0.103 C 
ATOM     18  C   UNL     1       0.345   0.615   0.682  0.00  0.00    +0.032 C 
ENDBRANCH  11  17
ENDBRANCH   5  12
ENDBRANCH   1   8
BRANCH   2  19
ATOM     19  C   UNL     1       1.932  -2.780  -5.734  0.00  0.00    +0.042 A 
ATOM     20  C   UNL     1       2.577  -1.806  -4.967  0.00  0.00    +0.017 A 
ATOM     21  C   UNL     1       3.889  -1.479  -5.231  0.00  0.00    +0.050 A 
ATOM     22  C   UNL     1       4.573  -2.114  -6.259  0.00  0.00    +0.162 A 
ATOM     23  C   UNL     1       3.935  -3.086  -7.028  0.00  0.00    +0.162 A 
ATOM     24  C   UNL     1       2.622  -3.423  -6.765  0.00  0.00    +0.062 A 
BRANCH  23  25
ATOM     25  O   UNL     1       4.608  -3.706  -8.034  0.00  0.00    -0.491 OA
ATOM     26  C   UNL     1       3.893  -4.692  -8.782  0.00  0.00    +0.277 C 
ENDBRANCH  23  25
BRANCH  22  27
ATOM     27  O   UNL     1       5.866  -1.788  -6.516  0.00  0.00    -0.486 OA
BRANCH  27  28
ATOM     28  C   UNL     1       6.495  -0.873  -5.616  0.00  0.00    +0.167 C 
ATOM     29  C   UNL     1       8.010  -1.087  -5.647  0.00  0.00    +0.051 C 
ATOM     30  C   UNL     1       6.173   0.561  -6.039  0.00  0.00    +0.051 C 
ENDBRANCH  27  28
ENDBRANCH  22  27
ENDBRANCH   2  19
TORSDOF 7
