REMARK  Name = ZINC65329886
REMARK  11 active torsions:
REMARK  status: ('A' for Active; 'I' for Inactive)
REMARK    1  A    between atoms: C_1  and  C_2
REMARK    2  A    between atoms: C_2  and  O_3
REMARK    3  A    between atoms: O_3  and  C_4
REMARK    4  A    between atoms: C_7  and  C_10
REMARK    5  A    between atoms: C_10  and  N_12
REMARK    6  A    between atoms: N_14  and  C_15
REMARK    7  A    between atoms: C_17  and  C_22
REMARK    8  A    between atoms: C_19  and  C_21
REMARK    9  A    between atoms: N_23  and  C_24
REMARK   10  A    between atoms: C_24  and  C_25
REMARK   11  A    between atoms: C_25  and  C_26
REMARK                            x       y       z     vdW  Elec       q    Type
REMARK                         _______ _______ _______ _____ _____    ______ ____
ROOT
ATOM      1  N   UNL     1       2.522  -6.858  -2.359  0.00  0.00    -0.143 NA
ATOM      2  C   UNL     1       1.706  -7.709  -2.962  0.00  0.00    +0.194 C 
ATOM      3  N   UNL     1       0.799  -8.421  -2.230  0.00  0.00    -0.328 N 
ATOM      4  N   UNL     1       1.771  -7.875  -4.314  0.00  0.00    -0.357 N 
ATOM      5  H   UNL     1       0.573  -9.329  -2.487  0.00  0.00    +0.169 HD
ATOM      6  H   UNL     1       2.461  -7.424  -4.826  0.00  0.00    +0.162 HD
ENDROOT
BRANCH   3   7
ATOM      7  C   UNL     1       0.196  -7.841  -1.109  0.00  0.00    +0.042 A 
ATOM      8  C   UNL     1       0.187  -6.460  -0.960  0.00  0.00    +0.029 A 
ATOM      9  C   UNL     1      -0.410  -5.890   0.148  0.00  0.00    -0.048 A 
ATOM     10  C   UNL     1      -0.998  -6.693   1.108  0.00  0.00    +0.006 A 
ATOM     11  C   UNL     1      -0.991  -8.069   0.962  0.00  0.00    -0.048 A 
ATOM     12  C   UNL     1      -0.402  -8.644  -0.146  0.00  0.00    +0.029 A 
ATOM     13  C   UNL     1      -1.634  -8.940   2.011  0.00  0.00    +0.044 C 
ATOM     14  C   UNL     1      -0.419  -4.392   0.311  0.00  0.00    +0.044 C 
ENDBRANCH   3   7
BRANCH   1  15
ATOM     15  C   UNL     1       2.785  -6.994  -1.052  0.00  0.00    +0.270 C 
ATOM     16  O   UNL     1       2.380  -7.971  -0.447  0.00  0.00    -0.268 OA
BRANCH  15  20
ATOM     17  C   UNL     1       5.032  -4.016   0.983  0.00  0.00    +0.121 A 
ATOM     18  C   UNL     1       4.479  -5.074   1.694  0.00  0.00    +0.046 A 
ATOM     19  C   UNL     1       3.750  -6.041   1.038  0.00  0.00    +0.017 A 
ATOM     20  C   UNL     1       3.567  -5.957  -0.344  0.00  0.00    +0.039 A 
ATOM     21  C   UNL     1       4.123  -4.893  -1.055  0.00  0.00    +0.017 A 
ATOM     22  C   UNL     1       4.847  -3.926  -0.391  0.00  0.00    +0.046 A 
BRANCH  17  23
ATOM     23  O   UNL     1       5.750  -3.065   1.633  0.00  0.00    -0.492 OA
BRANCH  23  25
ATOM     24  C   UNL     1       6.734  -2.060   3.599  0.00  0.00    +0.048 C 
ATOM     25  C   UNL     1       5.901  -3.219   3.046  0.00  0.00    +0.225 C 
ENDBRANCH  23  25
ENDBRANCH  17  23
ENDBRANCH  15  20
ENDBRANCH   1  15
BRANCH   4  26
ATOM     26  C   UNL     1       0.799  -8.734  -4.995  0.00  0.00    +0.120 C 
BRANCH  26  27
ATOM     27  C   UNL     1       1.159  -8.837  -6.478  0.00  0.00    +0.054 C 
BRANCH  27  28
ATOM     28  C   UNL     1       0.095  -9.622  -7.201  0.00  0.00    -0.040 C 
ATOM     29  C   UNL     1      -0.971  -9.123  -7.869  0.00  0.00    -0.001 A 
ATOM     30  C   UNL     1      -1.439  -7.754  -8.114  0.00  0.00    +0.010 A 
ATOM     31  C   UNL     1      -2.567  -7.566  -8.836  0.00  0.00    +0.001 A 
ATOM     32  C   UNL     1      -3.299  -8.643  -9.355  0.00  0.00    +0.002 A 
ATOM     33  C   UNL     1      -2.931  -9.929  -9.172  0.00  0.00    +0.026 A 
ATOM     34  C   UNL     1      -1.760 -10.244  -8.428  0.00  0.00    +0.043 A 
ATOM     35  N   UNL     1      -1.205 -11.390  -8.118  0.00  0.00    -0.380 N 
ATOM     36  C   UNL     1       0.004 -11.126  -7.330  0.00  0.00    +0.144 C 
ATOM     37  H   UNL     1      -1.536 -12.266  -8.370  0.00  0.00    +0.160 HD
ENDBRANCH  27  28
ENDBRANCH  26  27
ENDBRANCH   4  26
TORSDOF 8
