REMARK  Name = ZINC17122293
REMARK  11 active torsions:
REMARK  status: ('A' for Active; 'I' for Inactive)
REMARK    1  A    between atoms: C_1  and  C_2
REMARK    2  A    between atoms: C_7  and  C_8
REMARK    3  A    between atoms: N_12  and  C_13
REMARK    4  A    between atoms: C_13  and  C_14
REMARK    5  A    between atoms: C_14  and  C_15
REMARK    6  A    between atoms: C_15  and  N_16
REMARK    7  A    between atoms: N_16  and  C_17
REMARK    8  A    between atoms: N_16  and  C_18
REMARK    9  A    between atoms: C_19  and  C_21
REMARK   10  A    between atoms: C_24  and  S_27
REMARK   11  A    between atoms: S_27  and  N_30
REMARK                            x       y       z     vdW  Elec       q    Type
REMARK                         _______ _______ _______ _____ _____    ______ ____
ROOT
ATOM      1  C   UNL     1       1.135   1.815   1.178  0.00  0.00    +0.044 C 
ATOM      2  C   UNL     1       0.875   0.346   0.964  0.00  0.00    -0.045 A 
ATOM      3  C   UNL     1       0.797  -0.147  -0.331  0.00  0.00    +0.005 A 
ATOM      4  C   UNL     1       0.559  -1.494  -0.529  0.00  0.00    +0.017 A 
ATOM      5  C   UNL     1       0.403  -2.322   0.555  0.00  0.00    +0.041 A 
ATOM      6  C   UNL     1       0.475  -1.855   1.887  0.00  0.00    +0.083 A 
ATOM      7  C   UNL     1       0.726  -0.473   2.052  0.00  0.00    -0.021 A 
ATOM      8  C   UNL     1       0.824   0.106   3.440  0.00  0.00    +0.046 C 
ATOM      9  N   UNL     1       0.300  -2.791   2.845  0.00  0.00    -0.224 NA
ATOM     10  C   UNL     1       0.077  -4.054   2.565  0.00  0.00    +0.168 A 
ATOM     11  S   UNL     1       0.091  -4.056   0.778  0.00  0.00    -0.052 S 
ATOM     12  N   UNL     1      -0.119  -5.114   3.433  0.00  0.00    -0.246 N 
ATOM     13  C   UNL     1      -0.092  -4.909   4.765  0.00  0.00    +0.252 C 
ATOM     14  O   UNL     1       0.030  -3.781   5.204  0.00  0.00    -0.270 OA
ENDROOT
BRANCH  13  15
ATOM     15  C   UNL     1      -0.212  -6.053   5.692  0.00  0.00    +0.037 A 
ATOM     16  C   UNL     1       0.431  -7.258   5.405  0.00  0.00    +0.015 A 
ATOM     17  C   UNL     1       0.315  -8.323   6.274  0.00  0.00    +0.029 A 
ATOM     18  C   UNL     1      -0.437  -8.198   7.429  0.00  0.00    +0.106 A 
ATOM     19  C   UNL     1      -1.077  -7.007   7.720  0.00  0.00    +0.029 A 
ATOM     20  C   UNL     1      -0.964  -5.932   6.862  0.00  0.00    +0.015 A 
BRANCH  18  21
ATOM     21  S   UNL     1      -0.581  -9.563   8.534  0.00  0.00    +0.061 S 
ATOM     22  O   UNL     1      -1.782  -9.368   9.267  0.00  0.00    -0.153 OA
ATOM     23  O   UNL     1      -0.338 -10.734   7.766  0.00  0.00    -0.153 OA
BRANCH  21  24
ATOM     24  N   UNL     1       0.662  -9.445   9.622  0.00  0.00    -0.177 NA
ATOM     25  C   UNL     1       1.919 -10.087   9.311  0.00  0.00    +0.109 C 
ATOM     26  C   UNL     1       1.905 -11.543   9.839  0.00  0.00    +0.017 C 
ATOM     27  C   UNL     1       1.980 -11.554  11.308  0.00  0.00    +0.001 C 
ATOM     28  C   UNL     1       0.797 -10.887  12.003  0.00  0.00    +0.001 C 
ATOM     29  C   UNL     1       1.042  -9.402  12.095  0.00  0.00    +0.017 C 
ATOM     30  C   UNL     1       0.442  -8.684  10.868  0.00  0.00    +0.109 C 
ENDBRANCH  21  24
ENDBRANCH  18  21
ENDBRANCH  13  15
BRANCH  12  31
ATOM     31  C   UNL     1      -0.355  -6.460   2.905  0.00  0.00    +0.114 C 
BRANCH  31  32
ATOM     32  C   UNL     1       0.956  -7.032   2.361  0.00  0.00    +0.001 C 
BRANCH  32  33
ATOM     33  C   UNL     1       0.744  -8.490   1.948  0.00  0.00    -0.078 C 
BRANCH  33  34
ATOM     34  N   UNL     1       2.002  -9.038   1.426  0.00  0.00    +0.376 N 
ATOM     35  C   UNL     1       1.832 -10.470   1.142  0.00  0.00    -0.097 C 
ATOM     36  C   UNL     1       2.368  -8.334   0.190  0.00  0.00    -0.097 C 
ATOM     37  H   UNL     1       2.733  -8.916   2.112  0.00  0.00    -0.083 HD
ENDBRANCH  33  34
ENDBRANCH  32  33
ENDBRANCH  31  32
ENDBRANCH  12  31
TORSDOF 7
