REMARK  Name = ZINC39674029
REMARK  7 active torsions:
REMARK  status: ('A' for Active; 'I' for Inactive)
REMARK    1  A    between atoms: C_1  and  C_2
REMARK    2  A    between atoms: C_4  and  C_12
REMARK    3  A    between atoms: C_12  and  C_13
REMARK    4  A    between atoms: C_13  and  N_14
REMARK    5  A    between atoms: C_15  and  C_17
REMARK    6  A    between atoms: C_28  and  C_30
REMARK    7  A    between atoms: C_36  and  C_38
REMARK                            x       y       z     vdW  Elec       q    Type
REMARK                         _______ _______ _______ _____ _____    ______ ____
ROOT
ATOM      1  C   UNL     1      -5.436   3.649   3.768  0.00  0.00    +0.100 C 
ATOM      2  C   UNL     1      -5.005   2.474   4.673  0.00  0.00    +0.121 C 
ATOM      3  N   UNL     1      -4.238   3.108   5.771  0.00  0.00    -0.300 N 
ATOM      4  C   UNL     1      -4.983   4.355   6.068  0.00  0.00    +0.115 C 
ATOM      5  C   UNL     1      -5.424   4.881   4.688  0.00  0.00    -0.004 C 
ATOM      6  C   UNL     1      -6.820   5.489   4.776  0.00  0.00    -0.010 C 
ATOM      7  C   UNL     1      -6.771   6.746   5.649  0.00  0.00    -0.082 C 
ATOM      8  N   UNL     1      -5.831   7.712   5.067  0.00  0.00    +0.379 N 
ATOM      9  C   UNL     1      -4.473   7.154   5.072  0.00  0.00    -0.082 C 
ATOM     10  C   UNL     1      -4.426   5.915   4.175  0.00  0.00    -0.010 C 
ATOM     11  C   UNL     1      -3.117   2.654   6.365  0.00  0.00    +0.219 C 
ATOM     12  O   UNL     1      -2.602   3.293   7.258  0.00  0.00    -0.275 OA
ATOM     13  H   UNL     1      -6.106   7.917   4.118  0.00  0.00    -0.086 HD
ATOM     14  H   UNL     1      -5.846   8.563   5.610  0.00  0.00    -0.086 HD
ENDROOT
BRANCH  11  15
ATOM     15  C   UNL     1      -2.502   1.352   5.920  0.00  0.00    +0.078 C 
ATOM     16  C   UNL     1      -3.512   0.218   6.116  0.00  0.00    +0.032 C 
ATOM     17  C   UNL     1      -2.896  -1.098   5.630  0.00  0.00    +0.108 C 
ATOM     18  N   UNL     1      -1.616  -1.304   6.320  0.00  0.00    -0.302 N 
ATOM     19  C   UNL     1      -0.607  -0.237   6.271  0.00  0.00    +0.108 C 
ATOM     20  C   UNL     1      -1.248   1.070   6.750  0.00  0.00    +0.032 C 
ATOM     21  C   UNL     1      -1.371  -2.450   6.985  0.00  0.00    +0.212 C 
ATOM     22  O   UNL     1      -0.354  -2.568   7.636  0.00  0.00    -0.276 OA
ATOM     23  C   UNL     1      -2.360  -3.585   6.920  0.00  0.00    +0.109 C 
ENDBRANCH  11  15
BRANCH   1  25
ATOM     24  N   UNL     1      -4.875   4.310   1.451  0.00  0.00    -0.315 N 
ATOM     25  C   UNL     1      -4.455   3.828   2.638  0.00  0.00    +0.218 C 
ATOM     26  O   UNL     1      -3.288   3.539   2.797  0.00  0.00    -0.275 OA
ATOM     27  H   UNL     1      -5.809   4.541   1.324  0.00  0.00    +0.149 HD
BRANCH  24  28
ATOM     28  C   UNL     1      -3.921   4.484   0.353  0.00  0.00    +0.109 C 
BRANCH  28  29
ATOM     29  C   UNL     1      -4.650   5.041  -0.872  0.00  0.00    +0.056 C 
BRANCH  29  33
ATOM     30  C   UNL     1      -3.933   2.921  -3.023  0.00  0.00    +0.063 C 
ATOM     31  C   UNL     1      -3.353   4.310  -2.937  0.00  0.00    +0.017 A 
ATOM     32  H   UNL     1      -2.038   4.355  -4.551  0.00  0.00    +0.166 HD
ATOM     33  C   UNL     1      -3.670   5.220  -2.002  0.00  0.00    -0.018 A 
ATOM     34  C   UNL     1      -2.881   6.420  -2.289  0.00  0.00    +0.003 A 
ATOM     35  C   UNL     1      -2.770   7.675  -1.688  0.00  0.00    +0.010 A 
ATOM     36  C   UNL     1      -1.918   8.606  -2.213  0.00  0.00    +0.001 A 
ATOM     37  C   UNL     1      -1.162   8.314  -3.339  0.00  0.00    +0.002 A 
ATOM     38  C   UNL     1      -1.255   7.082  -3.948  0.00  0.00    +0.026 A 
ATOM     39  C   UNL     1      -2.116   6.119  -3.431  0.00  0.00    +0.047 A 
ATOM     40  N   UNL     1      -2.422   4.827  -3.796  0.00  0.00    -0.358 N 
ENDBRANCH  29  33
ENDBRANCH  28  29
ENDBRANCH  24  28
ENDBRANCH   1  25
TORSDOF 5
