REMARK  Name = ZINC12309933
REMARK  12 active torsions:
REMARK  status: ('A' for Active; 'I' for Inactive)
REMARK    1  A    between atoms: C_1  and  C_2
REMARK    2  A    between atoms: C_2  and  C_3
REMARK    3  A    between atoms: C_2  and  C_4
REMARK    4  A    between atoms: C_10  and  N_11
REMARK    5  A    between atoms: N_11  and  O_12
REMARK    6  A    between atoms: O_12  and  C_13
REMARK    7  A    between atoms: C_13  and  C_14
REMARK    8  A    between atoms: N_16  and  C_17
REMARK    9  A    between atoms: C_20  and  N_23
REMARK   10  A    between atoms: C_24  and  C_26
REMARK   11  A    between atoms: N_29  and  C_34
REMARK   12  A    between atoms: N_32  and  C_33
REMARK                            x       y       z     vdW  Elec       q    Type
REMARK                         _______ _______ _______ _____ _____    ______ ____
ROOT
ATOM      1  N   UNL     1      -2.290   6.964   0.387  0.00  0.00    -0.264 N 
ATOM      2  H   UNL     1      -2.532   7.921  -0.100  0.00  0.00    +0.194 HD
ENDROOT
BRANCH   1   9
ATOM      3  C   UNL     1      -0.017   7.043  -0.492  0.00  0.00    -0.003 A 
ATOM      4  C   UNL     1       1.161   6.402  -0.550  0.00  0.00    +0.090 A 
ATOM      5  N   UNL     1       1.309   5.120  -0.091  0.00  0.00    -0.347 N 
ATOM      6  H   UNL     1       2.316   4.705   0.066  0.00  0.00    +0.167 HD
ATOM      7  C   UNL     1       0.242   4.324   0.185  0.00  0.00    +0.129 A 
ATOM      8  C   UNL     1      -1.030   4.881   0.288  0.00  0.00    +0.106 A 
ATOM      9  C   UNL     1      -1.179   6.334   0.079  0.00  0.00    +0.082 A 
ATOM     10  C   UNL     1      -2.133   4.048   0.585  0.00  0.00    +0.268 A 
ATOM     11  O   UNL     1      -3.254   4.513   0.682  0.00  0.00    -0.267 OA
ATOM     12  N   UNL     1      -1.920   2.724   0.753  0.00  0.00    -0.263 N 
ATOM     13  C   UNL     1      -0.683   2.208   0.651  0.00  0.00    +0.333 A 
ATOM     14  O   UNL     1      -0.528   1.013   0.812  0.00  0.00    -0.246 OA
ATOM     15  N   UNL     1       0.388   2.974   0.372  0.00  0.00    -0.282 N 
ATOM     16  C   UNL     1       1.715   2.361   0.268  0.00  0.00    +0.155 C 
ATOM     17  C   UNL     1      -3.050   1.842   1.055  0.00  0.00    +0.157 C 
BRANCH   3  19
ATOM     18  C   UNL     1       0.033   9.434   0.163  0.00  0.00    +0.012 C 
ATOM     19  C   UNL     1      -0.150   8.456  -0.999  0.00  0.00    +0.016 C 
ATOM     20  C   UNL     1       0.919   8.720  -2.061  0.00  0.00    +0.012 C 
ENDBRANCH   3  19
ENDBRANCH   1   9
BRANCH   1  21
ATOM     21  O   UNL     1      -3.176   6.412   1.343  0.00  0.00    -0.265 OA
BRANCH  21  22
ATOM     22  C   UNL     1      -4.343   7.203   1.579  0.00  0.00    +0.288 C 
BRANCH  22  23
ATOM     23  C   UNL     1      -5.210   6.525   2.609  0.00  0.00    +0.246 C 
ATOM     24  O   UNL     1      -4.862   5.468   3.093  0.00  0.00    -0.273 OA
ATOM     25  N   UNL     1      -6.370   7.092   2.992  0.00  0.00    -0.284 N 
ATOM     26  H   UNL     1      -6.722   8.011   2.499  0.00  0.00    +0.155 HD
BRANCH  25  27
ATOM     27  C   UNL     1      -7.129   6.513   4.017  0.00  0.00    +0.034 A 
ATOM     28  C   UNL     1      -7.179   5.131   4.147  0.00  0.00    +0.025 A 
ATOM     29  C   UNL     1      -7.923   4.560   5.160  0.00  0.00    +0.025 A 
ATOM     30  C   UNL     1      -8.629   5.366   6.042  0.00  0.00    +0.033 A 
ATOM     31  C   UNL     1      -8.583   6.748   5.909  0.00  0.00    +0.025 A 
ATOM     32  C   UNL     1      -7.835   7.319   4.899  0.00  0.00    +0.025 A 
BRANCH  30  33
ATOM     33  N   UNL     1      -9.388   4.786   7.067  0.00  0.00    -0.286 N 
ATOM     34  C   UNL     1      -8.963   3.654   7.661  0.00  0.00    +0.214 C 
ATOM     35  O   UNL     1      -7.882   3.186   7.374  0.00  0.00    -0.276 OA
ATOM     36  C   UNL     1      -9.833   2.967   8.683  0.00  0.00    +0.109 C 
ATOM     37  H   UNL     1     -10.330   5.256   7.388  0.00  0.00    +0.155 HD
ENDBRANCH  30  33
ENDBRANCH  25  27
ENDBRANCH  22  23
ENDBRANCH  21  22
ENDBRANCH   1  21
TORSDOF 7
