REMARK  Name = ZINC35265742
REMARK  12 active torsions:
REMARK  status: ('A' for Active; 'I' for Inactive)
REMARK    1  A    between atoms: C_1  and  C_2
REMARK    2  A    between atoms: C_2  and  C_3
REMARK    3  A    between atoms: C_3  and  N_4
REMARK    4  A    between atoms: C_5  and  C_36
REMARK    5  A    between atoms: C_6  and  C_30
REMARK    6  A    between atoms: C_7  and  C_12
REMARK    7  A    between atoms: C_15  and  N_18
REMARK    8  A    between atoms: N_21  and  C_22
REMARK    9  A    between atoms: C_30  and  O_32
REMARK   10  A    between atoms: O_32  and  C_33
REMARK   11  A    between atoms: C_33  and  C_34
REMARK   12  A    between atoms: C_33  and  C_35
REMARK                            x       y       z     vdW  Elec       q    Type
REMARK                         _______ _______ _______ _____ _____    ______ ____
ROOT
ATOM      1  C   UNL     1       0.313  -5.462  -0.268  0.00  0.00    -0.022 A 
ATOM      2  C   UNL     1      -0.473  -4.936   0.741  0.00  0.00    +0.007 A 
ATOM      3  C   UNL     1      -0.847  -5.727   1.810  0.00  0.00    +0.024 A 
ATOM      4  C   UNL     1      -0.434  -7.051   1.870  0.00  0.00    +0.035 A 
ATOM      5  C   UNL     1       0.354  -7.577   0.855  0.00  0.00    +0.024 A 
ATOM      6  C   UNL     1       0.721  -6.782  -0.214  0.00  0.00    +0.007 A 
ENDROOT
BRANCH   1  10
ATOM      7  N   UNL     1       0.604  -1.835  -1.529  0.00  0.00    -0.259 N 
ATOM      8  C   UNL     1       1.758  -2.403  -1.071  0.00  0.00    +0.024 C 
ATOM      9  C   UNL     1       1.893  -3.744  -0.994  0.00  0.00    +0.078 C 
ATOM     10  C   UNL     1       0.720  -4.597  -1.433  0.00  0.00    +0.143 C 
ATOM     11  N   UNL     1      -0.479  -3.887  -1.911  0.00  0.00    -0.288 N 
ATOM     12  C   UNL     1      -0.464  -2.540  -1.925  0.00  0.00    +0.307 C 
ATOM     13  O   UNL     1      -1.450  -1.944  -2.314  0.00  0.00    -0.252 OA
ATOM     14  C   UNL     1       2.901  -1.518  -0.645  0.00  0.00    +0.061 C 
ATOM     15  H   UNL     1      -1.262  -4.378  -2.205  0.00  0.00    +0.151 HD
BRANCH   9  16
ATOM     16  C   UNL     1       3.088  -4.334  -0.520  0.00  0.00    +0.339 C 
ATOM     17  O   UNL     1       4.018  -3.629  -0.173  0.00  0.00    -0.245 OA
BRANCH  16  18
ATOM     18  O   UNL     1       3.198  -5.677  -0.453  0.00  0.00    -0.459 OA
BRANCH  18  19
ATOM     19  C   UNL     1       4.433  -6.204   0.035  0.00  0.00    +0.171 C 
ATOM     20  C   UNL     1       4.177  -7.540   0.735  0.00  0.00    +0.052 C 
ATOM     21  C   UNL     1       5.395  -6.417  -1.135  0.00  0.00    +0.052 C 
ENDBRANCH  18  19
ENDBRANCH  16  18
ENDBRANCH   9  16
BRANCH   7  22
ATOM     22  C   UNL     1       0.528  -0.373  -1.586  0.00  0.00    +0.114 C 
BRANCH  22  24
ATOM     23  C   UNL     1       1.075   1.647  -2.951  0.00  0.00    +0.005 C 
ATOM     24  C   UNL     1       1.155   0.120  -2.891  0.00  0.00    +0.016 C 
ENDBRANCH  22  24
ENDBRANCH   7  22
ENDBRANCH   1  10
BRANCH   4  25
ATOM     25  N   UNL     1      -0.812  -7.855   2.952  0.00  0.00    -0.269 N 
ATOM     26  C   UNL     1      -2.024  -7.695   3.520  0.00  0.00    +0.308 C 
ATOM     27  O   UNL     1      -2.758  -6.802   3.144  0.00  0.00    -0.252 OA
ATOM     28  N   UNL     1      -2.421  -8.525   4.504  0.00  0.00    -0.268 N 
ATOM     29  H   UNL     1      -0.201  -8.527   3.293  0.00  0.00    +0.156 HD
ATOM     30  H   UNL     1      -1.806  -9.184   4.861  0.00  0.00    +0.156 HD
BRANCH  28  31
ATOM     31  C   UNL     1      -3.723  -8.436   5.011  0.00  0.00    +0.055 A 
ATOM     32  C   UNL     1      -4.774  -8.090   4.173  0.00  0.00    +0.025 A 
ATOM     33  C   UNL     1      -6.058  -8.004   4.675  0.00  0.00    +0.003 A 
ATOM     34  C   UNL     1      -6.298  -8.261   6.013  0.00  0.00    +0.021 A 
ATOM     35  C   UNL     1      -5.254  -8.606   6.852  0.00  0.00    +0.061 A 
ATOM     36  C   UNL     1      -3.967  -8.700   6.353  0.00  0.00    +0.080 A 
ATOM     37 CL   UNL     1      -2.657  -9.140   7.405  0.00  0.00    -0.080 Cl
ATOM     38 CL   UNL     1      -5.559  -8.927   8.530  0.00  0.00    -0.082 Cl
ENDBRANCH  28  31
ENDBRANCH   4  25
TORSDOF 8
