REMARK  Name = ZINC46132926
REMARK  9 active torsions:
REMARK  status: ('A' for Active; 'I' for Inactive)
REMARK    1  A    between atoms: C_1  and  C_2
REMARK    2  A    between atoms: C_5  and  C_12
REMARK    3  A    between atoms: C_7  and  N_8
REMARK    4  A    between atoms: C_9  and  C_11
REMARK    5  A    between atoms: C_12  and  N_14
REMARK    6  A    between atoms: N_16  and  C_17
REMARK    7  A    between atoms: C_22  and  C_23
REMARK    8  A    between atoms: N_25  and  C_26
REMARK    9  A    between atoms: C_26  and  C_27
REMARK                            x       y       z     vdW  Elec       q    Type
REMARK                         _______ _______ _______ _____ _____    ______ ____
ROOT
ATOM      1  N   UNL     1      -1.587  -5.374  -1.806  0.00  0.00    -0.143 NA
ATOM      2  C   UNL     1      -1.076  -6.552  -1.482  0.00  0.00    +0.194 C 
ATOM      3  N   UNL     1      -0.317  -7.238  -2.386  0.00  0.00    -0.328 N 
ATOM      4  N   UNL     1      -1.308  -7.080  -0.246  0.00  0.00    -0.355 N 
ATOM      5  H   UNL     1       0.041  -8.110  -2.156  0.00  0.00    +0.169 HD
ATOM      6  H   UNL     1      -1.765  -6.554   0.428  0.00  0.00    +0.162 HD
ENDROOT
BRANCH   3   7
ATOM      7  C   UNL     1      -0.055  -6.684  -3.644  0.00  0.00    +0.045 A 
ATOM      8  C   UNL     1       0.011  -5.305  -3.796  0.00  0.00    +0.027 A 
ATOM      9  C   UNL     1       0.270  -4.760  -5.038  0.00  0.00    +0.022 A 
ATOM     10  C   UNL     1       0.462  -5.588  -6.131  0.00  0.00    +0.041 A 
ATOM     11  C   UNL     1       0.395  -6.962  -5.983  0.00  0.00    +0.025 A 
ATOM     12  C   UNL     1       0.143  -7.511  -4.741  0.00  0.00    -0.026 A 
ATOM     13  C   UNL     1       0.077  -9.008  -4.578  0.00  0.00    +0.046 C 
ATOM     14 CL   UNL     1       0.786  -4.900  -7.692  0.00  0.00    -0.084 Cl
ENDBRANCH   3   7
BRANCH   1  15
ATOM     15  C   UNL     1      -2.461  -4.775  -0.986  0.00  0.00    +0.270 C 
ATOM     16  O   UNL     1      -2.712  -5.266   0.101  0.00  0.00    -0.268 OA
BRANCH  15  21
ATOM     17  C   UNL     1      -5.028   0.120  -2.610  0.00  0.00    +0.045 C 
ATOM     18  C   UNL     1      -4.357  -1.160  -2.184  0.00  0.00    -0.029 A 
ATOM     19  C   UNL     1      -3.455  -1.780  -3.028  0.00  0.00    +0.006 A 
ATOM     20  C   UNL     1      -2.837  -2.953  -2.644  0.00  0.00    +0.013 A 
ATOM     21  C   UNL     1      -3.123  -3.517  -1.400  0.00  0.00    +0.041 A 
ATOM     22  C   UNL     1      -4.032  -2.892  -0.548  0.00  0.00    +0.036 A 
ATOM     23  C   UNL     1      -4.644  -1.711  -0.941  0.00  0.00    +0.037 A 
BRANCH  23  24
ATOM     24  N   UNL     1      -5.554  -1.077  -0.087  0.00  0.00    -0.285 N 
ATOM     25  C   UNL     1      -6.321  -1.810   0.744  0.00  0.00    +0.214 C 
ATOM     26  O   UNL     1      -6.137  -3.005   0.845  0.00  0.00    -0.276 OA
ATOM     27  C   UNL     1      -7.407  -1.145   1.550  0.00  0.00    +0.109 C 
ATOM     28  H   UNL     1      -5.633  -0.111  -0.094  0.00  0.00    +0.155 HD
ENDBRANCH  23  24
ENDBRANCH  15  21
ENDBRANCH   1  15
BRANCH   4  29
ATOM     29  C   UNL     1      -0.866  -8.443   0.063  0.00  0.00    +0.147 C 
BRANCH  29  30
ATOM     30  C   UNL     1      -1.346  -8.828   1.464  0.00  0.00    +0.137 C 
ATOM     31  C   UNL     1      -0.851 -10.248   1.814  0.00  0.00    +0.035 C 
ATOM     32  C   UNL     1      -2.073 -10.848   2.563  0.00  0.00    +0.031 C 
ATOM     33  C   UNL     1      -3.243 -10.172   1.804  0.00  0.00    +0.160 C 
ATOM     34  O   UNL     1      -2.778  -8.846   1.500  0.00  0.00    -0.375 OA
ENDBRANCH  29  30
ENDBRANCH   4  29
TORSDOF 6
