REMARK  Name = ZINC13404845
REMARK  11 active torsions:
REMARK  status: ('A' for Active; 'I' for Inactive)
REMARK    1  A    between atoms: C_1  and  C_2
REMARK    2  A    between atoms: C_2  and  C_33
REMARK    3  A    between atoms: C_7  and  C_32
REMARK    4  A    between atoms: C_8  and  N_22
REMARK    5  A    between atoms: C_10  and  N_12
REMARK    6  A    between atoms: N_12  and  C_13
REMARK    7  A    between atoms: C_13  and  N_15
REMARK    8  A    between atoms: N_15  and  C_16
REMARK    9  A    between atoms: N_22  and  C_23
REMARK   10  A    between atoms: C_23  and  N_25
REMARK   11  A    between atoms: N_25  and  C_26
REMARK                            x       y       z     vdW  Elec       q    Type
REMARK                         _______ _______ _______ _____ _____    ______ ____
ROOT
ATOM      1  C   UNL     1      -6.034   1.553   0.618  0.00  0.00    +0.012 C 
ATOM      2  C   UNL     1      -5.840   0.278  -0.205  0.00  0.00    -0.023 C 
ATOM      3  C   UNL     1      -6.045   0.531  -1.740  0.00  0.00    +0.017 C 
ATOM      4  C   UNL     1      -5.544  -0.824  -2.326  0.00  0.00    +0.006 C 
ATOM      5  C   UNL     1      -4.407  -1.264  -1.375  0.00  0.00    +0.009 C 
ATOM      6  C   UNL     1      -4.326  -0.132  -0.303  0.00  0.00    -0.007 C 
ATOM      7  C   UNL     1      -3.747   1.093  -1.075  0.00  0.00    +0.099 C 
ATOM      8  C   UNL     1      -4.884   1.532  -2.025  0.00  0.00    +0.096 C 
ATOM      9  C   UNL     1      -3.619  -0.493   1.005  0.00  0.00    +0.013 C 
ATOM     10  C   UNL     1      -6.713  -0.868   0.309  0.00  0.00    +0.012 C 
ENDROOT
BRANCH   8  11
ATOM     11  N   UNL     1      -5.302   2.903  -1.722  0.00  0.00    -0.321 N 
ATOM     12  H   UNL     1      -6.077   3.060  -1.159  0.00  0.00    +0.148 HD
BRANCH  11  13
ATOM     13  C   UNL     1      -4.611   3.945  -2.223  0.00  0.00    +0.135 C 
ATOM     14  S   UNL     1      -3.324   3.671  -3.318  0.00  0.00    -0.019 S 
BRANCH  13  15
ATOM     15  N   UNL     1      -4.932   5.204  -1.862  0.00  0.00    -0.297 N 
ATOM     16  H   UNL     1      -5.609   5.356  -1.185  0.00  0.00    +0.154 HD
BRANCH  15  17
ATOM     17  C   UNL     1      -4.290   6.290  -2.466  0.00  0.00    +0.033 A 
ATOM     18  C   UNL     1      -3.872   7.367  -1.695  0.00  0.00    +0.023 A 
ATOM     19  C   UNL     1      -3.234   8.436  -2.293  0.00  0.00    +0.002 A 
ATOM     20  C   UNL     1      -3.020   8.439  -3.659  0.00  0.00    +0.000 A 
ATOM     21  C   UNL     1      -3.439   7.371  -4.430  0.00  0.00    +0.002 A 
ATOM     22  C   UNL     1      -4.073   6.296  -3.837  0.00  0.00    +0.023 A 
ENDBRANCH  15  17
ENDBRANCH  13  15
ENDBRANCH  11  13
ENDBRANCH   8  11
BRANCH   7  23
ATOM     23  N   UNL     1      -2.563   0.699  -1.843  0.00  0.00    -0.321 N 
ATOM     24  H   UNL     1      -2.666   0.297  -2.720  0.00  0.00    +0.148 HD
BRANCH  23  25
ATOM     25  C   UNL     1      -1.332   0.894  -1.331  0.00  0.00    +0.135 C 
ATOM     26  S   UNL     1      -1.153   1.490   0.264  0.00  0.00    -0.019 S 
BRANCH  25  27
ATOM     27  N   UNL     1      -0.242   0.620  -2.074  0.00  0.00    -0.297 N 
ATOM     28  H   UNL     1      -0.340   0.373  -3.007  0.00  0.00    +0.154 HD
BRANCH  27  29
ATOM     29  C   UNL     1       1.033   0.698  -1.502  0.00  0.00    +0.033 A 
ATOM     30  C   UNL     1       2.102   1.176  -2.248  0.00  0.00    +0.023 A 
ATOM     31  C   UNL     1       3.358   1.256  -1.679  0.00  0.00    +0.002 A 
ATOM     32  C   UNL     1       3.553   0.851  -0.371  0.00  0.00    +0.000 A 
ATOM     33  C   UNL     1       2.491   0.369   0.372  0.00  0.00    +0.002 A 
ATOM     34  C   UNL     1       1.232   0.292  -0.189  0.00  0.00    +0.023 A 
ENDBRANCH  27  29
ENDBRANCH  25  27
ENDBRANCH  23  25
ENDBRANCH   7  23
TORSDOF 8
