REMARK  Name = ZINC02878723
REMARK  10 active torsions:
REMARK  status: ('A' for Active; 'I' for Inactive)
REMARK    1  A    between atoms: C_1  and  C_2
REMARK    2  A    between atoms: C_2  and  O_3
REMARK    3  A    between atoms: O_3  and  C_4
REMARK    4  A    between atoms: C_4  and  C_6
REMARK    5  A    between atoms: C_9  and  N_12
REMARK    6  A    between atoms: C_16  and  N_50
REMARK    7  A    between atoms: C_20  and  C_21
REMARK    8  A    between atoms: C_20  and  N_50
REMARK    9  A    between atoms: C_24  and  S_27
REMARK   10  A    between atoms: S_27  and  N_30
REMARK                            x       y       z     vdW  Elec       q    Type
REMARK                         _______ _______ _______ _____ _____    ______ ____
ROOT
ATOM      1  N   UNL     1      -2.602   2.872   7.194  0.00  0.00    -0.212 N 
ATOM      2  C   UNL     1      -2.187   2.462   8.398  0.00  0.00    +0.225 C 
ATOM      3  O   UNL     1      -1.264   1.703   8.602  0.00  0.00    -0.275 OA
ATOM      4  C   UNL     1      -3.050   3.100   9.466  0.00  0.00    +0.090 C 
ATOM      5  C   UNL     1      -4.053   3.950   8.660  0.00  0.00    +0.026 C 
ATOM      6  C   UNL     1      -3.647   3.708   7.222  0.00  0.00    +0.213 C 
ATOM      7  O   UNL     1      -4.184   4.195   6.250  0.00  0.00    -0.277 OA
ENDROOT
BRANCH   1  11
ATOM      8  C   UNL     1      -0.801   1.633   3.644  0.00  0.00    +0.059 A 
ATOM      9  C   UNL     1      -0.101   2.448   4.537  0.00  0.00    +0.017 A 
ATOM     10  C   UNL     1      -0.701   2.860   5.706  0.00  0.00    +0.025 A 
ATOM     11  C   UNL     1      -1.998   2.456   6.003  0.00  0.00    +0.044 A 
ATOM     12  C   UNL     1      -2.696   1.640   5.120  0.00  0.00    +0.025 A 
ATOM     13  C   UNL     1      -2.105   1.229   3.946  0.00  0.00    +0.017 A 
BRANCH   8  14
ATOM     14  C   UNL     1      -0.164   1.194   2.388  0.00  0.00    +0.339 C 
ATOM     15  O   UNL     1      -0.772   0.481   1.615  0.00  0.00    -0.245 OA
BRANCH  14  16
ATOM     16  O   UNL     1       1.093   1.585   2.098  0.00  0.00    -0.461 OA
BRANCH  16  18
ATOM     17  C   UNL     1       3.079   1.657   0.691  0.00  0.00    +0.048 C 
ATOM     18  C   UNL     1       1.656   1.115   0.845  0.00  0.00    +0.229 C 
ENDBRANCH  16  18
ENDBRANCH  14  16
ENDBRANCH   8  14
ENDBRANCH   1  11
BRANCH   5  19
ATOM     19  N   UNL     1      -5.430   3.479   8.898  0.00  0.00    +0.390 N 
ATOM     20  H   UNL     1      -5.536   3.230   9.888  0.00  0.00    -0.084 HD
ATOM     21  H   UNL     1      -5.611   2.653   8.316  0.00  0.00    -0.084 HD
BRANCH  19  22
ATOM     22  C   UNL     1      -6.399   4.537   8.555  0.00  0.00    -0.046 C 
BRANCH  22  23
ATOM     23  C   UNL     1      -7.795   4.028   8.808  0.00  0.00    -0.064 A 
ATOM     24  C   UNL     1      -8.491   3.388   7.800  0.00  0.00    +0.003 A 
ATOM     25  C   UNL     1      -9.769   2.918   8.033  0.00  0.00    +0.029 A 
ATOM     26  C   UNL     1     -10.356   3.096   9.271  0.00  0.00    +0.105 A 
ATOM     27  C   UNL     1      -9.663   3.741  10.279  0.00  0.00    +0.029 A 
ATOM     28  C   UNL     1      -8.382   4.207  10.047  0.00  0.00    +0.003 A 
BRANCH  26  29
ATOM     29  S   UNL     1     -11.988   2.501   9.567  0.00  0.00    +0.056 S 
ATOM     30  O   UNL     1     -12.214   1.454   8.634  0.00  0.00    -0.153 OA
ATOM     31  O   UNL     1     -12.103   2.309  10.970  0.00  0.00    -0.153 OA
BRANCH  29  32
ATOM     32  N   UNL     1     -13.034   3.722   9.170  0.00  0.00    -0.204 NA
ATOM     33  H   UNL     1     -12.690   4.569   8.843  0.00  0.00    +0.144 HD
ATOM     34  H   UNL     1     -13.991   3.591   9.263  0.00  0.00    +0.144 HD
ENDBRANCH  29  32
ENDBRANCH  26  29
ENDBRANCH  22  23
ENDBRANCH  19  22
ENDBRANCH   5  19
TORSDOF 9
