REMARK  Name = ZINC39634954
REMARK  8 active torsions:
REMARK  status: ('A' for Active; 'I' for Inactive)
REMARK    1  A    between atoms: C_1  and  O_2
REMARK    2  A    between atoms: O_2  and  C_3
REMARK    3  A    between atoms: C_6  and  C_9
REMARK    4  A    between atoms: C_9  and  C_10
REMARK    5  A    between atoms: C_10  and  N_11
REMARK    6  A    between atoms: C_12  and  C_14
REMARK    7  A    between atoms: C_25  and  C_27
REMARK    8  A    between atoms: C_32  and  C_33
REMARK                            x       y       z     vdW  Elec       q    Type
REMARK                         _______ _______ _______ _____ _____    ______ ____
ROOT
ATOM      1  C   UNL     1       6.727  -3.953  -5.741  0.00  0.00    +0.100 C 
ATOM      2  C   UNL     1       6.452  -3.312  -7.120  0.00  0.00    +0.121 C 
ATOM      3  N   UNL     1       7.700  -2.584  -7.449  0.00  0.00    -0.296 N 
ATOM      4  C   UNL     1       8.784  -3.481  -6.981  0.00  0.00    +0.115 C 
ATOM      5  C   UNL     1       8.258  -4.066  -5.656  0.00  0.00    -0.004 C 
ATOM      6  C   UNL     1       8.674  -5.528  -5.522  0.00  0.00    -0.010 C 
ATOM      7  C   UNL     1      10.196  -5.610  -5.380  0.00  0.00    -0.082 C 
ATOM      8  N   UNL     1      10.621  -4.849  -4.199  0.00  0.00    +0.379 N 
ATOM      9  C   UNL     1      10.301  -3.428  -4.377  0.00  0.00    -0.082 C 
ATOM     10  C   UNL     1       8.783  -3.253  -4.476  0.00  0.00    -0.010 C 
ATOM     11  C   UNL     1       7.822  -1.379  -8.041  0.00  0.00    +0.247 C 
ATOM     12  O   UNL     1       8.923  -0.957  -8.338  0.00  0.00    -0.270 OA
ATOM     13  H   UNL     1      10.142  -5.201  -3.383  0.00  0.00    -0.086 HD
ATOM     14  H   UNL     1      11.617  -4.955  -4.072  0.00  0.00    -0.086 HD
ENDROOT
BRANCH  11  15
ATOM     15  C   UNL     1       6.618  -0.572  -8.329  0.00  0.00    +0.049 A 
ATOM     16  C   UNL     1       5.436  -1.195  -8.734  0.00  0.00    +0.013 A 
ATOM     17  C   UNL     1       4.316  -0.436  -9.001  0.00  0.00    +0.001 A 
ATOM     18  C   UNL     1       4.362   0.941  -8.869  0.00  0.00    +0.001 A 
ATOM     19  C   UNL     1       5.530   1.565  -8.468  0.00  0.00    +0.013 A 
ATOM     20  C   UNL     1       6.656   0.817  -8.193  0.00  0.00    +0.067 A 
BRANCH  20  21
ATOM     21  C   UNL     1       7.925   1.498  -7.750  0.00  0.00    +0.418 C 
ATOM     22  F   UNL     1       7.716   2.879  -7.688  0.00  0.00    -0.166 F 
ATOM     23  F   UNL     1       8.293   1.024  -6.486  0.00  0.00    -0.166 F 
ATOM     24  F   UNL     1       8.946   1.221  -8.667  0.00  0.00    -0.166 F 
ENDBRANCH  20  21
ENDBRANCH  11  15
BRANCH   1  26
ATOM     25  N   UNL     1       5.832  -3.611  -3.460  0.00  0.00    -0.315 N 
ATOM     26  C   UNL     1       6.203  -3.070  -4.638  0.00  0.00    +0.218 C 
ATOM     27  O   UNL     1       6.117  -1.872  -4.809  0.00  0.00    -0.275 OA
ATOM     28  H   UNL     1       5.901  -4.569  -3.323  0.00  0.00    +0.149 HD
BRANCH  25  29
ATOM     29  C   UNL     1       5.323  -2.752  -2.388  0.00  0.00    +0.109 C 
BRANCH  29  30
ATOM     30  C   UNL     1       4.976  -3.610  -1.169  0.00  0.00    +0.054 C 
BRANCH  30  34
ATOM     31  C   UNL     1       3.492  -1.106   1.959  0.00  0.00    +0.120 A 
ATOM     32  C   UNL     1       2.616  -1.653   1.033  0.00  0.00    +0.046 A 
ATOM     33  C   UNL     1       3.098  -2.462   0.023  0.00  0.00    +0.007 A 
ATOM     34  C   UNL     1       4.452  -2.727  -0.066  0.00  0.00    -0.046 A 
ATOM     35  C   UNL     1       5.327  -2.182   0.856  0.00  0.00    +0.007 A 
ATOM     36  C   UNL     1       4.851  -1.368   1.865  0.00  0.00    +0.046 A 
BRANCH  31  38
ATOM     37  C   UNL     1       1.609  -0.083   2.990  0.00  0.00    +0.277 C 
ATOM     38  O   UNL     1       3.020  -0.309   2.954  0.00  0.00    -0.495 OA
ENDBRANCH  31  38
ENDBRANCH  30  34
ENDBRANCH  29  30
ENDBRANCH  25  29
ENDBRANCH   1  26
TORSDOF 7
