REMARK  Name = ZINC19781567
REMARK  12 active torsions:
REMARK  status: ('A' for Active; 'I' for Inactive)
REMARK    1  A    between atoms: C_1  and  N_2
REMARK    2  A    between atoms: N_2  and  C_3
REMARK    3  A    between atoms: N_2  and  C_4
REMARK    4  A    between atoms: C_8  and  S_12
REMARK    5  A    between atoms: C_9  and  C_10
REMARK    6  A    between atoms: S_12  and  C_13
REMARK    7  A    between atoms: C_13  and  C_14
REMARK    8  A    between atoms: C_15  and  C_34
REMARK    9  A    between atoms: C_16  and  N_33
REMARK   10  A    between atoms: C_17  and  C_25
REMARK   11  A    between atoms: N_18  and  C_19
REMARK   12  A    between atoms: C_25  and  C_27
REMARK                            x       y       z     vdW  Elec       q    Type
REMARK                         _______ _______ _______ _____ _____    ______ ____
ROOT
ATOM      1  C   UNL     1      -2.721   3.291  -0.013  0.00  0.00    +0.054 A 
ATOM      2  C   UNL     1      -1.389   3.026   0.232  0.00  0.00    +0.095 A 
ATOM      3  C   UNL     1      -1.222   1.617   0.188  0.00  0.00    +0.072 A 
ATOM      4  C   UNL     1      -2.474   1.076  -0.076  0.00  0.00    +0.117 A 
ATOM      5  N   UNL     1      -3.372   2.126  -0.195  0.00  0.00    -0.307 N 
ENDROOT
BRANCH   5   6
ATOM      6  C   UNL     1      -4.741   1.995  -0.460  0.00  0.00    +0.047 A 
ATOM      7  C   UNL     1      -5.271   2.493  -1.643  0.00  0.00    +0.026 A 
ATOM      8  C   UNL     1      -6.621   2.358  -1.904  0.00  0.00    +0.002 A 
ATOM      9  C   UNL     1      -7.446   1.737  -0.984  0.00  0.00    +0.000 A 
ATOM     10  C   UNL     1      -6.922   1.245   0.198  0.00  0.00    +0.002 A 
ATOM     11  C   UNL     1      -5.572   1.373   0.462  0.00  0.00    +0.026 A 
ENDBRANCH   5   6
BRANCH   3  12
ATOM     12  N   UNL     1      -0.042   0.917   0.378  0.00  0.00    -0.355 N 
ATOM     13  H   UNL     1      -0.039  -0.182   0.319  0.00  0.00    +0.142 HD
ATOM     14  H   UNL     1       0.892   1.459   0.587  0.00  0.00    +0.142 HD
ENDBRANCH   3  12
BRANCH   4  15
ATOM     15  C   UNL     1      -2.778  -0.298  -0.201  0.00  0.00    +0.212 C 
ATOM     16  O   UNL     1      -3.044  -0.956   0.789  0.00  0.00    -0.285 OA
BRANCH  15  17
ATOM     17  C   UNL     1      -2.774  -0.938  -1.535  0.00  0.00    +0.024 A 
ATOM     18  C   UNL     1      -2.387  -0.210  -2.661  0.00  0.00    +0.012 A 
ATOM     19  C   UNL     1      -2.380  -0.814  -3.901  0.00  0.00    +0.001 A 
ATOM     20  C   UNL     1      -2.766  -2.136  -4.032  0.00  0.00    +0.000 A 
ATOM     21  C   UNL     1      -3.156  -2.862  -2.921  0.00  0.00    +0.001 A 
ATOM     22  C   UNL     1      -3.163  -2.271  -1.674  0.00  0.00    +0.012 A 
ENDBRANCH  15  17
ENDBRANCH   4  15
BRANCH   2  23
ATOM     23  C   UNL     1      -0.363   3.994   0.482  0.00  0.00    +0.103 C 
ATOM     24  N   UNL     1       0.450   4.761   0.680  0.00  0.00    -0.191 NA
ENDBRANCH   2  23
BRANCH   1  25
ATOM     25  C   UNL     1      -3.347   4.661  -0.064  0.00  0.00    +0.131 C 
BRANCH  25  26
ATOM     26  S   UNL     1      -3.914   5.126   1.591  0.00  0.00    -0.098 S 
BRANCH  26  31
ATOM     27  C   UNL     1      -5.680   8.746   1.986  0.00  0.00    +0.051 A 
ATOM     28  C   UNL     1      -5.608   9.194   0.667  0.00  0.00    +0.044 A 
ATOM     29  C   UNL     1      -5.030   8.388  -0.291  0.00  0.00    +0.114 A 
ATOM     30  N   UNL     1      -4.543   7.199   0.014  0.00  0.00    -0.247 NA
ATOM     31  C   UNL     1      -4.582   6.720   1.249  0.00  0.00    +0.116 A 
ATOM     32  C   UNL     1      -5.159   7.473   2.286  0.00  0.00    +0.104 A 
BRANCH  27  34
ATOM     33  C   UNL     1      -5.544  10.810   3.109  0.00  0.00    +0.129 C 
ATOM     34  N   UNL     1      -6.255   9.531   2.973  0.00  0.00    -0.335 N 
ATOM     35  C   UNL     1      -7.683   9.748   2.708  0.00  0.00    +0.129 C 
ENDBRANCH  27  34
BRANCH  32  36
ATOM     36  C   UNL     1      -5.210   6.959   3.621  0.00  0.00    +0.104 C 
ATOM     37  N   UNL     1      -5.251   6.551   4.681  0.00  0.00    -0.191 NA
ENDBRANCH  32  36
ENDBRANCH  26  31
ENDBRANCH  25  26
ENDBRANCH   1  25
TORSDOF 10
