REMARK  Name = ZINC01067888
REMARK  9 active torsions:
REMARK  status: ('A' for Active; 'I' for Inactive)
REMARK    1  A    between atoms: C_1  and  C_2
REMARK    2  A    between atoms: C_7  and  C_8
REMARK    3  A    between atoms: C_8  and  C_9
REMARK    4  A    between atoms: C_8  and  C_16
REMARK    5  A    between atoms: C_8  and  O_34
REMARK    6  A    between atoms: C_14  and  C_15
REMARK    7  A    between atoms: N_18  and  N_19
REMARK    8  A    between atoms: N_19  and  C_20
REMARK    9  A    between atoms: C_26  and  C_28
REMARK                            x       y       z     vdW  Elec       q    Type
REMARK                         _______ _______ _______ _____ _____    ______ ____
ROOT
ATOM      1  C   UNL     1       4.430   1.403   1.462  0.00  0.00    +0.271 C 
ATOM      2  O   UNL     1       4.116   1.415   2.634  0.00  0.00    -0.270 OA
ATOM      3  N   UNL     1       3.929   0.460   0.640  0.00  0.00    -0.224 N 
ATOM      4  H   UNL     1       4.226   0.414  -0.282  0.00  0.00    +0.174 HD
ENDROOT
BRANCH   3   5
ATOM      5  N   UNL     1       2.981  -0.454   1.117  0.00  0.00    -0.181 N 
ATOM      6  C   UNL     1       3.346  -1.722   1.393  0.00  0.00    +0.303 C 
ATOM      7  O   UNL     1       2.527  -2.510   1.828  0.00  0.00    -0.265 OA
BRANCH   5   8
ATOM      8  C   UNL     1       1.656  -0.050   1.308  0.00  0.00    +0.056 A 
ATOM      9  C   UNL     1       0.700  -0.972   1.716  0.00  0.00    +0.025 A 
ATOM     10  C   UNL     1      -0.608  -0.570   1.904  0.00  0.00    +0.002 A 
ATOM     11  C   UNL     1      -0.967   0.747   1.684  0.00  0.00    +0.000 A 
ATOM     12  C   UNL     1      -0.018   1.667   1.278  0.00  0.00    +0.002 A 
ATOM     13  C   UNL     1       1.292   1.272   1.089  0.00  0.00    +0.025 A 
ENDBRANCH   5   8
BRANCH   6  14
ATOM     14  C   UNL     1       4.728  -2.151   1.167  0.00  0.00    +0.193 A 
ATOM     15  C   UNL     1       5.265  -3.353   1.534  0.00  0.00    +0.056 A 
ATOM     16  C   UNL     1       6.606  -3.338   1.123  0.00  0.00    +0.058 A 
ATOM     17  C   UNL     1       6.831  -2.139   0.538  0.00  0.00    +0.171 A 
ATOM     18  O   UNL     1       5.696  -1.427   0.568  0.00  0.00    -0.444 OA
ATOM     19 BR   UNL     1       8.474  -1.563  -0.199  0.00  0.00    -0.008 Br
ENDBRANCH   6  14
ENDBRANCH   3   5
BRANCH   1  20
ATOM     20  C   UNL     1       5.379   2.444   0.926  0.00  0.00    +0.194 C 
BRANCH  20  27
ATOM     21  C   UNL     1       2.868   3.699   1.609  0.00  0.00    +0.044 C 
ATOM     22  C   UNL     1       4.159   4.253   2.153  0.00  0.00    -0.044 A 
ATOM     23  C   UNL     1       4.142   5.361   2.980  0.00  0.00    +0.004 A 
ATOM     24  C   UNL     1       5.327   5.869   3.479  0.00  0.00    +0.000 A 
ATOM     25  C   UNL     1       6.528   5.268   3.153  0.00  0.00    +0.000 A 
ATOM     26  C   UNL     1       6.545   4.157   2.331  0.00  0.00    +0.007 A 
ATOM     27  C   UNL     1       5.361   3.652   1.827  0.00  0.00    +0.000 A 
ENDBRANCH  20  27
BRANCH  20  28
ATOM     28  C   UNL     1       6.774   1.875   0.878  0.00  0.00    +0.000 A 
ATOM     29  C   UNL     1       7.484   1.883  -0.308  0.00  0.00    +0.007 A 
ATOM     30  C   UNL     1       8.764   1.366  -0.351  0.00  0.00    +0.000 A 
ATOM     31  C   UNL     1       9.332   0.829   0.790  0.00  0.00    +0.000 A 
ATOM     32  C   UNL     1       8.620   0.816   1.975  0.00  0.00    +0.004 A 
ATOM     33  C   UNL     1       7.341   1.339   2.019  0.00  0.00    -0.044 A 
ATOM     34  C   UNL     1       6.565   1.324   3.311  0.00  0.00    +0.044 C 
ENDBRANCH  20  28
BRANCH  20  35
ATOM     35  O   UNL     1       4.975   2.825  -0.390  0.00  0.00    -0.371 OA
ATOM     36  H   UNL     1       4.122   3.279  -0.423  0.00  0.00    +0.212 HD
ENDBRANCH  20  35
ENDBRANCH   1  20
TORSDOF 7
