REMARK  Name = ZINC12530483
REMARK  8 active torsions:
REMARK  status: ('A' for Active; 'I' for Inactive)
REMARK    1  A    between atoms: C_4  and  C_7
REMARK    2  A    between atoms: C_7  and  N_8
REMARK    3  A    between atoms: C_9  and  C_11
REMARK    4  A    between atoms: C_11  and  C_12
REMARK    5  A    between atoms: C_12  and  C_13
REMARK    6  A    between atoms: C_22  and  N_25
REMARK    7  A    between atoms: N_25  and  S_26
REMARK    8  A    between atoms: S_26  and  C_29
REMARK                            x       y       z     vdW  Elec       q    Type
REMARK                         _______ _______ _______ _____ _____    ______ ____
ROOT
ATOM      1  C   UNL     1      -3.061   1.427  -1.597  0.00  0.00    -0.050 C 
ATOM      2  C   UNL     1      -2.848   0.712  -2.939  0.00  0.00    +0.089 C 
ATOM      3  N   UNL     1      -1.435   0.529  -3.244  0.00  0.00    -0.318 N 
ATOM      4  C   UNL     1      -0.428   0.750  -2.377  0.00  0.00    +0.200 C 
ATOM      5  O   UNL     1       0.713   0.468  -2.676  0.00  0.00    -0.278 OA
ATOM      6  C   UNL     1      -0.733   1.348  -1.041  0.00  0.00    +0.021 C 
ATOM      7  C   UNL     1      -2.224   1.203   0.760  0.00  0.00    -0.057 C 
ATOM      8  C   UNL     1      -0.791   1.097   1.345  0.00  0.00    +0.059 C 
ATOM      9  C   UNL     1       0.121   0.814   0.118  0.00  0.00    +0.012 C 
ATOM     10  H   UNL     1      -1.202   0.226  -4.135  0.00  0.00    +0.149 HD
ATOM     11  N   UNL     1      -2.029   0.851  -0.662  0.00  0.00    +0.391 N 
ATOM     12  H   UNL     1      -2.048  -0.171  -0.751  0.00  0.00    -0.080 HD
ENDROOT
BRANCH   8  13
ATOM     13  N   UNL     1      -0.713  -0.007   2.305  0.00  0.00    -0.189 NA
ATOM     14  H   UNL     1      -0.629  -0.920   1.988  0.00  0.00    +0.148 HD
BRANCH  13  15
ATOM     15  S   UNL     1      -0.767   0.303   3.931  0.00  0.00    +0.059 S 
ATOM     16  O   UNL     1      -0.706  -0.956   4.587  0.00  0.00    -0.153 OA
ATOM     17  O   UNL     1       0.175   1.337   4.178  0.00  0.00    -0.153 OA
BRANCH  15  18
ATOM     18  C   UNL     1      -2.357   0.976   4.280  0.00  0.00    +0.105 A 
ATOM     19  C   UNL     1      -2.579   2.333   4.139  0.00  0.00    +0.031 A 
ATOM     20  C   UNL     1      -3.828   2.861   4.408  0.00  0.00    +0.040 A 
ATOM     21  C   UNL     1      -4.853   2.032   4.829  0.00  0.00    +0.124 A 
ATOM     22  C   UNL     1      -4.629   0.674   4.975  0.00  0.00    +0.040 A 
ATOM     23  C   UNL     1      -3.381   0.147   4.700  0.00  0.00    +0.031 A 
ATOM     24  F   UNL     1      -6.073   2.548   5.098  0.00  0.00    -0.205 F 
ENDBRANCH  15  18
ENDBRANCH  13  15
ENDBRANCH   8  13
BRANCH   1  25
ATOM     25  C   UNL     1      -4.480   1.168  -1.089  0.00  0.00    -0.005 C 
BRANCH  25  26
ATOM     26  C   UNL     1      -5.487   1.842  -2.024  0.00  0.00    +0.094 C 
BRANCH  26  28
ATOM     27  N   UNL     1      -7.941   2.116  -2.166  0.00  0.00    -0.311 N 
ATOM     28  C   UNL     1      -6.876   1.690  -1.458  0.00  0.00    +0.213 C 
ATOM     29  O   UNL     1      -7.035   1.185  -0.367  0.00  0.00    -0.276 OA
ATOM     30  H   UNL     1      -7.811   2.583  -3.006  0.00  0.00    +0.149 HD
BRANCH  27  31
ATOM     31  C   UNL     1      -9.297   1.875  -1.665  0.00  0.00    +0.139 C 
BRANCH  31  35
ATOM     32  C   UNL     1     -12.142   3.183  -4.571  0.00  0.00    +0.000 A 
ATOM     33  C   UNL     1     -11.748   1.858  -4.537  0.00  0.00    +0.000 A 
ATOM     34  C   UNL     1     -10.828   1.435  -3.596  0.00  0.00    +0.005 A 
ATOM     35  C   UNL     1     -10.301   2.336  -2.690  0.00  0.00    -0.030 A 
ATOM     36  C   UNL     1     -10.699   3.660  -2.721  0.00  0.00    +0.005 A 
ATOM     37  C   UNL     1     -11.616   4.084  -3.664  0.00  0.00    +0.000 A 
ENDBRANCH  31  35
ENDBRANCH  27  31
ENDBRANCH  26  28
ENDBRANCH  25  26
ENDBRANCH   1  25
TORSDOF 8
