REMARK  Name = ZINC63373553
REMARK  6 active torsions:
REMARK  status: ('A' for Active; 'I' for Inactive)
REMARK    1  A    between atoms: C_1  and  O_2
REMARK    2  A    between atoms: O_2  and  C_3
REMARK    3  A    between atoms: C_6  and  C_9
REMARK    4  A    between atoms: C_9  and  N_10
REMARK    5  A    between atoms: C_15  and  C_32
REMARK    6  A    between atoms: C_32  and  C_33
REMARK                            x       y       z     vdW  Elec       q    Type
REMARK                         _______ _______ _______ _____ _____    ______ ____
ROOT
ATOM      1  N   UNL     1       3.923  -2.713  -4.080  0.00  0.00    -0.237 N 
ATOM      2  C   UNL     1       4.865  -1.806  -4.362  0.00  0.00    +0.227 C 
ATOM      3  O   UNL     1       4.667  -0.731  -4.886  0.00  0.00    -0.275 OA
ATOM      4  C   UNL     1       6.215  -2.331  -3.927  0.00  0.00    +0.107 C 
ATOM      5  C   UNL     1       7.073  -2.616  -5.178  0.00  0.00    +0.072 C 
ATOM      6  N   UNL     1       7.668  -3.957  -4.934  0.00  0.00    -0.295 NA
ATOM      7  C   UNL     1       6.588  -4.719  -4.282  0.00  0.00    +0.136 C 
ATOM      8  C   UNL     1       5.880  -3.725  -3.328  0.00  0.00    +0.122 C 
ATOM      9  C   UNL     1       4.381  -3.826  -3.494  0.00  0.00    +0.229 C 
ATOM     10  O   UNL     1       3.700  -4.769  -3.152  0.00  0.00    -0.275 OA
ATOM     11  C   UNL     1       7.126  -5.905  -3.534  0.00  0.00    +0.003 A 
ATOM     12  C   UNL     1       8.024  -6.046  -2.500  0.00  0.00    +0.008 A 
ATOM     13  C   UNL     1       8.328  -7.305  -2.012  0.00  0.00    +0.000 A 
ATOM     14  C   UNL     1       7.726  -8.421  -2.566  0.00  0.00    +0.002 A 
ATOM     15  C   UNL     1       6.824  -8.284  -3.601  0.00  0.00    +0.023 A 
ATOM     16  C   UNL     1       6.514  -7.021  -4.098  0.00  0.00    +0.039 A 
ATOM     17  N   UNL     1       5.648  -6.630  -5.122  0.00  0.00    -0.283 N 
ATOM     18  C   UNL     1       5.634  -5.294  -5.293  0.00  0.00    +0.243 C 
ATOM     19  O   UNL     1       4.980  -4.675  -6.106  0.00  0.00    -0.273 OA
ATOM     20  H   UNL     1       7.946  -4.392  -5.801  0.00  0.00    +0.124 HD
ATOM     21  H   UNL     1       5.118  -7.249  -5.648  0.00  0.00    +0.155 HD
ENDROOT
BRANCH   1  22
ATOM     22  C   UNL     1       2.505  -2.503  -4.381  0.00  0.00    +0.151 C 
BRANCH  22  26
ATOM     23  C   UNL     1       0.606  -0.607  -1.056  0.00  0.00    +0.120 A 
ATOM     24  C   UNL     1       1.173   0.161  -2.062  0.00  0.00    +0.046 A 
ATOM     25  C   UNL     1       1.786  -0.455  -3.136  0.00  0.00    +0.009 A 
ATOM     26  C   UNL     1       1.835  -1.835  -3.209  0.00  0.00    -0.029 A 
ATOM     27  C   UNL     1       1.270  -2.602  -2.207  0.00  0.00    +0.009 A 
ATOM     28  C   UNL     1       0.661  -1.992  -1.128  0.00  0.00    +0.046 A 
BRANCH  23  30
ATOM     29  C   UNL     1      -0.017   1.425   0.010  0.00  0.00    +0.277 C 
ATOM     30  O   UNL     1       0.002  -0.004   0.002  0.00  0.00    -0.495 OA
ENDBRANCH  23  30
ENDBRANCH  22  26
ENDBRANCH   1  22
BRANCH   5  31
ATOM     31  C   UNL     1       8.171  -1.561  -5.322  0.00  0.00    +0.052 C 
BRANCH  31  32
ATOM     32  C   UNL     1       8.918  -1.786  -6.612  0.00  0.00    -0.040 C 
ATOM     33  C   UNL     1       8.689  -1.181  -7.800  0.00  0.00    -0.001 A 
ATOM     34  C   UNL     1       7.714  -0.172  -8.231  0.00  0.00    +0.010 A 
ATOM     35  C   UNL     1       7.730   0.248  -9.516  0.00  0.00    +0.001 A 
ATOM     36  C   UNL     1       8.652  -0.255 -10.445  0.00  0.00    +0.002 A 
ATOM     37  C   UNL     1       9.578  -1.183 -10.124  0.00  0.00    +0.026 A 
ATOM     38  C   UNL     1       9.652  -1.696  -8.800  0.00  0.00    +0.043 A 
ATOM     39  N   UNL     1      10.445  -2.584  -8.251  0.00  0.00    -0.380 N 
ATOM     40  C   UNL     1      10.078  -2.729  -6.838  0.00  0.00    +0.144 C 
ATOM     41  H   UNL     1      11.158  -3.062  -8.703  0.00  0.00    +0.160 HD
ENDBRANCH  31  32
ENDBRANCH   5  31
TORSDOF 5
