REMARK  Name = ZINC57123407
REMARK  7 active torsions:
REMARK  status: ('A' for Active; 'I' for Inactive)
REMARK    1  A    between atoms: C_1  and  O_2
REMARK    2  A    between atoms: O_2  and  C_3
REMARK    3  A    between atoms: C_4  and  N_10
REMARK    4  A    between atoms: N_10  and  S_11
REMARK    5  A    between atoms: S_11  and  C_14
REMARK    6  A    between atoms: C_18  and  S_20
REMARK    7  A    between atoms: S_20  and  N_23
REMARK                            x       y       z     vdW  Elec       q    Type
REMARK                         _______ _______ _______ _____ _____    ______ ____
ROOT
ATOM      1  S   UNL     1      -2.373  -0.997  -3.607  0.00  0.00    +0.092 S 
ATOM      2  O   UNL     1      -1.867  -0.183  -4.656  0.00  0.00    -0.148 OA
ATOM      3  O   UNL     1      -2.403  -2.415  -3.690  0.00  0.00    -0.148 OA
ENDROOT
BRANCH   1   4
ATOM      4  C   UNL     1      -4.030  -0.474  -3.318  0.00  0.00    +0.112 A 
ATOM      5  C   UNL     1      -4.936  -1.340  -2.735  0.00  0.00    +0.029 A 
ATOM      6  C   UNL     1      -6.237  -0.930  -2.508  0.00  0.00    +0.004 A 
ATOM      7  C   UNL     1      -6.631   0.346  -2.863  0.00  0.00    +0.028 A 
ATOM      8  C   UNL     1      -5.725   1.213  -3.446  0.00  0.00    +0.107 A 
ATOM      9  C   UNL     1      -4.423   0.804  -3.668  0.00  0.00    +0.057 A 
BRANCH   8  10
ATOM     10  S   UNL     1      -6.227   2.839  -3.899  0.00  0.00    +0.056 S 
ATOM     11  O   UNL     1      -5.340   3.268  -4.923  0.00  0.00    -0.153 OA
ATOM     12  O   UNL     1      -7.636   2.793  -4.082  0.00  0.00    -0.153 OA
BRANCH  10  13
ATOM     13  N   UNL     1      -5.952   3.819  -2.593  0.00  0.00    -0.204 NA
ATOM     14  H   UNL     1      -5.738   4.756  -2.726  0.00  0.00    +0.144 HD
ATOM     15  H   UNL     1      -6.003   3.456  -1.695  0.00  0.00    +0.144 HD
ENDBRANCH  10  13
ENDBRANCH   8  10
ENDBRANCH   1   4
BRANCH   1  16
ATOM     16  N   UNL     1      -1.497  -0.621  -2.252  0.00  0.00    -0.094 NA
BRANCH  16  18
ATOM     17  C   UNL     1       0.606  -0.608  -1.057  0.00  0.00    +0.163 A 
ATOM     18  C   UNL     1      -0.132  -0.923  -2.195  0.00  0.00    +0.117 A 
ATOM     19  C   UNL     1       0.490  -1.539  -3.272  0.00  0.00    +0.030 A 
ATOM     20  C   UNL     1       1.838  -1.838  -3.213  0.00  0.00    +0.004 A 
ATOM     21  C   UNL     1       2.571  -1.525  -2.083  0.00  0.00    +0.024 A 
ATOM     22  C   UNL     1       1.959  -0.905  -1.008  0.00  0.00    +0.084 A 
ATOM     23 CL   UNL     1       2.885  -0.506   0.406  0.00  0.00    -0.080 Cl
BRANCH  17  25
ATOM     24  C   UNL     1      -0.017   1.425   0.010  0.00  0.00    +0.277 C 
ATOM     25  O   UNL     1       0.002  -0.004   0.002  0.00  0.00    -0.492 OA
ENDBRANCH  17  25
ENDBRANCH  16  18
ENDBRANCH   1  16
TORSDOF 6
