REMARK  Name = ZINC20082598
REMARK  12 active torsions:
REMARK  status: ('A' for Active; 'I' for Inactive)
REMARK    1  A    between atoms: C_1  and  C_2
REMARK    2  A    between atoms: C_7  and  C_14
REMARK    3  A    between atoms: C_14  and  C_16
REMARK    4  A    between atoms: C_14  and  N_25
REMARK    5  A    between atoms: N_20  and  C_21
REMARK    6  A    between atoms: C_21  and  C_22
REMARK    7  A    between atoms: C_21  and  C_23
REMARK    8  A    between atoms: C_21  and  C_24
REMARK    9  A    between atoms: N_25  and  C_26
REMARK   10  A    between atoms: N_25  and  C_33
REMARK   11  A    between atoms: C_26  and  C_27
REMARK   12  A    between atoms: C_33  and  C_34
REMARK                            x       y       z     vdW  Elec       q    Type
REMARK                         _______ _______ _______ _____ _____    ______ ____
ROOT
ATOM      1  C   UNL     1       2.200  -4.144  -1.513  0.00  0.00    +0.163 C 
ENDROOT
BRANCH   1   8
ATOM      2  C   UNL     1       2.435  -7.476  -8.756  0.00  0.00    +0.044 C 
ATOM      3  C   UNL     1       2.620  -6.888  -7.381  0.00  0.00    -0.048 A 
ATOM      4  C   UNL     1       3.884  -6.871  -6.806  0.00  0.00    +0.004 A 
ATOM      5  C   UNL     1       4.074  -6.343  -5.561  0.00  0.00    +0.010 A 
ATOM      6  C   UNL     1       2.986  -5.813  -4.859  0.00  0.00    -0.001 A 
ATOM      7  C   UNL     1       3.153  -5.239  -3.522  0.00  0.00    +0.021 A 
ATOM      8  C   UNL     1       2.062  -4.741  -2.890  0.00  0.00    +0.042 A 
ATOM      9  C   UNL     1       0.797  -4.786  -3.514  0.00  0.00    +0.254 A 
ATOM     10  O   UNL     1      -0.172  -4.337  -2.925  0.00  0.00    -0.268 OA
ATOM     11  N   UNL     1       0.634  -5.306  -4.743  0.00  0.00    -0.322 N 
ATOM     12  H   UNL     1      -0.363  -5.319  -5.207  0.00  0.00    +0.169 HD
ATOM     13  C   UNL     1       1.703  -5.828  -5.439  0.00  0.00    +0.049 A 
ATOM     14  C   UNL     1       1.534  -6.372  -6.708  0.00  0.00    +0.029 A 
ENDBRANCH   1   8
BRANCH   1  15
ATOM     15  C   UNL     1       1.399  -4.957  -0.530  0.00  0.00    +0.174 A 
ATOM     16  N   UNL     1       0.101  -4.913  -0.353  0.00  0.00    -0.111 NA
ATOM     17  N   UNL     1      -0.203  -5.756   0.573  0.00  0.00    -0.023 NA
ATOM     18  N   UNL     1       0.868  -6.331   0.996  0.00  0.00    -0.043 NA
ATOM     19  N   UNL     1       1.877  -5.865   0.341  0.00  0.00    -0.222 N 
BRANCH  19  20
ATOM     20  C   UNL     1       3.280  -6.251   0.512  0.00  0.00    +0.059 C 
ATOM     21  C   UNL     1       4.079  -5.054   1.030  0.00  0.00    +0.036 C 
ATOM     22  C   UNL     1       3.373  -7.401   1.517  0.00  0.00    +0.036 C 
ATOM     23  C   UNL     1       3.852  -6.703  -0.833  0.00  0.00    +0.036 C 
ENDBRANCH  19  20
ENDBRANCH   1  15
BRANCH   1  24
ATOM     24  N   UNL     1       1.702  -2.762  -1.527  0.00  0.00    -0.280 NA
BRANCH  24  25
ATOM     25  C   UNL     1       1.898  -2.118  -0.222  0.00  0.00    +0.121 C 
BRANCH  25  26
ATOM     26  C   UNL     1       0.771  -2.503   0.702  0.00  0.00    -0.033 A 
ATOM     27  C   UNL     1      -0.435  -1.831   0.638  0.00  0.00    +0.005 A 
ATOM     28  C   UNL     1      -1.471  -2.187   1.482  0.00  0.00    +0.000 A 
ATOM     29  C   UNL     1      -1.296  -3.208   2.397  0.00  0.00    +0.000 A 
ATOM     30  C   UNL     1      -0.088  -3.877   2.465  0.00  0.00    +0.000 A 
ATOM     31  C   UNL     1       0.946  -3.524   1.618  0.00  0.00    +0.005 A 
ENDBRANCH  25  26
ENDBRANCH  24  25
BRANCH  24  32
ATOM     32  C   UNL     1       2.338  -1.983  -2.599  0.00  0.00    +0.121 C 
BRANCH  32  33
ATOM     33  C   UNL     1       1.634  -0.658  -2.743  0.00  0.00    -0.033 A 
ATOM     34  C   UNL     1       2.062   0.434  -2.011  0.00  0.00    +0.006 A 
ATOM     35  C   UNL     1       1.417   1.649  -2.143  0.00  0.00    +0.020 A 
ATOM     36  C   UNL     1       0.344   1.773  -3.007  0.00  0.00    +0.041 A 
ATOM     37  C   UNL     1      -0.084   0.679  -3.739  0.00  0.00    +0.020 A 
ATOM     38  C   UNL     1       0.562  -0.536  -3.607  0.00  0.00    +0.006 A 
ATOM     39 CL   UNL     1      -0.467   3.299  -3.173  0.00  0.00    -0.084 Cl
ENDBRANCH  32  33
ENDBRANCH  24  32
ENDBRANCH   1  24
TORSDOF 8
