REMARK  Name = ZINC05573311
REMARK  3 active torsions:
REMARK  status: ('A' for Active; 'I' for Inactive)
REMARK    1  A    between atoms: C_1  and  C_2
REMARK    2  A    between atoms: N_8  and  N_9
REMARK    3  A    between atoms: C_10  and  C_11
REMARK                            x       y       z     vdW  Elec       q    Type
REMARK                         _______ _______ _______ _____ _____    ______ ____
ROOT
ATOM      1  C   UNL     1       6.012  -4.010  -0.555  0.00  0.00    +0.010 A 
ATOM      2  C   UNL     1       5.726  -3.953  -1.937  0.00  0.00    -0.009 A 
ATOM      3  C   UNL     1       4.571  -3.311  -2.413  0.00  0.00    +0.009 A 
ATOM      4  C   UNL     1       4.325  -3.273  -3.751  0.00  0.00    +0.001 A 
ATOM      5  C   UNL     1       5.193  -3.859  -4.670  0.00  0.00    +0.001 A 
ATOM      6  C   UNL     1       6.327  -4.496  -4.275  0.00  0.00    +0.008 A 
ATOM      7  C   UNL     1       6.640  -4.570  -2.901  0.00  0.00    -0.017 A 
ATOM      8  C   UNL     1       7.796  -5.217  -2.462  0.00  0.00    +0.017 A 
ATOM      9  C   UNL     1       8.087  -5.279  -1.098  0.00  0.00    -0.017 A 
ATOM     10  C   UNL     1       7.188  -4.661  -0.121  0.00  0.00    -0.009 A 
ATOM     11  C   UNL     1       7.514  -4.736   1.243  0.00  0.00    +0.009 A 
ATOM     12  C   UNL     1       8.655  -5.370   1.628  0.00  0.00    +0.001 A 
ATOM     13  C   UNL     1       9.516  -5.952   0.700  0.00  0.00    +0.001 A 
ATOM     14  C   UNL     1       9.250  -5.929  -0.632  0.00  0.00    +0.008 A 
ENDROOT
BRANCH   1  16
ATOM     15  N   UNL     1       5.346  -3.566   1.668  0.00  0.00    -0.155 NA
ATOM     16  C   UNL     1       5.133  -3.415   0.385  0.00  0.00    +0.144 C 
BRANCH  15  23
ATOM     17  C   UNL     1       4.003  -4.203   7.398  0.00  0.00    +0.029 C 
ATOM     18  C   UNL     1       4.817  -3.226   6.546  0.00  0.00    +0.137 C 
ATOM     19  C   UNL     1       5.888  -3.952   5.748  0.00  0.00    +0.232 C 
ATOM     20  O   UNL     1       6.787  -4.565   6.284  0.00  0.00    -0.274 OA
ATOM     21  N   UNL     1       5.779  -3.872   4.433  0.00  0.00    -0.263 N 
ATOM     22  C   UNL     1       4.761  -3.177   3.816  0.00  0.00    +0.183 C 
ATOM     23  N   UNL     1       4.546  -3.025   2.523  0.00  0.00    -0.127 NA
ATOM     24  S   UNL     1       3.802  -2.529   5.178  0.00  0.00    -0.076 S 
ATOM     25  H   UNL     1       6.440  -4.319   3.882  0.00  0.00    +0.157 HD
ENDBRANCH  15  23
ENDBRANCH   1  16
TORSDOF 2
