REMARK  Name = ZINC09447422
REMARK  6 active torsions:
REMARK  status: ('A' for Active; 'I' for Inactive)
REMARK    1  A    between atoms: C_4  and  C_7
REMARK    2  A    between atoms: C_9  and  C_13
REMARK    3  A    between atoms: C_16  and  S_19
REMARK    4  A    between atoms: N_17  and  N_18
REMARK    5  A    between atoms: S_19  and  C_20
REMARK    6  A    between atoms: C_20  and  C_21
REMARK                            x       y       z     vdW  Elec       q    Type
REMARK                         _______ _______ _______ _____ _____    ______ ____
ROOT
ATOM      1  C   UNL     1       5.933  -3.664   0.392  0.00  0.00    +0.199 A 
ATOM      2  N   UNL     1       5.291  -4.811   0.383  0.00  0.00    -0.125 NA
ATOM      3  N   UNL     1       6.120  -5.777   0.209  0.00  0.00    -0.120 NA
ATOM      4  C   UNL     1       7.343  -5.307   0.096  0.00  0.00    +0.209 A 
ATOM      5  N   UNL     1       7.267  -3.948   0.203  0.00  0.00    -0.223 N 
ENDROOT
BRANCH   1   8
ATOM      6  C   UNL     1       3.876  -0.637   0.704  0.00  0.00    +0.093 A 
ATOM      7  C   UNL     1       4.010  -2.015   0.469  0.00  0.00    +0.061 A 
ATOM      8  C   UNL     1       5.337  -2.328   0.566  0.00  0.00    +0.105 A 
ATOM      9  N   UNL     1       6.010  -1.175   0.855  0.00  0.00    -0.273 N 
ATOM     10  H   UNL     1       6.968  -1.089   0.982  0.00  0.00    +0.189 HD
ATOM     11  N   UNL     1       5.073  -0.137   0.930  0.00  0.00    -0.173 NA
BRANCH   6  15
ATOM     12  C   UNL     1       0.229   1.549   0.674  0.00  0.00    +0.000 A 
ATOM     13  C   UNL     1       1.421   2.202   0.928  0.00  0.00    +0.001 A 
ATOM     14  C   UNL     1       2.608   1.497   0.939  0.00  0.00    +0.010 A 
ATOM     15  C   UNL     1       2.603   0.126   0.694  0.00  0.00    +0.002 A 
ATOM     16  C   UNL     1       1.399  -0.527   0.440  0.00  0.00    +0.010 A 
ATOM     17  C   UNL     1       0.218   0.188   0.431  0.00  0.00    +0.001 A 
ENDBRANCH   6  15
ENDBRANCH   1   8
BRANCH   5  18
ATOM     18  N   UNL     1       8.300  -3.055   0.138  0.00  0.00    -0.295 N 
ATOM     19  H   UNL     1       8.691  -2.888   1.053  0.00  0.00    +0.163 HD
ATOM     20  H   UNL     1       9.009  -3.370  -0.506  0.00  0.00    +0.163 HD
ENDBRANCH   5  18
BRANCH   4  21
ATOM     21  S   UNL     1       8.807  -6.256  -0.153  0.00  0.00    -0.075 S 
BRANCH  21  22
ATOM     22  C   UNL     1       8.215  -7.969  -0.212  0.00  0.00    +0.174 C 
BRANCH  22  23
ATOM     23  C   UNL     1       9.384  -8.897  -0.425  0.00  0.00    +0.234 C 
ATOM     24  O   UNL     1      10.437  -8.461  -0.839  0.00  0.00    -0.274 OA
ATOM     25  N   UNL     1       9.258 -10.212  -0.154  0.00  0.00    -0.237 N 
ATOM     26  C   UNL     1      10.389 -11.034  -0.234  0.00  0.00    +0.055 A 
ATOM     27  C   UNL     1      11.336 -10.827  -1.225  0.00  0.00    +0.025 A 
ATOM     28  C   UNL     1      12.450 -11.645  -1.298  0.00  0.00    +0.002 A 
ATOM     29  C   UNL     1      12.627 -12.671  -0.389  0.00  0.00    +0.001 A 
ATOM     30  C   UNL     1      11.688 -12.886   0.606  0.00  0.00    +0.017 A 
ATOM     31  C   UNL     1      10.573 -12.072   0.683  0.00  0.00    +0.035 A 
ATOM     32  S   UNL     1       9.357 -12.322   1.939  0.00  0.00    -0.086 S 
ATOM     33  C   UNL     1       7.888 -11.716   1.169  0.00  0.00    +0.035 A 
ATOM     34  C   UNL     1       8.002 -10.716   0.204  0.00  0.00    +0.055 A 
ATOM     35  C   UNL     1       6.854 -10.230  -0.401  0.00  0.00    +0.025 A 
ATOM     36  C   UNL     1       5.616 -10.735  -0.044  0.00  0.00    +0.002 A 
ATOM     37  C   UNL     1       5.514 -11.724   0.916  0.00  0.00    +0.001 A 
ATOM     38  C   UNL     1       6.648 -12.219   1.518  0.00  0.00    +0.017 A 
ENDBRANCH  22  23
ENDBRANCH  21  22
ENDBRANCH   4  21
TORSDOF 6
