REMARK  Name = ZINC40940353
REMARK  8 active torsions:
REMARK  status: ('A' for Active; 'I' for Inactive)
REMARK    1  A    between atoms: C_1  and  C_2
REMARK    2  A    between atoms: C_2  and  C_4
REMARK    3  A    between atoms: C_2  and  N_25
REMARK    4  A    between atoms: C_7  and  C_10
REMARK    5  A    between atoms: C_15  and  C_16
REMARK    6  A    between atoms: N_19  and  C_21
REMARK    7  A    between atoms: C_26  and  C_28
REMARK    8  A    between atoms: C_28  and  O_35
REMARK                            x       y       z     vdW  Elec       q    Type
REMARK                         _______ _______ _______ _____ _____    ______ ____
ROOT
ATOM      1  C   UNL     1       0.707  -0.490  -1.238  0.00  0.00    +0.096 A 
ATOM      2  C   UNL     1      -0.035  -1.011  -2.285  0.00  0.00    +0.147 A 
ATOM      3  C   UNL     1       0.619  -1.456  -3.423  0.00  0.00    +0.050 A 
ATOM      4  C   UNL     1       2.013  -1.359  -3.466  0.00  0.00    +0.004 A 
ATOM      5  C   UNL     1       2.686  -0.823  -2.370  0.00  0.00    +0.119 A 
ATOM      6  N   UNL     1       2.022  -0.408  -1.312  0.00  0.00    -0.255 NA
ATOM      7  F   UNL     1      -1.381  -1.085  -2.198  0.00  0.00    -0.204 F 
ENDROOT
BRANCH   4   8
ATOM      8  C   UNL     1       2.763  -1.821  -4.659  0.00  0.00    -0.001 A 
ATOM      9  C   UNL     1       2.518  -3.082  -5.195  0.00  0.00    +0.029 A 
ATOM     10  C   UNL     1       3.219  -3.510  -6.306  0.00  0.00    +0.044 A 
ATOM     11  C   UNL     1       4.168  -2.689  -6.894  0.00  0.00    +0.059 A 
ATOM     12  C   UNL     1       4.423  -1.434  -6.374  0.00  0.00    +0.136 A 
ATOM     13  C   UNL     1       3.720  -0.986  -5.257  0.00  0.00    +0.066 A 
ATOM     14  F   UNL     1       5.351  -0.639  -6.952  0.00  0.00    -0.205 F 
ATOM     15 CL   UNL     1       2.909  -5.084  -6.970  0.00  0.00    -0.083 Cl
BRANCH  13  16
ATOM     16  C   UNL     1       3.986   0.362  -4.699  0.00  0.00    +0.208 A 
ATOM     17  N   UNL     1       3.398   0.916  -3.629  0.00  0.00    -0.108 NA
ATOM     18  N   UNL     1       3.908   2.091  -3.478  0.00  0.00    -0.046 NA
ATOM     19  N   UNL     1       4.782   2.290  -4.402  0.00  0.00    -0.166 N 
ATOM     20  N   UNL     1       4.851   1.246  -5.155  0.00  0.00    -0.131 NA
ATOM     21  C   UNL     1       5.578   3.508  -4.567  0.00  0.00    +0.199 C 
ENDBRANCH  13  16
ENDBRANCH   4   8
BRANCH   1  23
ATOM     22  C   UNL     1      -0.019   1.526   0.010  0.00  0.00    +0.034 C 
ATOM     23  C   UNL     1       0.002  -0.004   0.002  0.00  0.00    +0.122 C 
BRANCH  23  24
ATOM     24  N   UNL     1       0.711  -0.489   1.189  0.00  0.00    -0.305 N 
ATOM     25  C   UNL     1       0.051  -0.633   2.355  0.00  0.00    +0.245 C 
ATOM     26  O   UNL     1      -1.129  -0.361   2.423  0.00  0.00    -0.273 OA
ATOM     27  H   UNL     1       1.654  -0.707   1.135  0.00  0.00    +0.149 HD
BRANCH  25  28
ATOM     28  C   UNL     1       0.780  -1.133   3.576  0.00  0.00    +0.147 C 
ATOM     29  C   UNL     1       0.747  -2.674   3.618  0.00  0.00    +0.050 C 
ATOM     30  C   UNL     1       0.593  -3.011   5.122  0.00  0.00    +0.079 C 
ATOM     31  C   UNL     1      -0.369  -1.905   5.622  0.00  0.00    +0.252 C 
ATOM     32  C   UNL     1       0.070  -0.643   4.851  0.00  0.00    +0.119 C 
ATOM     33  F   UNL     1      -1.694  -2.232   5.313  0.00  0.00    -0.206 F 
ATOM     34  F   UNL     1      -0.220  -1.713   7.000  0.00  0.00    -0.206 F 
BRANCH  28  35
ATOM     35  O   UNL     1       2.132  -0.671   3.562  0.00  0.00    -0.379 OA
ATOM     36  H   UNL     1       2.637  -0.956   2.787  0.00  0.00    +0.211 HD
ENDBRANCH  28  35
ENDBRANCH  25  28
ENDBRANCH  23  24
ENDBRANCH   1  23
TORSDOF 6
