REMARK  Name = ZINC63743771
REMARK  9 active torsions:
REMARK  status: ('A' for Active; 'I' for Inactive)
REMARK    1  A    between atoms: C_1  and  O_2
REMARK    2  A    between atoms: O_2  and  C_3
REMARK    3  A    between atoms: C_5  and  N_13
REMARK    4  A    between atoms: C_7  and  O_11
REMARK    5  A    between atoms: C_8  and  O_9
REMARK    6  A    between atoms: O_9  and  C_10
REMARK    7  A    between atoms: O_11  and  C_12
REMARK    8  A    between atoms: N_16  and  C_17
REMARK    9  A    between atoms: C_20  and  C_23
REMARK                            x       y       z     vdW  Elec       q    Type
REMARK                         _______ _______ _______ _____ _____    ______ ____
ROOT
ATOM      1  N   UNL     1      -4.780   0.187  -0.117  0.00  0.00    -0.269 N 
ATOM      2  C   UNL     1      -5.978  -0.424  -0.214  0.00  0.00    +0.308 C 
ATOM      3  O   UNL     1      -6.035  -1.629  -0.363  0.00  0.00    -0.252 OA
ATOM      4  N   UNL     1      -7.112   0.301  -0.146  0.00  0.00    -0.269 N 
ATOM      5  H   UNL     1      -4.734   1.136   0.076  0.00  0.00    +0.156 HD
ATOM      6  H   UNL     1      -7.066   1.269  -0.103  0.00  0.00    +0.156 HD
ENDROOT
BRANCH   1   9
ATOM      7  C   UNL     1      -2.412  -2.342  -1.366  0.00  0.00    +0.167 A 
ATOM      8  C   UNL     1      -3.577  -1.613  -1.188  0.00  0.00    +0.073 A 
ATOM      9  C   UNL     1      -3.602  -0.550  -0.296  0.00  0.00    +0.042 A 
ATOM     10  C   UNL     1      -2.460  -0.215   0.418  0.00  0.00    +0.073 A 
ATOM     11  C   UNL     1      -1.293  -0.942   0.241  0.00  0.00    +0.167 A 
ATOM     12  C   UNL     1      -1.269  -2.011  -0.648  0.00  0.00    +0.204 A 
BRANCH   7  14
ATOM     13  C   UNL     1      -3.598  -3.667  -2.945  0.00  0.00    +0.277 C 
ATOM     14  O   UNL     1      -2.388  -3.383  -2.240  0.00  0.00    -0.491 OA
ENDBRANCH   7  14
BRANCH  12  15
ATOM     15  O   UNL     1      -0.125  -2.730  -0.818  0.00  0.00    -0.488 OA
ATOM     16  C   UNL     1       0.777  -2.282  -1.831  0.00  0.00    +0.277 C 
ENDBRANCH  12  15
BRANCH  11  17
ATOM     17  O   UNL     1      -0.174  -0.614   0.940  0.00  0.00    -0.491 OA
ATOM     18  C   UNL     1      -0.272   0.492   1.839  0.00  0.00    +0.277 C 
ENDBRANCH  11  17
ENDBRANCH   1   9
BRANCH   4  19
ATOM     19  C   UNL     1      -8.354  -0.342  -0.137  0.00  0.00    +0.035 A 
ATOM     20  C   UNL     1      -8.491  -1.585   0.468  0.00  0.00    +0.024 A 
ATOM     21  C   UNL     1      -9.718  -2.217   0.475  0.00  0.00    +0.008 A 
ATOM     22  C   UNL     1     -10.812  -1.614  -0.120  0.00  0.00    -0.021 A 
ATOM     23  C   UNL     1     -10.680  -0.377  -0.723  0.00  0.00    +0.008 A 
ATOM     24  C   UNL     1      -9.456   0.263  -0.728  0.00  0.00    +0.024 A 
BRANCH  22  25
ATOM     25  C   UNL     1     -12.150  -2.307  -0.110  0.00  0.00    +0.133 C 
ATOM     26  C   UNL     1     -13.047  -1.693   0.941  0.00  0.00    +0.012 C 
ATOM     27  C   UNL     1     -14.120  -1.203   0.279  0.00  0.00    -0.004 A 
ATOM     28  C   UNL     1     -15.328  -0.500   0.726  0.00  0.00    +0.010 A 
ATOM     29  C   UNL     1     -16.247  -0.124  -0.193  0.00  0.00    +0.001 A 
ATOM     30  C   UNL     1     -16.074  -0.390  -1.558  0.00  0.00    +0.002 A 
ATOM     31  C   UNL     1     -14.990  -1.031  -2.045  0.00  0.00    +0.026 A 
ATOM     32  C   UNL     1     -13.961  -1.471  -1.168  0.00  0.00    +0.043 A 
ATOM     33  N   UNL     1     -12.833  -2.104  -1.393  0.00  0.00    -0.374 N 
ATOM     34  H   UNL     1     -12.506  -2.390  -2.260  0.00  0.00    +0.161 HD
ENDBRANCH  22  25
ENDBRANCH   4  19
TORSDOF 6
