REMARK  Name = ZINC63182712
REMARK  6 active torsions:
REMARK  status: ('A' for Active; 'I' for Inactive)
REMARK    1  A    between atoms: C_4  and  C_7
REMARK    2  A    between atoms: C_7  and  C_9
REMARK    3  A    between atoms: C_7  and  C_25
REMARK    4  A    between atoms: C_9  and  N_10
REMARK    5  A    between atoms: N_10  and  S_11
REMARK    6  A    between atoms: S_11  and  C_14
REMARK                            x       y       z     vdW  Elec       q    Type
REMARK                         _______ _______ _______ _____ _____    ______ ____
ROOT
ATOM      1  C   UNL     1       3.791  -1.579  -1.292  0.00  0.00    +0.118 C 
ENDROOT
BRANCH   1   2
ATOM      2  N   UNL     1       3.810  -0.724  -2.481  0.00  0.00    -0.189 NA
ATOM      3  H   UNL     1       3.558   0.210  -2.411  0.00  0.00    +0.148 HD
BRANCH   2   4
ATOM      4  S   UNL     1       4.261  -1.351  -3.946  0.00  0.00    +0.058 S 
ATOM      5  O   UNL     1       4.152  -0.296  -4.891  0.00  0.00    -0.153 OA
ATOM      6  O   UNL     1       5.476  -2.056  -3.728  0.00  0.00    -0.153 OA
BRANCH   4   7
ATOM      7  C   UNL     1       3.054  -2.554  -4.392  0.00  0.00    +0.106 A 
ATOM      8  C   UNL     1       3.215  -3.871  -4.002  0.00  0.00    +0.030 A 
ATOM      9  C   UNL     1       2.270  -4.817  -4.350  0.00  0.00    +0.025 A 
ATOM     10  C   UNL     1       1.157  -4.443  -5.091  0.00  0.00    +0.037 A 
ATOM     11  C   UNL     1       0.998  -3.120  -5.481  0.00  0.00    -0.024 A 
ATOM     12  C   UNL     1       1.944  -2.178  -5.126  0.00  0.00    +0.034 A 
ATOM     13  C   UNL     1      -0.210  -2.715  -6.285  0.00  0.00    +0.046 C 
ATOM     14  C   UNL     1      -0.610  -3.859  -7.217  0.00  0.00    +0.101 C 
ATOM     15  C   UNL     1      -0.668  -5.151  -6.448  0.00  0.00    +0.218 C 
ATOM     16  O   UNL     1      -1.505  -5.981  -6.734  0.00  0.00    -0.275 OA
ATOM     17  N   UNL     1       0.197  -5.395  -5.447  0.00  0.00    -0.285 N 
ATOM     18  H   UNL     1       0.154  -6.238  -4.968  0.00  0.00    +0.155 HD
ENDBRANCH   4   7
ENDBRANCH   2   4
ENDBRANCH   1   2
BRANCH   1  19
ATOM     19  C   UNL     1       3.711  -0.707  -0.038  0.00  0.00    +0.063 C 
BRANCH  19  20
ATOM     20  C   UNL     1       3.816  -1.579   1.188  0.00  0.00    -0.033 C 
ATOM     21  C   UNL     1       4.756  -1.509   2.157  0.00  0.00    -0.000 A 
ATOM     22  C   UNL     1       5.920  -0.636   2.352  0.00  0.00    +0.010 A 
ATOM     23  C   UNL     1       6.696  -0.812   3.446  0.00  0.00    +0.001 A 
ATOM     24  C   UNL     1       6.417  -1.805   4.396  0.00  0.00    +0.002 A 
ATOM     25  C   UNL     1       5.366  -2.646   4.285  0.00  0.00    +0.026 A 
ATOM     26  C   UNL     1       4.483  -2.550   3.174  0.00  0.00    +0.043 A 
ATOM     27  N   UNL     1       3.415  -3.236   2.846  0.00  0.00    -0.380 N 
ATOM     28  C   UNL     1       2.886  -2.703   1.585  0.00  0.00    +0.145 C 
ATOM     29  H   UNL     1       3.036  -3.970   3.354  0.00  0.00    +0.160 HD
ENDBRANCH  19  20
BRANCH  19  33
ATOM     30  C   UNL     1      -0.017   1.378   0.010  0.00  0.00    +0.000 A 
ATOM     31  C   UNL     1       1.171   2.086   0.002  0.00  0.00    +0.000 A 
ATOM     32  C   UNL     1       2.377   1.411  -0.013  0.00  0.00    +0.004 A 
ATOM     33  C   UNL     1       2.396   0.029  -0.020  0.00  0.00    -0.039 A 
ATOM     34  C   UNL     1       1.208  -0.679  -0.012  0.00  0.00    +0.004 A 
ATOM     35  C   UNL     1       0.002  -0.004   0.002  0.00  0.00    +0.000 A 
ENDBRANCH  19  33
ENDBRANCH   1  19
TORSDOF 6
