REMARK  Name = ZINC38547900
REMARK  7 active torsions:
REMARK  status: ('A' for Active; 'I' for Inactive)
REMARK    1  A    between atoms: C_1  and  C_2
REMARK    2  A    between atoms: C_2  and  C_3
REMARK    3  A    between atoms: C_5  and  C_16
REMARK    4  A    between atoms: C_6  and  N_8
REMARK    5  A    between atoms: C_9  and  C_11
REMARK    6  A    between atoms: C_16  and  C_18
REMARK    7  A    between atoms: C_16  and  N_25
REMARK                            x       y       z     vdW  Elec       q    Type
REMARK                         _______ _______ _______ _____ _____    ______ ____
ROOT
ATOM      1  C   UNL     1       3.909  -1.511  -2.897  0.00  0.00    +0.135 C 
ENDROOT
BRANCH   1   2
ATOM      2  N   UNL     1       4.551  -1.854  -1.626  0.00  0.00    -0.320 N 
ATOM      3  C   UNL     1       5.687  -2.655  -1.615  0.00  0.00    +0.097 A 
ATOM      4  C   UNL     1       6.213  -3.122  -2.815  0.00  0.00    +0.041 A 
ATOM      5  C   UNL     1       7.344  -3.918  -2.790  0.00  0.00    +0.005 A 
ATOM      6  C   UNL     1       7.913  -4.220  -1.560  0.00  0.00    +0.018 A 
ATOM      7  C   UNL     1       7.339  -3.723  -0.408  0.00  0.00    +0.084 A 
ATOM      8  N   UNL     1       6.263  -2.961  -0.462  0.00  0.00    -0.350 N 
ATOM      9  H   UNL     1       4.183  -1.523  -0.791  0.00  0.00    +0.148 HD
ATOM     10  H   UNL     1       5.881  -2.621   0.362  0.00  0.00    +0.166 HD
ENDBRANCH   1   2
BRANCH   1  11
ATOM     11  C   UNL     1       4.588  -0.305  -3.493  0.00  0.00    -0.022 A 
ATOM     12  C   UNL     1       4.986   0.738  -2.678  0.00  0.00    +0.006 A 
ATOM     13  C   UNL     1       5.609   1.844  -3.224  0.00  0.00    +0.001 A 
ATOM     14  C   UNL     1       5.834   1.908  -4.587  0.00  0.00    +0.015 A 
ATOM     15  C   UNL     1       5.436   0.865  -5.403  0.00  0.00    +0.018 A 
ATOM     16  C   UNL     1       4.818  -0.245  -4.855  0.00  0.00    +0.021 A 
ATOM     17 BR   UNL     1       5.744   0.952  -7.267  0.00  0.00    -0.050 Br
ENDBRANCH   1  11
BRANCH   1  20
ATOM     18  C   UNL     1       0.707  -0.490  -1.238  0.00  0.00    -0.008 A 
ATOM     19  C   UNL     1       2.022  -0.760  -1.419  0.00  0.00    +0.019 A 
ATOM     20  C   UNL     1       2.454  -1.201  -2.657  0.00  0.00    +0.006 A 
ATOM     21  C   UNL     1       1.539  -1.349  -3.656  0.00  0.00    +0.078 A 
ATOM     22  S   UNL     1       0.024  -0.865  -2.844  0.00  0.00    -0.078 S 
BRANCH  21  23
ATOM     23  N   UNL     1       1.734  -1.773  -4.972  0.00  0.00    -0.273 N 
ATOM     24  C   UNL     1       0.688  -1.853  -5.817  0.00  0.00    +0.284 C 
ATOM     25  O   UNL     1      -0.429  -1.555  -5.433  0.00  0.00    -0.266 OA
ATOM     26  H   UNL     1       2.624  -2.011  -5.278  0.00  0.00    +0.156 HD
BRANCH  24  27
ATOM     27  C   UNL     1       0.893  -2.299  -7.199  0.00  0.00    +0.189 A 
ATOM     28  C   UNL     1      -0.074  -2.420  -8.155  0.00  0.00    +0.054 A 
ATOM     29  C   UNL     1       0.564  -2.874  -9.320  0.00  0.00    +0.042 A 
ATOM     30  C   UNL     1       1.876  -3.009  -9.027  0.00  0.00    +0.196 A 
ATOM     31  O   UNL     1       2.071  -2.657  -7.749  0.00  0.00    -0.458 OA
ENDBRANCH  24  27
ENDBRANCH  21  23
BRANCH  18  33
ATOM     32  C   UNL     1      -0.019   1.526   0.010  0.00  0.00    +0.009 C 
ATOM     33  C   UNL     1       0.002  -0.004   0.002  0.00  0.00    +0.039 C 
ENDBRANCH  18  33
ENDBRANCH   1  20
TORSDOF 6
