REMARK  Name = ZINC07002020
REMARK  11 active torsions:
REMARK  status: ('A' for Active; 'I' for Inactive)
REMARK    1  A    between atoms: C_1  and  C_2
REMARK    2  A    between atoms: C_2  and  O_3
REMARK    3  A    between atoms: O_3  and  C_4
REMARK    4  A    between atoms: C_4  and  C_6
REMARK    5  A    between atoms: C_7  and  C_31
REMARK    6  A    between atoms: C_13  and  C_17
REMARK    7  A    between atoms: C_17  and  C_19
REMARK    8  A    between atoms: C_17  and  N_20
REMARK    9  A    between atoms: N_20  and  C_21
REMARK   10  A    between atoms: C_24  and  N_27
REMARK   11  A    between atoms: C_28  and  C_30
REMARK                            x       y       z     vdW  Elec       q    Type
REMARK                         _______ _______ _______ _____ _____    ______ ____
ROOT
ATOM      1  C   UNL     1       0.727  -1.486   6.694  0.00  0.00    +0.102 A 
ATOM      2  C   UNL     1       1.567  -0.658   6.007  0.00  0.00    -0.015 A 
ATOM      3  C   UNL     1       1.119  -0.020   4.848  0.00  0.00    +0.076 A 
ATOM      4  C   UNL     1       1.844   0.910   3.952  0.00  0.00    +0.260 A 
ATOM      5  O   UNL     1       3.000   1.220   4.177  0.00  0.00    -0.267 OA
ATOM      6  N   UNL     1       1.193   1.399   2.879  0.00  0.00    -0.309 N 
ATOM      7  H   UNL     1       1.670   2.022   2.259  0.00  0.00    +0.170 HD
ATOM      8  C   UNL     1      -0.095   1.065   2.622  0.00  0.00    +0.131 A 
ATOM      9  N   UNL     1      -0.763   0.248   3.390  0.00  0.00    -0.225 NA
ATOM     10  C   UNL     1      -0.215  -0.295   4.470  0.00  0.00    +0.116 A 
ATOM     11  S   UNL     1      -0.774  -1.414   5.730  0.00  0.00    -0.062 S 
ATOM     12  C   UNL     1       2.974  -0.433   6.497  0.00  0.00    +0.046 C 
ENDROOT
BRANCH   1  13
ATOM     13  C   UNL     1       0.991  -2.246   7.918  0.00  0.00    +0.346 C 
ATOM     14  O   UNL     1       2.083  -2.180   8.450  0.00  0.00    -0.244 OA
BRANCH  13  15
ATOM     15  O   UNL     1       0.025  -3.018   8.454  0.00  0.00    -0.461 OA
BRANCH  15  17
ATOM     16  C   UNL     1      -0.855  -4.558  10.124  0.00  0.00    +0.048 C 
ATOM     17  C   UNL     1       0.357  -3.743   9.668  0.00  0.00    +0.229 C 
ENDBRANCH  15  17
ENDBRANCH  13  15
ENDBRANCH   1  13
BRANCH   8  18
ATOM     18  C   UNL     1      -0.774   1.648   1.409  0.00  0.00    +0.133 C 
ATOM     19  C   UNL     1       0.059   1.345   0.163  0.00  0.00    +0.036 C 
BRANCH  18  20
ATOM     20  N   UNL     1      -2.106   1.054   1.263  0.00  0.00    -0.334 N 
ATOM     21  H   UNL     1      -2.290   0.178   1.636  0.00  0.00    +0.147 HD
BRANCH  20  22
ATOM     22  C   UNL     1      -3.111   1.752   0.585  0.00  0.00    +0.028 A 
ATOM     23  C   UNL     1      -2.849   3.009   0.056  0.00  0.00    +0.025 A 
ATOM     24  C   UNL     1      -3.840   3.693  -0.619  0.00  0.00    +0.025 A 
ATOM     25  C   UNL     1      -5.102   3.131  -0.758  0.00  0.00    +0.033 A 
ATOM     26  C   UNL     1      -5.366   1.877  -0.223  0.00  0.00    +0.025 A 
ATOM     27  C   UNL     1      -4.374   1.189   0.446  0.00  0.00    +0.025 A 
BRANCH  25  28
ATOM     28  N   UNL     1      -6.109   3.829  -1.437  0.00  0.00    -0.286 N 
ATOM     29  C   UNL     1      -7.395   3.701  -1.053  0.00  0.00    +0.214 C 
ATOM     30  O   UNL     1      -7.671   3.059  -0.062  0.00  0.00    -0.276 OA
ATOM     31  C   UNL     1      -8.490   4.356  -1.855  0.00  0.00    +0.109 C 
ATOM     32  H   UNL     1      -5.882   4.405  -2.184  0.00  0.00    +0.155 HD
ENDBRANCH  25  28
ENDBRANCH  20  22
ENDBRANCH  18  20
ENDBRANCH   8  18
TORSDOF 7
