REMARK  Name = ZINC34098740
REMARK  6 active torsions:
REMARK  status: ('A' for Active; 'I' for Inactive)
REMARK    1  A    between atoms: C_4  and  N_7
REMARK    2  A    between atoms: N_7  and  C_8
REMARK    3  A    between atoms: N_27  and  N_28
REMARK    4  A    between atoms: C_29  and  C_30
REMARK    5  A    between atoms: C_34  and  N_37
REMARK    6  A    between atoms: C_35  and  O_36
REMARK                            x       y       z     vdW  Elec       q    Type
REMARK                         _______ _______ _______ _____ _____    ______ ____
ROOT
ATOM      1  N   UNL     1       3.604  -0.684  -0.040  0.00  0.00    -0.238 N 
ATOM      2  C   UNL     1       4.762   0.057   0.121  0.00  0.00    +0.233 A 
ATOM      3  N   UNL     1       4.690   1.373   0.294  0.00  0.00    -0.179 NA
ATOM      4  C   UNL     1       5.802   2.084   0.449  0.00  0.00    +0.241 A 
ATOM      5  N   UNL     1       6.987   1.480   0.430  0.00  0.00    -0.180 NA
ATOM      6  C   UNL     1       7.058   0.164   0.257  0.00  0.00    +0.224 A 
ATOM      7  N   UNL     1       5.945  -0.548   0.107  0.00  0.00    -0.180 NA
ATOM      8  N   UNL     1       8.287  -0.464   0.237  0.00  0.00    -0.299 N 
ATOM      9  C   UNL     1       8.331  -1.896   0.041  0.00  0.00    +0.108 C 
ATOM     10  C   UNL     1       8.249  -2.611   1.412  0.00  0.00    +0.019 C 
ATOM     11  C   UNL     1       9.502  -2.427   2.160  0.00  0.00    +0.002 C 
ATOM     12  C   UNL     1       9.818  -0.976   2.509  0.00  0.00    +0.002 C 
ATOM     13  C   UNL     1      10.525  -0.324   1.347  0.00  0.00    +0.019 C 
ATOM     14  C   UNL     1       9.502   0.355   0.411  0.00  0.00    +0.108 C 
ATOM     15  N   UNL     1       5.728   3.451   0.629  0.00  0.00    -0.205 N 
ATOM     16  H   UNL     1       4.871   3.902   0.570  0.00  0.00    +0.177 HD
ENDROOT
BRANCH   1  20
ATOM     17  C   UNL     1       3.795  -4.844  -0.163  0.00  0.00    +0.000 A 
ATOM     18  C   UNL     1       3.213  -4.149  -1.207  0.00  0.00    +0.002 A 
ATOM     19  C   UNL     1       3.148  -2.770  -1.169  0.00  0.00    +0.024 A 
ATOM     20  C   UNL     1       3.668  -2.081  -0.081  0.00  0.00    +0.042 A 
ATOM     21  C   UNL     1       4.251  -2.782   0.967  0.00  0.00    +0.024 A 
ATOM     22  C   UNL     1       4.313  -4.161   0.922  0.00  0.00    +0.002 A 
ENDBRANCH   1  20
BRANCH   1  23
ATOM     23  C   UNL     1       2.370  -0.036  -0.161  0.00  0.00    +0.042 A 
ATOM     24  C   UNL     1       1.192  -0.771  -0.136  0.00  0.00    +0.024 A 
ATOM     25  C   UNL     1      -0.024  -0.129  -0.256  0.00  0.00    +0.002 A 
ATOM     26  C   UNL     1      -0.070   1.246  -0.402  0.00  0.00    +0.000 A 
ATOM     27  C   UNL     1       1.101   1.981  -0.427  0.00  0.00    +0.002 A 
ATOM     28  C   UNL     1       2.320   1.345  -0.301  0.00  0.00    +0.024 A 
ENDBRANCH   1  23
BRANCH  15  29
ATOM     29  N   UNL     1       6.890   4.187   0.896  0.00  0.00    -0.187 NA
ATOM     30  C   UNL     1       6.809   5.455   1.161  0.00  0.00    +0.142 C 
BRANCH  30  31
ATOM     31  C   UNL     1       8.036   6.252   1.334  0.00  0.00    +0.038 A 
ATOM     32  C   UNL     1       7.956   7.590   1.724  0.00  0.00    +0.013 A 
ATOM     33  C   UNL     1       9.108   8.331   1.884  0.00  0.00    +0.003 A 
ATOM     34  C   UNL     1      10.346   7.753   1.659  0.00  0.00    +0.036 A 
ATOM     35  C   UNL     1      10.439   6.429   1.272  0.00  0.00    +0.168 A 
ATOM     36  C   UNL     1       9.292   5.669   1.113  0.00  0.00    +0.156 A 
BRANCH  35  37
ATOM     37  N   UNL     1      11.767   5.821   1.033  0.00  0.00    +0.060 N 
ATOM     38  O   UNL     1      12.772   6.452   1.264  0.00  0.00    -0.126 OA
ATOM     39  O   UNL     1      11.847   4.692   0.606  0.00  0.00    -0.126 OA
ENDBRANCH  35  37
BRANCH  36  40
ATOM     40  O   UNL     1       9.382   4.367   0.739  0.00  0.00    -0.504 OA
ATOM     41  H   UNL     1       9.448   4.236  -0.217  0.00  0.00    +0.292 HD
ENDBRANCH  36  40
ENDBRANCH  30  31
ENDBRANCH  15  29
TORSDOF 6
