REMARK  Name = ZINC02798111
REMARK  8 active torsions:
REMARK  status: ('A' for Active; 'I' for Inactive)
REMARK    1  A    between atoms: C_1  and  C_2
REMARK    2  A    between atoms: C_4  and  O_10
REMARK    3  A    between atoms: C_6  and  C_9
REMARK    4  A    between atoms: O_10  and  C_11
REMARK    5  A    between atoms: C_11  and  N_12
REMARK    6  A    between atoms: C_15  and  C_17
REMARK    7  A    between atoms: N_19  and  C_20
REMARK    8  A    between atoms: C_21  and  C_29
REMARK                            x       y       z     vdW  Elec       q    Type
REMARK                         _______ _______ _______ _____ _____    ______ ____
ROOT
ATOM      1  C   UNL     1      -1.439   4.426   0.037  0.00  0.00    +0.269 C 
ATOM      2  O   UNL     1      -2.653   4.354   0.047  0.00  0.00    -0.268 OA
ATOM      3  N   UNL     1      -0.835   5.631   0.037  0.00  0.00    -0.274 N 
ATOM      4  H   UNL     1       0.133   5.688   0.028  0.00  0.00    +0.156 HD
ENDROOT
BRANCH   3   5
ATOM      5  C   UNL     1      -1.597   6.788   0.049  0.00  0.00    +0.085 A 
ATOM      6  C   UNL     1      -1.163   8.106   0.056  0.00  0.00    +0.068 A 
ATOM      7  C   UNL     1      -2.178   9.147   0.065  0.00  0.00    -0.023 A 
ATOM      8  C   UNL     1      -3.454   8.705   0.075  0.00  0.00    -0.004 A 
ATOM      9  S   UNL     1      -3.323   6.940   0.065  0.00  0.00    -0.077 S 
ATOM     10  C   UNL     1      -4.698   9.539   0.091  0.00  0.00    +0.043 C 
ATOM     11  C   UNL     1      -4.312  10.976   0.474  0.00  0.00    +0.005 C 
ATOM     12  C   UNL     1      -3.110  11.405  -0.372  0.00  0.00    +0.005 C 
ATOM     13  C   UNL     1      -1.863  10.637   0.069  0.00  0.00    +0.037 C 
BRANCH   6  14
ATOM     14  C   UNL     1       0.265   8.437   0.052  0.00  0.00    +0.244 C 
ATOM     15  O   UNL     1       0.853   8.582  -1.004  0.00  0.00    -0.270 OA
ATOM     16  N   UNL     1       0.927   8.580   1.217  0.00  0.00    -0.325 N 
ATOM     17  H   UNL     1       0.458   8.464   2.059  0.00  0.00    +0.145 HD
ATOM     18  H   UNL     1       1.872   8.798   1.215  0.00  0.00    +0.145 HD
ENDBRANCH   6  14
ENDBRANCH   3   5
BRANCH   1  22
ATOM     19  N   UNL     1       1.064   1.892   0.002  0.00  0.00    -0.235 N 
ATOM     20  C   UNL     1      -0.013   1.076   0.008  0.00  0.00    +0.113 A 
ATOM     21  C   UNL     1      -1.113   1.864   0.017  0.00  0.00    +0.054 A 
ATOM     22  C   UNL     1      -0.627   3.193   0.024  0.00  0.00    +0.147 A 
ATOM     23  N   UNL     1       0.690   3.121   0.011  0.00  0.00    -0.164 NA
BRANCH  19  24
ATOM     24  C   UNL     1       2.457   1.440  -0.013  0.00  0.00    +0.374 C 
BRANCH  24  25
ATOM     25  O   UNL     1       2.495   0.011  -0.019  0.00  0.00    -0.470 OA
BRANCH  25  29
ATOM     26  C   UNL     1       5.200  -4.051  -0.063  0.00  0.00    +0.045 C 
ATOM     27  C   UNL     1       5.080  -2.549  -0.055  0.00  0.00    -0.028 A 
ATOM     28  C   UNL     1       3.832  -1.956  -0.040  0.00  0.00    +0.050 A 
ATOM     29  C   UNL     1       3.722  -0.573  -0.033  0.00  0.00    +0.124 A 
ATOM     30  C   UNL     1       4.865   0.212  -0.045  0.00  0.00    +0.050 A 
ATOM     31  C   UNL     1       6.112  -0.384  -0.054  0.00  0.00    -0.028 A 
ATOM     32  C   UNL     1       6.219  -1.764  -0.062  0.00  0.00    +0.047 A 
ATOM     33 CL   UNL     1       7.786  -2.511  -0.079  0.00  0.00    -0.083 Cl
ATOM     34  C   UNL     1       7.354   0.468  -0.062  0.00  0.00    +0.045 C 
ENDBRANCH  25  29
ENDBRANCH  24  25
ENDBRANCH  19  24
ENDBRANCH   1  22
TORSDOF 6
