REMARK  Name = ZINC02735909
REMARK  7 active torsions:
REMARK  status: ('A' for Active; 'I' for Inactive)
REMARK    1  A    between atoms: C_1  and  C_2
REMARK    2  A    between atoms: C_2  and  N_3
REMARK    3  A    between atoms: C_14  and  C_17
REMARK    4  A    between atoms: C_20  and  C_22
REMARK    5  A    between atoms: C_22  and  O_23
REMARK    6  A    between atoms: O_23  and  C_24
REMARK    7  A    between atoms: C_28  and  C_30
REMARK                            x       y       z     vdW  Elec       q    Type
REMARK                         _______ _______ _______ _____ _____    ______ ____
ROOT
ATOM      1  N   UNL     1       3.650   1.811  -6.957  0.00  0.00    +0.383 N 
ATOM      2  C   UNL     1       2.595   0.855  -6.593  0.00  0.00    -0.074 C 
ATOM      3  C   UNL     1       2.884   0.253  -5.215  0.00  0.00    +0.018 C 
ATOM      4  C   UNL     1       3.133   1.397  -4.237  0.00  0.00    -0.027 A 
ATOM      5  C   UNL     1       3.427   2.633  -4.705  0.00  0.00    -0.021 A 
ATOM      6  S   UNL     1       3.627   3.633  -3.256  0.00  0.00    -0.080 S 
ATOM      7  C   UNL     1       3.329   2.441  -2.064  0.00  0.00    +0.080 A 
ATOM      8  C   UNL     1       3.078   1.267  -2.792  0.00  0.00    +0.068 A 
ATOM      9  C   UNL     1       2.792   0.035  -2.022  0.00  0.00    +0.248 C 
ATOM     10  O   UNL     1       2.733  -1.053  -2.565  0.00  0.00    -0.270 OA
ATOM     11  N   UNL     1       2.600   0.168  -0.694  0.00  0.00    -0.287 N 
ATOM     12  C   UNL     1       2.499   1.455  -0.015  0.00  0.00    +0.227 C 
ATOM     13  N   UNL     1       3.307   2.484  -0.695  0.00  0.00    -0.314 N 
ATOM     14  C   UNL     1       3.548   3.035  -6.141  0.00  0.00    -0.035 C 
ATOM     15  H   UNL     1       2.519  -0.765  -0.118  0.00  0.00    +0.151 HD
ATOM     16  H   UNL     1       3.852   3.235  -0.103  0.00  0.00    +0.149 HD
ATOM     17  H   UNL     1       4.623   1.339  -6.753  0.00  0.00    -0.081 HD
ENDROOT
BRANCH  12  18
ATOM     18  C   UNL     1       1.057   1.892   0.002  0.00  0.00    +0.144 A 
ATOM     19  C   UNL     1      -0.013   1.076   0.008  0.00  0.00    +0.049 A 
ATOM     20  C   UNL     1      -1.159   1.903   0.017  0.00  0.00    +0.048 A 
ATOM     21  C   UNL     1      -0.722   3.175   0.026  0.00  0.00    +0.143 A 
ATOM     22  O   UNL     1       0.621   3.162   0.013  0.00  0.00    -0.458 OA
BRANCH  21  23
ATOM     23  C   UNL     1      -1.592   4.406   0.040  0.00  0.00    +0.303 C 
BRANCH  23  24
ATOM     24  O   UNL     1      -1.854   4.788   1.392  0.00  0.00    -0.484 OA
BRANCH  24  25
ATOM     25  C   UNL     1      -2.630   5.887   1.583  0.00  0.00    +0.122 A 
ATOM     26  C   UNL     1      -3.129   6.584   0.491  0.00  0.00    +0.046 A 
ATOM     27  C   UNL     1      -3.917   7.701   0.688  0.00  0.00    +0.004 A 
ATOM     28  C   UNL     1      -4.209   8.125   1.971  0.00  0.00    +0.012 A 
ATOM     29  C   UNL     1      -3.714   7.433   3.060  0.00  0.00    +0.058 A 
ATOM     30  C   UNL     1      -2.930   6.311   2.869  0.00  0.00    +0.058 A 
BRANCH  29  31
ATOM     31  C   UNL     1      -4.035   7.898   4.457  0.00  0.00    +0.418 C 
ATOM     32  F   UNL     1      -4.841   9.039   4.395  0.00  0.00    -0.166 F 
ATOM     33  F   UNL     1      -4.713   6.884   5.142  0.00  0.00    -0.166 F 
ATOM     34  F   UNL     1      -2.847   8.202   5.131  0.00  0.00    -0.166 F 
ENDBRANCH  29  31
ENDBRANCH  24  25
ENDBRANCH  23  24
ENDBRANCH  21  23
ENDBRANCH  12  18
BRANCH   1  36
ATOM     35  C   UNL     1       4.846   2.929  -8.778  0.00  0.00    -0.017 C 
ATOM     36  C   UNL     1       3.601   2.128  -8.390  0.00  0.00    -0.082 C 
ENDBRANCH   1  36
TORSDOF 6
