REMARK  Name = ZINC39696228
REMARK  9 active torsions:
REMARK  status: ('A' for Active; 'I' for Inactive)
REMARK    1  A    between atoms: C_1  and  C_2
REMARK    2  A    between atoms: C_2  and  C_3
REMARK    3  A    between atoms: C_6  and  C_9
REMARK    4  A    between atoms: C_9  and  C_11
REMARK    5  A    between atoms: C_9  and  N_12
REMARK    6  A    between atoms: C_13  and  C_15
REMARK    7  A    between atoms: C_26  and  C_28
REMARK    8  A    between atoms: C_31  and  O_34
REMARK    9  A    between atoms: O_34  and  C_35
REMARK                            x       y       z     vdW  Elec       q    Type
REMARK                         _______ _______ _______ _____ _____    ______ ____
ROOT
ATOM      1  C   UNL     1       0.799  -5.382   6.846  0.00  0.00    +0.100 C 
ATOM      2  C   UNL     1       0.272  -6.119   5.595  0.00  0.00    +0.121 C 
ATOM      3  N   UNL     1       1.237  -7.222   5.376  0.00  0.00    -0.296 N 
ATOM      4  C   UNL     1       1.558  -7.707   6.739  0.00  0.00    +0.115 C 
ATOM      5  C   UNL     1       1.641  -6.428   7.596  0.00  0.00    -0.004 C 
ATOM      6  C   UNL     1       3.089  -5.961   7.708  0.00  0.00    -0.010 C 
ATOM      7  C   UNL     1       3.892  -6.992   8.506  0.00  0.00    -0.082 C 
ATOM      8  N   UNL     1       3.303  -7.146   9.842  0.00  0.00    +0.379 N 
ATOM      9  C   UNL     1       1.941  -7.684   9.729  0.00  0.00    -0.082 C 
ATOM     10  C   UNL     1       1.055  -6.683   8.982  0.00  0.00    -0.010 C 
ATOM     11  C   UNL     1       1.715  -7.681   4.202  0.00  0.00    +0.248 C 
ATOM     12  O   UNL     1       1.456  -7.093   3.170  0.00  0.00    -0.270 OA
ATOM     13  H   UNL     1       3.869  -7.779  10.387  0.00  0.00    -0.086 HD
ATOM     14  H   UNL     1       3.271  -6.248  10.300  0.00  0.00    -0.086 HD
ENDROOT
BRANCH  11  15
ATOM     15  C   UNL     1       2.552  -8.896   4.170  0.00  0.00    +0.055 A 
ATOM     16  C   UNL     1       2.529  -9.805   5.239  0.00  0.00    +0.020 A 
ATOM     17  C   UNL     1       3.329 -10.926   5.162  0.00  0.00    +0.068 A 
ATOM     18  C   UNL     1       4.126 -11.118   4.038  0.00  0.00    +0.220 A 
ATOM     19  N   UNL     1       4.126 -10.241   3.045  0.00  0.00    -0.220 NA
ATOM     20  C   UNL     1       3.373  -9.161   3.074  0.00  0.00    +0.127 A 
BRANCH  18  21
ATOM     21  O   UNL     1       4.913 -12.218   3.957  0.00  0.00    -0.438 OA
BRANCH  21  22
ATOM     22  C   UNL     1       5.605 -12.424   2.806  0.00  0.00    +0.130 A 
ATOM     23  C   UNL     1       6.774 -11.717   2.561  0.00  0.00    +0.046 A 
ATOM     24  C   UNL     1       7.475 -11.929   1.389  0.00  0.00    +0.004 A 
ATOM     25  C   UNL     1       7.013 -12.845   0.462  0.00  0.00    +0.000 A 
ATOM     26  C   UNL     1       5.849 -13.550   0.704  0.00  0.00    +0.004 A 
ATOM     27  C   UNL     1       5.147 -13.347   1.876  0.00  0.00    +0.046 A 
ENDBRANCH  21  22
ENDBRANCH  18  21
ENDBRANCH  11  15
BRANCH   1  29
ATOM     28  N   UNL     1       1.766  -3.142   7.257  0.00  0.00    -0.308 N 
ATOM     29  C   UNL     1       1.658  -4.211   6.442  0.00  0.00    +0.219 C 
ATOM     30  O   UNL     1       2.251  -4.230   5.385  0.00  0.00    -0.275 OA
ATOM     31  H   UNL     1       1.292  -3.127   8.103  0.00  0.00    +0.149 HD
BRANCH  28  32
ATOM     32  C   UNL     1       2.600  -2.004   6.864  0.00  0.00    +0.100 C 
ATOM     33  C   UNL     1       4.052  -2.273   7.265  0.00  0.00    +0.033 C 
BRANCH  32  37
ATOM     34  C   UNL     1       1.208   1.525   8.828  0.00  0.00    -0.048 A 
ATOM     35  C   UNL     1       1.621   1.585   7.511  0.00  0.00    +0.004 A 
ATOM     36  C   UNL     1       2.072   0.443   6.875  0.00  0.00    +0.006 A 
ATOM     37  C   UNL     1       2.110  -0.759   7.557  0.00  0.00    -0.027 A 
ATOM     38  C   UNL     1       1.698  -0.819   8.875  0.00  0.00    +0.006 A 
ATOM     39  C   UNL     1       1.251   0.324   9.512  0.00  0.00    +0.004 A 
BRANCH  34  41
ATOM     40  C   UNL     1       1.896   3.483  10.185  0.00  0.00    +0.009 C 
ATOM     41  C   UNL     1       0.717   2.769   9.521  0.00  0.00    +0.032 C 
ENDBRANCH  34  41
ENDBRANCH  32  37
ENDBRANCH  28  32
ENDBRANCH   1  29
TORSDOF 7
