REMARK  Name = ZINC39628315
REMARK  7 active torsions:
REMARK  status: ('A' for Active; 'I' for Inactive)
REMARK    1  A    between atoms: C_1  and  C_2
REMARK    2  A    between atoms: N_8  and  C_9
REMARK    3  A    between atoms: C_9  and  C_10
REMARK    4  A    between atoms: C_10  and  C_11
REMARK    5  A    between atoms: C_11  and  N_12
REMARK    6  A    between atoms: C_13  and  C_15
REMARK    7  A    between atoms: C_26  and  C_28
REMARK                            x       y       z     vdW  Elec       q    Type
REMARK                         _______ _______ _______ _____ _____    ______ ____
ROOT
ATOM      1  C   UNL     1       6.789  -0.096   5.316  0.00  0.00    +0.100 C 
ATOM      2  C   UNL     1       6.113   0.587   6.526  0.00  0.00    +0.121 C 
ATOM      3  N   UNL     1       7.231   0.921   7.440  0.00  0.00    -0.296 N 
ATOM      4  C   UNL     1       8.321   1.370   6.541  0.00  0.00    +0.115 C 
ATOM      5  C   UNL     1       8.238   0.421   5.329  0.00  0.00    -0.004 C 
ATOM      6  C   UNL     1       8.538   1.182   4.042  0.00  0.00    -0.010 C 
ATOM      7  C   UNL     1      10.001   1.636   4.052  0.00  0.00    -0.082 C 
ATOM      8  N   UNL     1      10.878   0.465   4.168  0.00  0.00    +0.379 N 
ATOM      9  C   UNL     1      10.647  -0.208   5.452  0.00  0.00    -0.082 C 
ATOM     10  C   UNL     1       9.212  -0.740   5.500  0.00  0.00    -0.010 C 
ATOM     11  C   UNL     1       7.252   0.836   8.785  0.00  0.00    +0.249 C 
ATOM     12  O   UNL     1       8.253   1.150   9.398  0.00  0.00    -0.270 OA
ATOM     13  H   UNL     1      10.682  -0.176   3.413  0.00  0.00    -0.086 HD
ATOM     14  H   UNL     1      11.841   0.761   4.113  0.00  0.00    -0.086 HD
ENDROOT
BRANCH  11  15
ATOM     15  C   UNL     1       6.058   0.361   9.513  0.00  0.00    +0.073 A 
ATOM     16  C   UNL     1       5.898  -1.000   9.787  0.00  0.00    +0.054 A 
ATOM     17  C   UNL     1       4.779  -1.437  10.469  0.00  0.00    +0.021 A 
ATOM     18  C   UNL     1       3.818  -0.531  10.881  0.00  0.00    +0.003 A 
ATOM     19  C   UNL     1       3.970   0.818  10.614  0.00  0.00    +0.021 A 
ATOM     20  C   UNL     1       5.086   1.271   9.938  0.00  0.00    +0.054 A 
ATOM     21 CL   UNL     1       5.278   2.965   9.611  0.00  0.00    -0.083 Cl
ATOM     22 CL   UNL     1       7.101  -2.139   9.269  0.00  0.00    -0.083 Cl
ENDBRANCH  11  15
BRANCH   1  24
ATOM     23  N   UNL     1       6.100  -0.538   2.982  0.00  0.00    -0.315 N 
ATOM     24  C   UNL     1       6.101   0.302   4.036  0.00  0.00    +0.218 C 
ATOM     25  O   UNL     1       5.548   1.379   3.955  0.00  0.00    -0.275 OA
ATOM     26  H   UNL     1       6.542  -1.399   3.048  0.00  0.00    +0.149 HD
BRANCH  23  27
ATOM     27  C   UNL     1       5.431  -0.150   1.738  0.00  0.00    +0.102 C 
BRANCH  27  28
ATOM     28  C   UNL     1       5.577  -1.274   0.710  0.00  0.00    +0.000 C 
BRANCH  28  29
ATOM     29  C   UNL     1       4.878  -0.869  -0.590  0.00  0.00    -0.077 C 
BRANCH  29  36
ATOM     30  C   UNL     1       2.787  -1.365  -2.397  0.00  0.00    -0.013 C 
ATOM     31  C   UNL     1       4.247  -1.611  -2.781  0.00  0.00    -0.072 C 
ATOM     32  C   UNL     1       4.324  -2.768  -3.780  0.00  0.00    -0.016 C 
ATOM     33  C   UNL     1       5.787  -3.010  -4.160  0.00  0.00    -0.003 C 
ATOM     34  C   UNL     1       6.596  -3.287  -2.889  0.00  0.00    -0.019 C 
ATOM     35  C   UNL     1       6.435  -2.111  -1.923  0.00  0.00    -0.078 C 
ATOM     36  N   UNL     1       5.018  -1.948  -1.578  0.00  0.00    +0.381 N 
ATOM     37  H   UNL     1       4.667  -2.808  -1.185  0.00  0.00    -0.081 HD
ENDBRANCH  29  36
ENDBRANCH  28  29
ENDBRANCH  27  28
ENDBRANCH  23  27
ENDBRANCH   1  24
TORSDOF 6
