REMARK  Name = ZINC39834663
REMARK  12 active torsions:
REMARK  status: ('A' for Active; 'I' for Inactive)
REMARK    1  A    between atoms: C_1  and  C_2
REMARK    2  A    between atoms: C_2  and  C_3
REMARK    3  A    between atoms: C_3  and  C_4
REMARK    4  A    between atoms: C_4  and  C_5
REMARK    5  A    between atoms: C_5  and  C_6
REMARK    6  A    between atoms: C_6  and  N_7
REMARK    7  A    between atoms: C_8  and  C_21
REMARK    8  A    between atoms: N_12  and  C_13
REMARK    9  A    between atoms: C_16  and  O_19
REMARK   10  A    between atoms: O_19  and  C_20
REMARK   11  A    between atoms: C_24  and  S_27
REMARK   12  A    between atoms: S_27  and  N_30
REMARK                            x       y       z     vdW  Elec       q    Type
REMARK                         _______ _______ _______ _____ _____    ______ ____
ROOT
ATOM      1  N   UNL     1      -4.291  -4.502   0.112  0.00  0.00    -0.322 N 
ATOM      2  C   UNL     1      -4.769  -4.685   1.340  0.00  0.00    +0.057 A 
ATOM      3  C   UNL     1      -5.916  -5.407   1.511  0.00  0.00    +0.074 A 
ATOM      4  S   UNL     1      -6.301  -5.827  -0.184  0.00  0.00    -0.062 S 
ATOM      5  C   UNL     1      -4.910  -5.002  -0.943  0.00  0.00    +0.143 A 
ATOM      6  N   UNL     1      -4.569  -4.912  -2.283  0.00  0.00    -0.295 N 
ATOM      7  H   UNL     1      -3.727  -4.505  -2.543  0.00  0.00    +0.154 HD
ENDROOT
BRANCH   6   8
ATOM      8  C   UNL     1      -5.439  -5.407  -3.261  0.00  0.00    +0.033 A 
ATOM      9  C   UNL     1      -6.812  -5.277  -3.100  0.00  0.00    +0.027 A 
ATOM     10  C   UNL     1      -7.669  -5.765  -4.066  0.00  0.00    +0.047 A 
ATOM     11  C   UNL     1      -7.159  -6.386  -5.197  0.00  0.00    +0.120 A 
ATOM     12  C   UNL     1      -5.788  -6.517  -5.359  0.00  0.00    +0.047 A 
ATOM     13  C   UNL     1      -4.929  -6.024  -4.396  0.00  0.00    +0.027 A 
BRANCH  11  14
ATOM     14  O   UNL     1      -8.004  -6.867  -6.148  0.00  0.00    -0.495 OA
ATOM     15  C   UNL     1      -7.411  -7.495  -7.286  0.00  0.00    +0.277 C 
ENDBRANCH  11  14
ENDBRANCH   6   8
BRANCH   2  16
ATOM     16  C   UNL     1      -4.064  -4.111   2.512  0.00  0.00    -0.001 A 
ATOM     17  C   UNL     1      -3.424  -2.877   2.408  0.00  0.00    +0.012 A 
ATOM     18  C   UNL     1      -2.770  -2.348   3.502  0.00  0.00    +0.029 A 
ATOM     19  C   UNL     1      -2.747  -3.040   4.699  0.00  0.00    +0.106 A 
ATOM     20  C   UNL     1      -3.380  -4.265   4.808  0.00  0.00    +0.029 A 
ATOM     21  C   UNL     1      -4.042  -4.801   3.723  0.00  0.00    +0.012 A 
BRANCH  19  22
ATOM     22  S   UNL     1      -1.909  -2.358   6.091  0.00  0.00    +0.061 S 
ATOM     23  O   UNL     1      -1.569  -3.450   6.935  0.00  0.00    -0.153 OA
ATOM     24  O   UNL     1      -0.935  -1.459   5.579  0.00  0.00    -0.153 OA
BRANCH  22  25
ATOM     25  N   UNL     1      -3.008  -1.441   6.924  0.00  0.00    -0.177 NA
ATOM     26  C   UNL     1      -3.149  -0.044   6.577  0.00  0.00    +0.109 C 
ATOM     27  C   UNL     1      -2.159   0.802   7.415  0.00  0.00    +0.017 C 
ATOM     28  C   UNL     1      -2.592   0.852   8.820  0.00  0.00    +0.001 C 
ATOM     29  C   UNL     1      -2.616  -0.504   9.519  0.00  0.00    +0.001 C 
ATOM     30  C   UNL     1      -3.930  -1.189   9.236  0.00  0.00    +0.017 C 
ATOM     31  C   UNL     1      -3.808  -2.084   7.985  0.00  0.00    +0.109 C 
ENDBRANCH  22  25
ENDBRANCH  19  22
ENDBRANCH   2  16
BRANCH   1  32
ATOM     32  C   UNL     1      -3.062  -3.728  -0.074  0.00  0.00    +0.124 C 
BRANCH  32  33
ATOM     33  C   UNL     1      -3.417  -2.303  -0.506  0.00  0.00    +0.022 C 
BRANCH  33  34
ATOM     34  C   UNL     1      -2.146  -1.452  -0.549  0.00  0.00    +0.002 C 
BRANCH  34  35
ATOM     35  C   UNL     1      -2.501  -0.028  -0.981  0.00  0.00    -0.000 C 
BRANCH  35  37
ATOM     36  C   UNL     1      -1.585   2.248  -1.456  0.00  0.00    +0.004 C 
ATOM     37  C   UNL     1      -1.230   0.824  -1.024  0.00  0.00    -0.003 C 
ENDBRANCH  35  37
ENDBRANCH  34  35
ENDBRANCH  33  34
ENDBRANCH  32  33
ENDBRANCH   1  32
TORSDOF 10
