REMARK  Name = ZINC62789523
REMARK  6 active torsions:
REMARK  status: ('A' for Active; 'I' for Inactive)
REMARK    1  A    between atoms: C_1  and  C_2
REMARK    2  A    between atoms: N_5  and  C_11
REMARK    3  A    between atoms: C_7  and  C_9
REMARK    4  A    between atoms: C_7  and  C_10
REMARK    5  A    between atoms: C_16  and  C_17
REMARK    6  A    between atoms: N_18  and  O_19
REMARK                            x       y       z     vdW  Elec       q    Type
REMARK                         _______ _______ _______ _____ _____    ______ ____
ROOT
ATOM      1  C   UNL     1       0.414  -2.785  -2.096  0.00  0.00    +0.042 A 
ATOM      2  C   UNL     1      -0.846  -3.364  -2.053  0.00  0.00    +0.043 A 
ATOM      3  C   UNL     1      -1.256  -4.206  -3.070  0.00  0.00    +0.043 A 
ATOM      4  C   UNL     1      -0.413  -4.476  -4.137  0.00  0.00    +0.021 A 
ATOM      5  C   UNL     1       0.842  -3.908  -4.194  0.00  0.00    +0.014 A 
ATOM      6  C   UNL     1       1.266  -3.052  -3.178  0.00  0.00    +0.039 A 
ATOM      7 CL   UNL     1      -2.833  -4.928  -3.010  0.00  0.00    -0.083 Cl
ENDROOT
BRANCH   1  11
ATOM      8  C   UNL     1      -0.038   1.554   0.098  0.00  0.00    +0.039 C 
ATOM      9  C   UNL     1      -0.023   0.024   0.096  0.00  0.00    +0.133 C 
ATOM     10  C   UNL     1       0.660  -0.479  -1.181  0.00  0.00    +0.136 C 
ATOM     11  N   UNL     1       0.830  -1.937  -1.073  0.00  0.00    -0.324 N 
ATOM     12  C   UNL     1       1.450  -2.473   0.150  0.00  0.00    +0.139 C 
ATOM     13  C   UNL     1       0.728  -1.872   1.361  0.00  0.00    +0.080 C 
ATOM     14  O   UNL     1       0.700  -0.449   1.235  0.00  0.00    -0.368 OA
ATOM     15  C   UNL     1      -0.704  -2.408   1.420  0.00  0.00    +0.043 C 
ATOM     16  C   UNL     1       1.472  -2.257   2.642  0.00  0.00    +0.043 C 
ENDBRANCH   1  11
BRANCH   6  17
ATOM     17  C   UNL     1       2.607  -2.435  -3.237  0.00  0.00    +0.164 C 
ATOM     18  N   UNL     1       3.043  -1.726  -2.235  0.00  0.00    -0.071 NA
ATOM     19  N   UNL     1       3.401  -2.611  -4.358  0.00  0.00    -0.340 N 
ATOM     20  H   UNL     1       3.077  -3.139  -5.104  0.00  0.00    +0.144 HD
ATOM     21  H   UNL     1       4.282  -2.206  -4.397  0.00  0.00    +0.144 HD
BRANCH  18  22
ATOM     22  O   UNL     1       4.367  -1.225  -2.246  0.00  0.00    -0.408 OA
ATOM     23  H   UNL     1       4.624  -0.777  -1.428  0.00  0.00    +0.328 HD
ENDBRANCH  18  22
ENDBRANCH   6  17
TORSDOF 3
