REMARK  Name = ZINC03080422
REMARK  8 active torsions:
REMARK  status: ('A' for Active; 'I' for Inactive)
REMARK    1  A    between atoms: C_1  and  C_2
REMARK    2  A    between atoms: C_5  and  S_8
REMARK    3  A    between atoms: S_8  and  O_11
REMARK    4  A    between atoms: O_11  and  C_12
REMARK    5  A    between atoms: C_21  and  C_22
REMARK    6  A    between atoms: N_23  and  N_24
REMARK    7  A    between atoms: C_25  and  C_27
REMARK    8  A    between atoms: C_36  and  O_37
REMARK                            x       y       z     vdW  Elec       q    Type
REMARK                         _______ _______ _______ _____ _____    ______ ____
ROOT
ATOM      1  C   UNL     1      -1.386   1.629  -0.144  0.00  0.00    +0.166 A 
ATOM      2  C   UNL     1      -0.105   1.078  -0.144  0.00  0.00    +0.050 A 
ATOM      3  C   UNL     1       0.998   1.833  -0.390  0.00  0.00    +0.012 A 
ATOM      4  C   UNL     1       0.884   3.210  -0.651  0.00  0.00    -0.017 A 
ATOM      5  C   UNL     1       2.018   4.000  -0.906  0.00  0.00    +0.008 A 
ATOM      6  C   UNL     1       1.871   5.331  -1.152  0.00  0.00    +0.001 A 
ATOM      7  C   UNL     1       0.611   5.924  -1.156  0.00  0.00    +0.001 A 
ATOM      8  C   UNL     1      -0.510   5.188  -0.913  0.00  0.00    +0.009 A 
ATOM      9  C   UNL     1      -0.395   3.817  -0.656  0.00  0.00    -0.006 A 
ATOM     10  C   UNL     1      -1.571   2.989  -0.390  0.00  0.00    +0.047 A 
ENDROOT
BRANCH  10  11
ATOM     11  C   UNL     1      -2.917   3.577  -0.386  0.00  0.00    +0.142 C 
ATOM     12  N   UNL     1      -3.066   4.863  -0.510  0.00  0.00    -0.187 NA
BRANCH  12  13
ATOM     13  N   UNL     1      -4.346   5.429  -0.451  0.00  0.00    -0.203 N 
ATOM     14  C   UNL     1      -4.510   6.748  -0.676  0.00  0.00    +0.267 C 
ATOM     15  O   UNL     1      -3.540   7.462  -0.843  0.00  0.00    -0.268 OA
ATOM     16  H   UNL     1      -5.114   4.872  -0.248  0.00  0.00    +0.178 HD
BRANCH  14  17
ATOM     17  C   UNL     1      -5.867   7.325  -0.721  0.00  0.00    +0.080 A 
ATOM     18  C   UNL     1      -6.970   6.507  -0.530  0.00  0.00    +0.025 A 
ATOM     19  C   UNL     1      -8.257   7.061  -0.574  0.00  0.00    -0.017 A 
ATOM     20  C   UNL     1      -9.398   6.261  -0.385  0.00  0.00    +0.008 A 
ATOM     21  C   UNL     1     -10.634   6.828  -0.432  0.00  0.00    +0.001 A 
ATOM     22  C   UNL     1     -10.789   8.193  -0.666  0.00  0.00    +0.001 A 
ATOM     23  C   UNL     1      -9.708   8.999  -0.854  0.00  0.00    +0.008 A 
ATOM     24  C   UNL     1      -8.414   8.451  -0.812  0.00  0.00    -0.014 A 
ATOM     25  C   UNL     1      -7.280   9.259  -1.002  0.00  0.00    +0.054 A 
ATOM     26  C   UNL     1      -6.034   8.707  -0.952  0.00  0.00    +0.130 A 
BRANCH  26  27
ATOM     27  O   UNL     1      -4.943   9.494  -1.130  0.00  0.00    -0.506 OA
ATOM     28  H   UNL     1      -4.662   9.573  -2.052  0.00  0.00    +0.292 HD
ENDBRANCH  26  27
ENDBRANCH  14  17
ENDBRANCH  12  13
ENDBRANCH  10  11
BRANCH   1  29
ATOM     29  O   UNL     1      -2.461   0.836   0.101  0.00  0.00    -0.342 OA
BRANCH  29  30
ATOM     30  S   UNL     1      -2.741   0.614   1.581  0.00  0.00    +0.151 S 
ATOM     31  O   UNL     1      -3.745  -0.389   1.658  0.00  0.00    -0.131 OA
ATOM     32  O   UNL     1      -1.478   0.478   2.217  0.00  0.00    -0.131 OA
BRANCH  30  37
ATOM     33  C   UNL     1      -5.208   5.691   3.712  0.00  0.00    +0.044 C 
ATOM     34  C   UNL     1      -4.592   4.423   3.180  0.00  0.00    -0.050 A 
ATOM     35  C   UNL     1      -5.401   3.406   2.708  0.00  0.00    +0.005 A 
ATOM     36  C   UNL     1      -4.836   2.243   2.220  0.00  0.00    +0.031 A 
ATOM     37  C   UNL     1      -3.462   2.097   2.203  0.00  0.00    +0.128 A 
ATOM     38  C   UNL     1      -2.653   3.111   2.679  0.00  0.00    +0.031 A 
ATOM     39  C   UNL     1      -3.218   4.276   3.163  0.00  0.00    +0.005 A 
ENDBRANCH  30  37
ENDBRANCH  29  30
ENDBRANCH   1  29
TORSDOF 7
