REMARK  Name = ZINC43548606
REMARK  14 active torsions:
REMARK  status: ('A' for Active; 'I' for Inactive)
REMARK    1  A    between atoms: C_1  and  C_2
REMARK    2  A    between atoms: C_2  and  C_3
REMARK    3  A    between atoms: C_3  and  C_4
REMARK    4  A    between atoms: C_4  and  N_5
REMARK    5  A    between atoms: C_12  and  C_35
REMARK    6  A    between atoms: C_15  and  C_25
REMARK    7  A    between atoms: C_17  and  O_24
REMARK    8  A    between atoms: C_21  and  C_23
REMARK    9  A    between atoms: C_25  and  C_27
REMARK   10  A    between atoms: C_25  and  C_28
REMARK   11  A    between atoms: N_30  and  C_31
REMARK   12  A    between atoms: C_31  and  C_32
REMARK   13  A    between atoms: C_32  and  O_33
REMARK   14  A    between atoms: O_33  and  C_34
REMARK                            x       y       z     vdW  Elec       q    Type
REMARK                         _______ _______ _______ _____ _____    ______ ____
ROOT
ATOM      1  N   UNL     1       1.315  -2.021  -3.677  0.00  0.00    -0.325 N 
ATOM      2  C   UNL     1       1.437  -3.395  -3.541  0.00  0.00    +0.136 A 
ATOM      3  N   UNL     1       2.107  -4.236  -4.300  0.00  0.00    -0.340 N 
ATOM      4  C   UNL     1       2.135  -5.542  -4.046  0.00  0.00    +0.031 A 
ATOM      5  C   UNL     1       1.425  -5.928  -2.957  0.00  0.00    +0.013 A 
ATOM      6  S   UNL     1       0.769  -4.395  -2.360  0.00  0.00    -0.059 S 
ATOM      7  C   UNL     1       1.261  -7.307  -2.417  0.00  0.00    +0.051 C 
ATOM      8  C   UNL     1       2.329  -8.215  -3.054  0.00  0.00    -0.022 C 
ATOM      9  C   UNL     1       1.907  -9.674  -2.823  0.00  0.00    +0.008 C 
ATOM     10  C   UNL     1       0.499  -9.879  -3.386  0.00  0.00    +0.007 C 
ATOM     11  C   UNL     1       0.491  -9.583  -4.886  0.00  0.00    +0.029 C 
ATOM     12  C   UNL     1       0.948  -8.142  -5.132  0.00  0.00    +0.123 C 
ATOM     13  C   UNL     1       2.355  -7.961  -4.565  0.00  0.00    +0.033 C 
ATOM     14  C   UNL     1       2.890  -6.568  -4.878  0.00  0.00    +0.039 C 
ATOM     15  C   UNL     1       4.380  -6.505  -4.538  0.00  0.00    +0.014 C 
ATOM     16  C   UNL     1       3.703  -7.939  -2.440  0.00  0.00    +0.012 C 
ATOM     17  H   UNL     1       1.756  -1.565  -4.411  0.00  0.00    +0.148 HD
ATOM     18  H   UNL     1       2.593  -3.894  -5.066  0.00  0.00    +0.167 HD
ENDROOT
BRANCH  12  19
ATOM     19  O   UNL     1       0.959  -7.877  -6.536  0.00  0.00    -0.391 OA
ATOM     20  H   UNL     1       0.084  -7.899  -6.947  0.00  0.00    +0.210 HD
ENDBRANCH  12  19
BRANCH  11  21
ATOM     21  C   UNL     1      -0.926  -9.767  -5.434  0.00  0.00    +0.077 C 
ATOM     22  C   UNL     1      -1.901  -8.911  -4.622  0.00  0.00    +0.017 C 
BRANCH  21  23
ATOM     23  C   UNL     1      -1.321 -11.217  -5.327  0.00  0.00    +0.216 C 
ATOM     24  O   UNL     1      -0.558 -12.019  -4.831  0.00  0.00    -0.276 OA
ATOM     25  N   UNL     1      -2.523 -11.623  -5.783  0.00  0.00    -0.313 N 
ATOM     26  H   UNL     1      -3.133 -10.982  -6.179  0.00  0.00    +0.149 HD
BRANCH  25  27
ATOM     27  C   UNL     1      -2.907 -13.033  -5.679  0.00  0.00    +0.132 C 
BRANCH  27  28
ATOM     28  C   UNL     1      -4.308 -13.224  -6.265  0.00  0.00    +0.178 C 
BRANCH  28  29
ATOM     29  O   UNL     1      -4.280 -12.941  -7.666  0.00  0.00    -0.381 OA
ATOM     30  C   UNL     1      -5.546 -13.091  -8.313  0.00  0.00    +0.194 C 
ENDBRANCH  28  29
ENDBRANCH  27  28
ENDBRANCH  25  27
ENDBRANCH  21  23
ENDBRANCH  11  21
BRANCH   1  31
ATOM     31  C   UNL     1       0.520  -1.258  -2.712  0.00  0.00    +0.103 C 
BRANCH  31  32
ATOM     32  C   UNL     1       0.549   0.225  -3.088  0.00  0.00    +0.018 C 
BRANCH  32  34
ATOM     33  C   UNL     1      -0.253   2.506  -2.457  0.00  0.00    +0.004 C 
ATOM     34  C   UNL     1      -0.281   1.023  -2.081  0.00  0.00    -0.002 C 
ENDBRANCH  32  34
ENDBRANCH  31  32
ENDBRANCH   1  31
TORSDOF 9
