REMARK  Name = ZINC59412053
REMARK  12 active torsions:
REMARK  status: ('A' for Active; 'I' for Inactive)
REMARK    1  A    between atoms: C_4  and  O_24
REMARK    2  A    between atoms: C_5  and  C_7
REMARK    3  A    between atoms: C_7  and  N_8
REMARK    4  A    between atoms: C_9  and  C_11
REMARK    5  A    between atoms: C_11  and  C_12
REMARK    6  A    between atoms: C_12  and  C_13
REMARK    7  A    between atoms: C_13  and  N_14
REMARK    8  A    between atoms: N_17  and  C_18
REMARK    9  A    between atoms: O_24  and  C_25
REMARK   10  A    between atoms: C_25  and  C_26
REMARK   11  A    between atoms: N_28  and  C_29
REMARK   12  A    between atoms: C_29  and  C_30
REMARK                            x       y       z     vdW  Elec       q    Type
REMARK                         _______ _______ _______ _____ _____    ______ ____
ROOT
ATOM      1  C   UNL     1       1.227  -2.187  -0.022  0.00  0.00    +0.143 C 
ENDROOT
BRANCH   1   6
ATOM      2  C   UNL     1      -0.017   1.378   0.010  0.00  0.00    +0.001 A 
ATOM      3  C   UNL     1       1.170   2.088   0.002  0.00  0.00    +0.004 A 
ATOM      4  C   UNL     1       2.377   1.417  -0.013  0.00  0.00    +0.046 A 
ATOM      5  C   UNL     1       2.399   0.030  -0.021  0.00  0.00    +0.126 A 
ATOM      6  C   UNL     1       1.207  -0.680  -0.013  0.00  0.00    +0.011 A 
ATOM      7  C   UNL     1       0.002  -0.004   0.002  0.00  0.00    +0.009 A 
BRANCH   5   8
ATOM      8  O   UNL     1       3.586  -0.632  -0.037  0.00  0.00    -0.482 OA
BRANCH   8   9
ATOM      9  C   UNL     1       4.772   0.164  -0.045  0.00  0.00    +0.324 C 
BRANCH   9  10
ATOM     10  C   UNL     1       5.981  -0.737  -0.062  0.00  0.00    +0.251 C 
ATOM     11  O   UNL     1       5.839  -1.941  -0.067  0.00  0.00    -0.272 OA
ATOM     12  N   UNL     1       7.218  -0.204  -0.072  0.00  0.00    -0.310 N 
ATOM     13  H   UNL     1       7.332   0.760  -0.068  0.00  0.00    +0.149 HD
BRANCH  12  14
ATOM     14  C   UNL     1       8.393  -1.079  -0.089  0.00  0.00    +0.135 C 
BRANCH  14  15
ATOM     15  C   UNL     1       9.664  -0.227  -0.097  0.00  0.00    +0.135 C 
ATOM     16  C   UNL     1      10.903  -1.137  -0.237  0.00  0.00    +0.035 C 
ATOM     17  C   UNL     1      11.921  -0.456   0.718  0.00  0.00    +0.031 C 
ATOM     18  C   UNL     1      10.977   0.069   1.829  0.00  0.00    +0.160 C 
ATOM     19  O   UNL     1       9.782   0.482   1.142  0.00  0.00    -0.375 OA
ENDBRANCH  14  15
ENDBRANCH  12  14
ENDBRANCH   9  10
ENDBRANCH   8   9
ENDBRANCH   5   8
ENDBRANCH   1   6
BRANCH   1  20
ATOM     20  N   UNL     1       1.487  -2.679   1.333  0.00  0.00    -0.311 N 
ATOM     21  C   UNL     1       1.549  -4.005   1.568  0.00  0.00    +0.213 C 
ATOM     22  O   UNL     1       1.391  -4.790   0.657  0.00  0.00    -0.276 OA
ATOM     23  H   UNL     1       1.614  -2.051   2.062  0.00  0.00    +0.149 HD
BRANCH  21  24
ATOM     24  C   UNL     1       1.817  -4.512   2.961  0.00  0.00    +0.097 C 
BRANCH  24  25
ATOM     25  C   UNL     1       1.837  -6.042   2.953  0.00  0.00    +0.028 C 
BRANCH  25  26
ATOM     26  C   UNL     1       2.108  -6.557   4.367  0.00  0.00    +0.106 C 
BRANCH  26  27
ATOM     27  N   UNL     1       2.127  -8.021   4.359  0.00  0.00    -0.299 N 
ATOM     28  C   UNL     1       2.350  -8.699   5.502  0.00  0.00    +0.300 C 
ATOM     29  O   UNL     1       2.536  -8.095   6.541  0.00  0.00    -0.253 OA
ATOM     30  N   UNL     1       2.368 -10.047   5.495  0.00  0.00    -0.297 N 
ATOM     31  H   UNL     1       1.980  -8.504   3.530  0.00  0.00    +0.150 HD
ATOM     32  H   UNL     1       2.220 -10.529   4.666  0.00  0.00    +0.151 HD
BRANCH  30  33
ATOM     33  C   UNL     1       2.611 -10.783   6.738  0.00  0.00    +0.074 C 
ATOM     34  C   UNL     1       4.118 -10.911   6.969  0.00  0.00    +0.022 C 
ATOM     35  C   UNL     1       4.371 -11.680   8.267  0.00  0.00    +0.002 C 
ATOM     36  C   UNL     1       3.751 -13.075   8.162  0.00  0.00    +0.000 C 
ATOM     37  C   UNL     1       2.244 -12.947   7.931  0.00  0.00    +0.002 C 
ATOM     38  C   UNL     1       1.991 -12.178   6.633  0.00  0.00    +0.022 C 
ENDBRANCH  30  33
ENDBRANCH  26  27
ENDBRANCH  25  26
ENDBRANCH  24  25
ENDBRANCH  21  24
ENDBRANCH   1  20
TORSDOF 12
