REMARK  Name = ZINC33744986
REMARK  11 active torsions:
REMARK  status: ('A' for Active; 'I' for Inactive)
REMARK    1  A    between atoms: C_1  and  C_2
REMARK    2  A    between atoms: C_2  and  C_3
REMARK    3  A    between atoms: C_3  and  C_4
REMARK    4  A    between atoms: C_4  and  N_5
REMARK    5  A    between atoms: C_6  and  C_36
REMARK    6  A    between atoms: C_7  and  C_32
REMARK    7  A    between atoms: C_8  and  C_13
REMARK    8  A    between atoms: C_16  and  N_19
REMARK    9  A    between atoms: C_20  and  C_22
REMARK   10  A    between atoms: C_32  and  O_34
REMARK   11  A    between atoms: O_34  and  C_35
REMARK                            x       y       z     vdW  Elec       q    Type
REMARK                         _______ _______ _______ _____ _____    ______ ____
ROOT
ATOM      1  C   UNL     1       1.400   1.362   0.851  0.00  0.00    -0.022 A 
ATOM      2  C   UNL     1       0.266   0.583   0.712  0.00  0.00    +0.007 A 
ATOM      3  C   UNL     1      -0.935   1.008   1.247  0.00  0.00    +0.023 A 
ATOM      4  C   UNL     1      -1.000   2.213   1.934  0.00  0.00    +0.034 A 
ATOM      5  C   UNL     1       0.141   2.993   2.071  0.00  0.00    +0.023 A 
ATOM      6  C   UNL     1       1.338   2.565   1.530  0.00  0.00    +0.007 A 
ENDROOT
BRANCH   1  10
ATOM      7  N   UNL     1       4.946   2.463  -0.173  0.00  0.00    -0.259 N 
ATOM      8  C   UNL     1       4.032   2.374  -1.185  0.00  0.00    +0.024 C 
ATOM      9  C   UNL     1       2.914   1.630  -1.050  0.00  0.00    +0.078 C 
ATOM     10  C   UNL     1       2.707   0.898   0.261  0.00  0.00    +0.143 C 
ATOM     11  N   UNL     1       3.751   1.060   1.287  0.00  0.00    -0.288 N 
ATOM     12  C   UNL     1       4.813   1.839   1.004  0.00  0.00    +0.307 C 
ATOM     13  O   UNL     1       5.680   1.980   1.844  0.00  0.00    -0.252 OA
ATOM     14  C   UNL     1       4.277   3.118  -2.472  0.00  0.00    +0.061 C 
ATOM     15  H   UNL     1       3.652   0.551   2.257  0.00  0.00    +0.151 HD
BRANCH   9  16
ATOM     16  C   UNL     1       1.966   1.537  -2.096  0.00  0.00    +0.339 C 
ATOM     17  O   UNL     1       2.093   2.223  -3.094  0.00  0.00    -0.245 OA
BRANCH  16  18
ATOM     18  O   UNL     1       0.923   0.688  -1.989  0.00  0.00    -0.465 OA
ATOM     19  C   UNL     1       0.005   0.646  -3.083  0.00  0.00    +0.280 C 
ENDBRANCH  16  18
ENDBRANCH   9  16
BRANCH   7  20
ATOM     20  C   UNL     1       6.137   3.289  -0.388  0.00  0.00    +0.115 C 
BRANCH  20  21
ATOM     21  C   UNL     1       5.810   4.749  -0.068  0.00  0.00    +0.019 C 
BRANCH  21  23
ATOM     22  C   UNL     1       6.727   7.071   0.027  0.00  0.00    +0.004 C 
ATOM     23  C   UNL     1       7.054   5.611  -0.293  0.00  0.00    -0.002 C 
ENDBRANCH  21  23
ENDBRANCH  20  21
ENDBRANCH   7  20
ENDBRANCH   1  10
BRANCH   4  24
ATOM     24  N   UNL     1      -2.213   2.643   2.481  0.00  0.00    -0.281 N 
ATOM     25  C   UNL     1      -3.088   1.743   2.971  0.00  0.00    +0.249 C 
ATOM     26  O   UNL     1      -2.784   0.567   3.026  0.00  0.00    -0.270 OA
ATOM     27  H   UNL     1      -2.452   3.716   2.512  0.00  0.00    +0.155 HD
BRANCH  25  28
ATOM     28  C   UNL     1      -4.414   2.184   3.441  0.00  0.00    +0.045 A 
ATOM     29  C   UNL     1      -4.821   3.498   3.260  0.00  0.00    +0.014 A 
ATOM     30  C   UNL     1      -6.071   3.918   3.696  0.00  0.00    +0.001 A 
ATOM     31  C   UNL     1      -6.925   3.060   4.321  0.00  0.00    +0.008 A 
ATOM     32  C   UNL     1      -6.553   1.721   4.530  0.00  0.00    -0.017 A 
ATOM     33  C   UNL     1      -5.285   1.272   4.088  0.00  0.00    -0.006 A 
ATOM     34  C   UNL     1      -4.915  -0.063   4.298  0.00  0.00    +0.009 A 
ATOM     35  C   UNL     1      -5.777  -0.912   4.924  0.00  0.00    +0.001 A 
ATOM     36  C   UNL     1      -7.025  -0.472   5.360  0.00  0.00    +0.001 A 
ATOM     37  C   UNL     1      -7.417   0.818   5.173  0.00  0.00    +0.008 A 
ENDBRANCH  25  28
ENDBRANCH   4  24
TORSDOF 8
