REMARK  Name = ZINC57530821
REMARK  15 active torsions:
REMARK  status: ('A' for Active; 'I' for Inactive)
REMARK    1  A    between atoms: C_1  and  C_2
REMARK    2  A    between atoms: C_2  and  O_3
REMARK    3  A    between atoms: O_3  and  C_4
REMARK    4  A    between atoms: C_7  and  C_10
REMARK    5  A    between atoms: C_10  and  N_11
REMARK    6  A    between atoms: N_11  and  C_12
REMARK    7  A    between atoms: N_11  and  C_18
REMARK    8  A    between atoms: C_12  and  C_13
REMARK    9  A    between atoms: C_18  and  C_20
REMARK   10  A    between atoms: C_18  and  C_33
REMARK   11  A    between atoms: C_25  and  C_32
REMARK   12  A    between atoms: N_37  and  C_38
REMARK   13  A    between atoms: C_38  and  C_39
REMARK   14  A    between atoms: C_38  and  C_40
REMARK   15  A    between atoms: C_38  and  C_41
REMARK                            x       y       z     vdW  Elec       q    Type
REMARK                         _______ _______ _______ _____ _____    ______ ____
ROOT
ATOM      1  C   UNL     1      -2.383  -7.873   1.501  0.00  0.00    +0.163 C 
ENDROOT
BRANCH   1   2
ATOM      2  C   UNL     1      -2.681  -8.281   2.920  0.00  0.00    +0.042 A 
ATOM      3  C   UNL     1      -2.050  -9.352   3.462  0.00  0.00    +0.021 A 
ATOM      4  C   UNL     1      -2.362  -9.722   4.844  0.00  0.00    -0.001 A 
ATOM      5  C   UNL     1      -1.742 -10.816   5.458  0.00  0.00    +0.010 A 
ATOM      6  C   UNL     1      -2.055 -11.135   6.748  0.00  0.00    +0.004 A 
ATOM      7  C   UNL     1      -2.983 -10.384   7.457  0.00  0.00    -0.048 A 
ATOM      8  C   UNL     1      -3.606  -9.303   6.872  0.00  0.00    +0.029 A 
ATOM      9  C   UNL     1      -3.303  -8.958   5.559  0.00  0.00    +0.049 A 
ATOM     10  N   UNL     1      -3.910  -7.881   4.950  0.00  0.00    -0.322 N 
ATOM     11  H   UNL     1      -4.559  -7.355   5.444  0.00  0.00    +0.169 HD
ATOM     12  C   UNL     1      -3.613  -7.545   3.683  0.00  0.00    +0.254 A 
ATOM     13  O   UNL     1      -4.166  -6.583   3.178  0.00  0.00    -0.268 OA
ATOM     14  C   UNL     1      -3.313 -10.756   8.880  0.00  0.00    +0.044 C 
ENDBRANCH   1   2
BRANCH   1  15
ATOM     15  C   UNL     1      -3.606  -8.090   0.648  0.00  0.00    +0.174 A 
ATOM     16  N   UNL     1      -4.739  -7.435   0.724  0.00  0.00    -0.111 NA
ATOM     17  N   UNL     1      -5.534  -7.911  -0.171  0.00  0.00    -0.023 NA
ATOM     18  N   UNL     1      -4.938  -8.852  -0.816  0.00  0.00    -0.043 NA
ATOM     19  N   UNL     1      -3.745  -8.989  -0.344  0.00  0.00    -0.222 N 
BRANCH  19  20
ATOM     20  C   UNL     1      -2.734  -9.946  -0.799  0.00  0.00    +0.059 C 
ATOM     21  C   UNL     1      -2.295 -10.822   0.377  0.00  0.00    +0.036 C 
ATOM     22  C   UNL     1      -3.326 -10.829  -1.899  0.00  0.00    +0.036 C 
ATOM     23  C   UNL     1      -1.524  -9.187  -1.349  0.00  0.00    +0.036 C 
ENDBRANCH  19  20
ENDBRANCH   1  15
BRANCH   1  24
ATOM     24  N   UNL     1      -2.008  -6.453   1.468  0.00  0.00    -0.277 NA
BRANCH  24  25
ATOM     25  C   UNL     1      -1.771  -6.002   0.091  0.00  0.00    +0.121 C 
BRANCH  25  29
ATOM     26  C   UNL     1      -2.028  -1.740  -0.079  0.00  0.00    +0.121 A 
ATOM     27  C   UNL     1      -0.813  -2.353   0.190  0.00  0.00    +0.046 A 
ATOM     28  C   UNL     1      -0.732  -3.731   0.245  0.00  0.00    +0.008 A 
ATOM     29  C   UNL     1      -1.862  -4.499   0.031  0.00  0.00    -0.033 A 
ATOM     30  C   UNL     1      -3.074  -3.891  -0.238  0.00  0.00    +0.008 A 
ATOM     31  C   UNL     1      -3.161  -2.513  -0.287  0.00  0.00    +0.046 A 
BRANCH  26  32
ATOM     32  O   UNL     1      -2.110  -0.385  -0.133  0.00  0.00    -0.492 OA
BRANCH  32  34
ATOM     33  C   UNL     1      -1.191   1.847  -0.008  0.00  0.00    +0.048 C 
ATOM     34  C   UNL     1      -0.903   0.348   0.092  0.00  0.00    +0.225 C 
ENDBRANCH  32  34
ENDBRANCH  26  32
ENDBRANCH  25  29
ENDBRANCH  24  25
BRANCH  24  35
ATOM     35  C   UNL     1      -0.835  -6.198   2.315  0.00  0.00    +0.160 C 
BRANCH  35  36
ATOM     36  C   UNL     1       0.325  -7.028   1.828  0.00  0.00    +0.119 A 
ATOM     37  C   UNL     1       1.249  -6.639   0.931  0.00  0.00    +0.046 A 
ATOM     38  C   UNL     1       2.144  -7.721   0.769  0.00  0.00    +0.041 A 
ATOM     39  C   UNL     1       1.714  -8.707   1.577  0.00  0.00    +0.195 A 
ATOM     40  O   UNL     1       0.616  -8.279   2.220  0.00  0.00    -0.467 OA
ENDBRANCH  35  36
ENDBRANCH  24  35
ENDBRANCH   1  24
TORSDOF 10
