REMARK  Name = ZINC01454968
REMARK  8 active torsions:
REMARK  status: ('A' for Active; 'I' for Inactive)
REMARK    1  A    between atoms: C_1  and  C_2
REMARK    2  A    between atoms: C_5  and  C_8
REMARK    3  A    between atoms: C_8  and  C_10
REMARK    4  A    between atoms: C_12  and  C_24
REMARK    5  A    between atoms: C_18  and  C_19
REMARK    6  A    between atoms: C_18  and  O_23
REMARK    7  A    between atoms: N_26  and  C_35
REMARK    8  A    between atoms: C_28  and  C_29
REMARK                            x       y       z     vdW  Elec       q    Type
REMARK                         _______ _______ _______ _____ _____    ______ ____
ROOT
ATOM      1  C   UNL     1      -0.061  -4.459  -0.397  0.00  0.00    +0.144 C 
ATOM      2  C   UNL     1      -0.478  -5.855  -0.871  0.00  0.00    +0.124 C 
ATOM      3  N   UNL     1      -0.222  -5.971  -2.307  0.00  0.00    -0.292 N 
ATOM      4  C   UNL     1       0.763  -5.278  -2.899  0.00  0.00    +0.302 C 
ATOM      5  O   UNL     1       0.940  -5.419  -4.093  0.00  0.00    -0.253 OA
ATOM      6  N   UNL     1       1.559  -4.435  -2.225  0.00  0.00    -0.264 N 
ATOM      7  C   UNL     1       1.404  -4.230  -0.783  0.00  0.00    +0.243 C 
ATOM      8  H   UNL     1      -0.775  -6.562  -2.842  0.00  0.00    +0.151 HD
ATOM      9  H   UNL     1       2.251  -3.951  -2.702  0.00  0.00    +0.153 HD
ENDROOT
BRANCH   2  10
ATOM     10  C   UNL     1      -1.947  -6.060  -0.603  0.00  0.00    +0.019 A 
ATOM     11  C   UNL     1      -2.962  -5.671  -1.404  0.00  0.00    +0.120 A 
ATOM     12  N   UNL     1      -4.127  -6.042  -0.811  0.00  0.00    -0.239 N 
ATOM     13  N   UNL     1      -3.814  -6.673   0.400  0.00  0.00    -0.166 NA
ATOM     14  C   UNL     1      -2.504  -6.686   0.529  0.00  0.00    +0.098 A 
BRANCH  14  15
ATOM     15  C   UNL     1      -1.746  -7.259   1.669  0.00  0.00    +0.002 A 
ATOM     16  C   UNL     1      -0.608  -8.029   1.436  0.00  0.00    +0.010 A 
ATOM     17  C   UNL     1       0.096  -8.555   2.500  0.00  0.00    +0.001 A 
ATOM     18  C   UNL     1      -0.333  -8.329   3.796  0.00  0.00    +0.000 A 
ATOM     19  C   UNL     1      -1.465  -7.570   4.033  0.00  0.00    +0.001 A 
ATOM     20  C   UNL     1      -2.173  -7.034   2.976  0.00  0.00    +0.010 A 
ENDBRANCH  14  15
BRANCH  12  21
ATOM     21  C   UNL     1      -5.415  -5.827  -1.319  0.00  0.00    +0.065 A 
ATOM     22  C   UNL     1      -5.584  -5.180  -2.535  0.00  0.00    +0.028 A 
ATOM     23  C   UNL     1      -6.855  -4.974  -3.036  0.00  0.00    +0.002 A 
ATOM     24  C   UNL     1      -7.958  -5.402  -2.321  0.00  0.00    +0.000 A 
ATOM     25  C   UNL     1      -7.793  -6.042  -1.106  0.00  0.00    +0.002 A 
ATOM     26  C   UNL     1      -6.525  -6.256  -0.603  0.00  0.00    +0.028 A 
ENDBRANCH  12  21
ENDBRANCH   2  10
BRANCH   7  27
ATOM     27  C   UNL     1       1.811  -2.800  -0.422  0.00  0.00    +0.436 C 
ATOM     28  F   UNL     1       1.656  -2.604   0.954  0.00  0.00    -0.166 F 
ATOM     29  F   UNL     1       3.149  -2.592  -0.775  0.00  0.00    -0.166 F 
ATOM     30  F   UNL     1       1.000  -1.895  -1.116  0.00  0.00    -0.166 F 
ENDBRANCH   7  27
BRANCH   1  31
ATOM     31  C   UNL     1      -0.210  -4.366   1.099  0.00  0.00    +0.173 C 
ATOM     32  O   UNL     1       0.188  -5.268   1.805  0.00  0.00    -0.292 OA
BRANCH  31  37
ATOM     33  C   UNL     1      -2.671   0.261   3.463  0.00  0.00    +0.044 C 
ATOM     34  C   UNL     1      -2.025  -0.952   2.843  0.00  0.00    -0.050 A 
ATOM     35  C   UNL     1      -1.895  -1.035   1.468  0.00  0.00    +0.004 A 
ATOM     36  C   UNL     1      -1.300  -2.139   0.894  0.00  0.00    +0.011 A 
ATOM     37  C   UNL     1      -0.839  -3.181   1.704  0.00  0.00    +0.018 A 
ATOM     38  C   UNL     1      -0.980  -3.092   3.093  0.00  0.00    +0.011 A 
ATOM     39  C   UNL     1      -1.571  -1.979   3.652  0.00  0.00    +0.004 A 
ENDBRANCH  31  37
ENDBRANCH   1  31
BRANCH   7  40
ATOM     40  O   UNL     1       2.234  -5.155  -0.078  0.00  0.00    -0.364 OA
ATOM     41  H   UNL     1       3.177  -5.067  -0.275  0.00  0.00    +0.212 HD
ENDBRANCH   7  40
TORSDOF 7
