REMARK  Name = ZINC39694835
REMARK  9 active torsions:
REMARK  status: ('A' for Active; 'I' for Inactive)
REMARK    1  A    between atoms: C_1  and  C_2
REMARK    2  A    between atoms: C_4  and  C_37
REMARK    3  A    between atoms: C_6  and  C_8
REMARK    4  A    between atoms: C_8  and  N_9
REMARK    5  A    between atoms: C_10  and  C_12
REMARK    6  A    between atoms: C_23  and  C_25
REMARK    7  A    between atoms: C_28  and  O_35
REMARK    8  A    between atoms: C_29  and  C_31
REMARK    9  A    between atoms: O_35  and  C_36
REMARK                            x       y       z     vdW  Elec       q    Type
REMARK                         _______ _______ _______ _____ _____    ______ ____
ROOT
ATOM      1  C   UNL     1       3.811  -3.964   4.433  0.00  0.00    +0.100 C 
ATOM      2  C   UNL     1       4.227  -2.486   4.599  0.00  0.00    +0.121 C 
ATOM      3  N   UNL     1       4.037  -2.204   6.042  0.00  0.00    -0.296 N 
ATOM      4  C   UNL     1       4.500  -3.437   6.722  0.00  0.00    +0.115 C 
ATOM      5  C   UNL     1       3.995  -4.586   5.827  0.00  0.00    -0.004 C 
ATOM      6  C   UNL     1       2.662  -5.114   6.351  0.00  0.00    -0.010 C 
ATOM      7  C   UNL     1       2.881  -5.777   7.713  0.00  0.00    -0.082 C 
ATOM      8  N   UNL     1       3.846  -6.875   7.575  0.00  0.00    +0.379 N 
ATOM      9  C   UNL     1       5.151  -6.347   7.160  0.00  0.00    -0.082 C 
ATOM     10  C   UNL     1       5.028  -5.707   5.774  0.00  0.00    -0.010 C 
ATOM     11  C   UNL     1       3.554  -1.080   6.607  0.00  0.00    +0.247 C 
ATOM     12  O   UNL     1       3.095  -0.197   5.909  0.00  0.00    -0.270 OA
ATOM     13  H   UNL     1       3.943  -7.350   8.460  0.00  0.00    -0.086 HD
ATOM     14  H   UNL     1       3.513  -7.528   6.882  0.00  0.00    -0.086 HD
ENDROOT
BRANCH  11  15
ATOM     15  C   UNL     1       3.581  -0.921   8.074  0.00  0.00    +0.038 A 
ATOM     16  C   UNL     1       4.466  -1.680   8.845  0.00  0.00    +0.016 A 
ATOM     17  C   UNL     1       4.488  -1.529  10.213  0.00  0.00    +0.047 A 
ATOM     18  C   UNL     1       3.632  -0.623  10.829  0.00  0.00    +0.132 A 
ATOM     19  C   UNL     1       2.751   0.134  10.066  0.00  0.00    +0.097 A 
ATOM     20  C   UNL     1       2.726  -0.008   8.696  0.00  0.00    +0.029 A 
BRANCH  19  21
ATOM     21  C   UNL     1       1.824   1.114  10.738  0.00  0.00    +0.421 C 
ATOM     22  F   UNL     1       1.039   1.752   9.772  0.00  0.00    -0.166 F 
ATOM     23  F   UNL     1       0.996   0.432  11.636  0.00  0.00    -0.166 F 
ATOM     24  F   UNL     1       2.578   2.068  11.430  0.00  0.00    -0.166 F 
ENDBRANCH  19  21
BRANCH  18  25
ATOM     25  O   UNL     1       3.657  -0.477  12.178  0.00  0.00    -0.495 OA
ATOM     26  C   UNL     1       4.587  -1.286  12.900  0.00  0.00    +0.277 C 
ENDBRANCH  18  25
ENDBRANCH  11  15
BRANCH   1  28
ATOM     27  N   UNL     1       1.931  -5.154   3.351  0.00  0.00    -0.311 N 
ATOM     28  C   UNL     1       2.370  -4.059   4.002  0.00  0.00    +0.218 C 
ATOM     29  O   UNL     1       1.604  -3.149   4.242  0.00  0.00    -0.275 OA
ATOM     30  H   UNL     1       2.544  -5.882   3.159  0.00  0.00    +0.149 HD
BRANCH  27  31
ATOM     31  C   UNL     1       0.530  -5.246   2.932  0.00  0.00    +0.139 C 
BRANCH  31  37
ATOM     32  C   UNL     1       0.451  -7.956  -1.275  0.00  0.00    +0.044 C 
ATOM     33  C   UNL     1       0.262  -7.856   0.217  0.00  0.00    -0.050 A 
ATOM     34  C   UNL     1      -0.121  -8.969   0.942  0.00  0.00    +0.006 A 
ATOM     35  C   UNL     1      -0.294  -8.877   2.310  0.00  0.00    -0.050 A 
ATOM     36  C   UNL     1      -0.083  -7.673   2.954  0.00  0.00    +0.008 A 
ATOM     37  C   UNL     1       0.301  -6.560   2.230  0.00  0.00    -0.030 A 
ATOM     38  C   UNL     1       0.478  -6.652   0.862  0.00  0.00    +0.008 A 
ATOM     39  C   UNL     1      -0.713 -10.091   3.099  0.00  0.00    +0.044 C 
ENDBRANCH  31  37
ENDBRANCH  27  31
ENDBRANCH   1  28
TORSDOF 6
