REMARK  Name = ZINC03667568
REMARK  11 active torsions:
REMARK  status: ('A' for Active; 'I' for Inactive)
REMARK    1  A    between atoms: C_1  and  C_2
REMARK    2  A    between atoms: C_2  and  C_39
REMARK    3  A    between atoms: C_6  and  C_28
REMARK    4  A    between atoms: C_8  and  C_26
REMARK    5  A    between atoms: C_9  and  N_25
REMARK    6  A    between atoms: N_10  and  C_11
REMARK    7  A    between atoms: C_12  and  C_21
REMARK    8  A    between atoms: C_21  and  O_23
REMARK    9  A    between atoms: O_23  and  C_24
REMARK   10  A    between atoms: C_31  and  O_34
REMARK   11  A    between atoms: O_34  and  C_35
REMARK                            x       y       z     vdW  Elec       q    Type
REMARK                         _______ _______ _______ _____ _____    ______ ____
ROOT
ATOM      1  C   UNL     1       3.937   0.153  -2.769  0.00  0.00    +0.011 C 
ATOM      2  C   UNL     1       4.629  -0.070  -1.423  0.00  0.00    -0.023 C 
ATOM      3  C   UNL     1       3.692  -0.831  -0.483  0.00  0.00    +0.058 C 
ATOM      4  C   UNL     1       2.445  -0.016  -0.242  0.00  0.00    +0.025 C 
ATOM      5  C   UNL     1       2.484   1.333  -0.251  0.00  0.00    +0.025 C 
ATOM      6  C   UNL     1       1.242   2.146   0.010  0.00  0.00    +0.097 C 
ATOM      7  C   UNL     1       0.004   1.319  -0.173  0.00  0.00    +0.077 C 
ATOM      8  C   UNL     1       0.059  -0.038  -0.173  0.00  0.00    +0.107 C 
ATOM      9  N   UNL     1       1.268  -0.680  -0.011  0.00  0.00    -0.254 N 
ATOM     10  C   UNL     1       3.684   2.021  -0.505  0.00  0.00    +0.162 C 
ATOM     11  O   UNL     1       3.687   3.236  -0.497  0.00  0.00    -0.292 OA
ATOM     12  C   UNL     1       4.964   1.282  -0.785  0.00  0.00    +0.086 C 
ATOM     13  C   UNL     1       5.916  -0.872  -1.633  0.00  0.00    +0.011 C 
ENDROOT
BRANCH   9  14
ATOM     14  C   UNL     1       1.293  -2.007   0.391  0.00  0.00    +0.092 A 
ATOM     15  C   UNL     1       1.208  -3.147  -0.394  0.00  0.00    +0.091 A 
ATOM     16  C   UNL     1       1.268  -4.438   0.278  0.00  0.00    -0.021 A 
ATOM     17  C   UNL     1       1.384  -4.376   1.622  0.00  0.00    -0.004 A 
ATOM     18  S   UNL     1       1.431  -2.644   1.996  0.00  0.00    -0.077 S 
ATOM     19  C   UNL     1       1.444  -5.516   2.589  0.00  0.00    +0.043 C 
ATOM     20  C   UNL     1       2.475  -6.542   2.100  0.00  0.00    +0.005 C 
ATOM     21  C   UNL     1       1.766  -7.542   1.191  0.00  0.00    +0.001 C 
ATOM     22  C   UNL     1       0.641  -6.850   0.425  0.00  0.00    +0.005 C 
ATOM     23  C   UNL     1       1.204  -5.759  -0.479  0.00  0.00    +0.037 C 
BRANCH  15  24
ATOM     24  C   UNL     1       1.067  -3.056  -1.849  0.00  0.00    +0.342 C 
ATOM     25  O   UNL     1       2.054  -3.095  -2.559  0.00  0.00    -0.245 OA
BRANCH  24  26
ATOM     26  O   UNL     1      -0.157  -2.930  -2.402  0.00  0.00    -0.464 OA
ATOM     27  C   UNL     1      -0.221  -2.845  -3.850  0.00  0.00    +0.280 C 
ENDBRANCH  24  26
ENDBRANCH  15  24
ENDBRANCH   9  14
BRANCH   6  28
ATOM     28  C   UNL     1       1.281   2.670   1.423  0.00  0.00    -0.034 A 
ATOM     29  C   UNL     1       1.296   1.786   2.486  0.00  0.00    +0.008 A 
ATOM     30  C   UNL     1       1.338   2.263   3.781  0.00  0.00    +0.046 A 
ATOM     31  C   UNL     1       1.353   3.631   4.016  0.00  0.00    +0.120 A 
ATOM     32  C   UNL     1       1.331   4.515   2.947  0.00  0.00    +0.046 A 
ATOM     33  C   UNL     1       1.296   4.033   1.653  0.00  0.00    +0.008 A 
BRANCH  31  34
ATOM     34  O   UNL     1       1.387   4.103   5.289  0.00  0.00    -0.495 OA
ATOM     35  C   UNL     1       1.407   3.135   6.340  0.00  0.00    +0.277 C 
ENDBRANCH  31  34
ENDBRANCH   6  28
BRANCH   8  36
ATOM     36  N   UNL     1      -1.091  -0.772  -0.335  0.00  0.00    -0.345 N 
ATOM     37  H   UNL     1      -1.951  -0.324  -0.372  0.00  0.00    +0.144 HD
ATOM     38  H   UNL     1      -1.044  -1.738  -0.413  0.00  0.00    +0.144 HD
ENDBRANCH   8  36
BRANCH   7  39
ATOM     39  C   UNL     1      -1.258   1.971  -0.358  0.00  0.00    +0.099 C 
ATOM     40  N   UNL     1      -2.259   2.489  -0.504  0.00  0.00    -0.191 NA
ENDBRANCH   7  39
TORSDOF 7
