REMARK  Name = ZINC39915953
REMARK  10 active torsions:
REMARK  status: ('A' for Active; 'I' for Inactive)
REMARK    1  A    between atoms: C_5  and  C_7
REMARK    2  A    between atoms: C_10  and  C_12
REMARK    3  A    between atoms: C_12  and  N_13
REMARK    4  A    between atoms: C_21  and  S_22
REMARK    5  A    between atoms: S_22  and  C_23
REMARK    6  A    between atoms: C_25  and  O_38
REMARK    7  A    between atoms: C_27  and  O_37
REMARK    8  A    between atoms: C_29  and  O_36
REMARK    9  A    between atoms: C_31  and  C_34
REMARK   10  A    between atoms: C_34  and  O_35
REMARK                            x       y       z     vdW  Elec       q    Type
REMARK                         _______ _______ _______ _____ _____    ______ ____
ROOT
ATOM      1  N   UNL     1      -0.377  -6.253   1.437  0.00  0.00    -0.309 N 
ATOM      2  C   UNL     1       0.365  -7.100   2.244  0.00  0.00    +0.070 A 
ATOM      3  C   UNL     1       1.529  -7.830   2.058  0.00  0.00    +0.028 A 
ATOM      4  C   UNL     1       2.029  -8.600   3.087  0.00  0.00    +0.002 A 
ATOM      5  C   UNL     1       1.374  -8.651   4.309  0.00  0.00    +0.002 A 
ATOM      6  C   UNL     1       0.217  -7.933   4.511  0.00  0.00    +0.030 A 
ATOM      7  C   UNL     1      -0.302  -7.146   3.479  0.00  0.00    +0.090 A 
ATOM      8  N   UNL     1      -1.394  -6.346   3.375  0.00  0.00    -0.222 NA
ATOM      9  C   UNL     1      -1.438  -5.814   2.178  0.00  0.00    +0.173 A 
ENDROOT
BRANCH   1  10
ATOM     10  C   UNL     1      -0.076  -5.889   0.050  0.00  0.00    +0.222 C 
BRANCH  10  14
ATOM     11  C   UNL     1       1.487  -2.621  -0.012  0.00  0.00    +0.250 A 
ATOM     12  N   UNL     1       2.519  -3.430   0.021  0.00  0.00    -0.107 NA
ATOM     13  N   UNL     1       2.103  -4.647   0.046  0.00  0.00    -0.110 NA
ATOM     14  C   UNL     1       0.800  -4.663   0.031  0.00  0.00    +0.237 A 
ATOM     15  O   UNL     1       0.378  -3.387  -0.000  0.00  0.00    -0.418 OA
BRANCH  11  20
ATOM     16  C   UNL     1       0.395   0.971  -0.109  0.00  0.00    +0.001 A 
ATOM     17  C   UNL     1       1.615   1.624  -0.117  0.00  0.00    +0.001 A 
ATOM     18  C   UNL     1       2.794   0.901  -0.091  0.00  0.00    +0.021 A 
ATOM     19  C   UNL     1       2.760  -0.479  -0.056  0.00  0.00    +0.053 A 
ATOM     20  C   UNL     1       1.532  -1.143  -0.048  0.00  0.00    +0.057 A 
ATOM     21  C   UNL     1       0.347  -0.407  -0.074  0.00  0.00    +0.015 A 
ATOM     22 CL   UNL     1       4.240  -1.385  -0.024  0.00  0.00    -0.083 Cl
ENDBRANCH  11  20
ENDBRANCH  10  14
ENDBRANCH   1  10
BRANCH   9  23
ATOM     23  S   UNL     1      -2.682  -4.705   1.607  0.00  0.00    -0.054 S 
BRANCH  23  24
ATOM     24  C   UNL     1      -3.790  -4.517   3.031  0.00  0.00    +0.214 C 
ATOM     25  C   UNL     1      -4.861  -3.472   2.710  0.00  0.00    +0.185 C 
ATOM     26  C   UNL     1      -5.827  -3.362   3.894  0.00  0.00    +0.177 C 
ATOM     27  C   UNL     1      -6.429  -4.743   4.176  0.00  0.00    +0.176 C 
ATOM     28  C   UNL     1      -5.297  -5.739   4.440  0.00  0.00    +0.176 C 
ATOM     29  O   UNL     1      -4.418  -5.769   3.314  0.00  0.00    -0.355 OA
BRANCH  27  30
ATOM     30  O   UNL     1      -7.278  -4.668   5.323  0.00  0.00    -0.386 OA
ATOM     31  H   UNL     1      -8.015  -4.050   5.227  0.00  0.00    +0.210 HD
ENDBRANCH  27  30
BRANCH  26  32
ATOM     32  O   UNL     1      -5.121  -2.902   5.047  0.00  0.00    -0.386 OA
ATOM     33  H   UNL     1      -4.708  -2.034   4.935  0.00  0.00    +0.210 HD
ENDBRANCH  26  32
BRANCH  25  34
ATOM     34  O   UNL     1      -4.239  -2.205   2.482  0.00  0.00    -0.386 OA
ATOM     35  H   UNL     1      -3.610  -2.203   1.748  0.00  0.00    +0.210 HD
ENDBRANCH  25  34
BRANCH  28  36
ATOM     36  C   UNL     1      -4.518  -5.309   5.685  0.00  0.00    +0.190 C 
BRANCH  36  37
ATOM     37  O   UNL     1      -3.562  -6.316   6.020  0.00  0.00    -0.392 OA
ATOM     38  H   UNL     1      -3.030  -6.110   6.801  0.00  0.00    +0.210 HD
ENDBRANCH  36  37
ENDBRANCH  28  36
ENDBRANCH  23  24
ENDBRANCH   9  23
TORSDOF 10
