REMARK  Name = ZINC09505340
REMARK  10 active torsions:
REMARK  status: ('A' for Active; 'I' for Inactive)
REMARK    1  A    between atoms: C_1  and  C_2
REMARK    2  A    between atoms: C_2  and  O_3
REMARK    3  A    between atoms: O_3  and  C_4
REMARK    4  A    between atoms: C_4  and  C_6
REMARK    5  A    between atoms: C_7  and  C_32
REMARK    6  A    between atoms: C_8  and  C_29
REMARK    7  A    between atoms: C_9  and  N_11
REMARK    8  A    between atoms: C_12  and  C_14
REMARK    9  A    between atoms: N_17  and  S_20
REMARK   10  A    between atoms: S_20  and  C_23
REMARK                            x       y       z     vdW  Elec       q    Type
REMARK                         _______ _______ _______ _____ _____    ______ ____
ROOT
ATOM      1  N   UNL     1       4.411   0.089   2.277  0.00  0.00    -0.279 N 
ATOM      2  C   UNL     1       3.140  -0.347   2.169  0.00  0.00    +0.221 C 
ATOM      3  O   UNL     1       2.703  -1.145   2.971  0.00  0.00    -0.275 OA
ATOM      4  H   UNL     1       4.760   0.728   1.636  0.00  0.00    +0.155 HD
ENDROOT
BRANCH   1   8
ATOM      5  C   UNL     1       6.389  -1.522   5.409  0.00  0.00    +0.102 A 
ATOM      6  C   UNL     1       7.144  -0.645   4.675  0.00  0.00    -0.015 A 
ATOM      7  C   UNL     1       6.547  -0.047   3.576  0.00  0.00    +0.069 A 
ATOM      8  C   UNL     1       5.215  -0.372   3.301  0.00  0.00    +0.085 A 
ATOM      9  S   UNL     1       4.824  -1.502   4.556  0.00  0.00    -0.066 S 
ATOM     10  C   UNL     1       8.574  -0.347   5.045  0.00  0.00    +0.046 C 
BRANCH   7  11
ATOM     11  C   UNL     1       7.288   0.900   2.732  0.00  0.00    +0.244 C 
ATOM     12  O   UNL     1       7.274   2.088   2.994  0.00  0.00    -0.270 OA
ATOM     13  N   UNL     1       7.982   0.452   1.667  0.00  0.00    -0.325 N 
ATOM     14  H   UNL     1       7.993  -0.495   1.458  0.00  0.00    +0.145 HD
ATOM     15  H   UNL     1       8.472   1.078   1.110  0.00  0.00    +0.145 HD
ENDBRANCH   7  11
BRANCH   5  16
ATOM     16  C   UNL     1       6.773  -2.284   6.597  0.00  0.00    +0.346 C 
ATOM     17  O   UNL     1       7.896  -2.176   7.052  0.00  0.00    -0.244 OA
BRANCH  16  18
ATOM     18  O   UNL     1       5.881  -3.105   7.188  0.00  0.00    -0.461 OA
BRANCH  18  20
ATOM     19  C   UNL     1       5.183  -4.692   8.872  0.00  0.00    +0.048 C 
ATOM     20  C   UNL     1       6.323  -3.818   8.345  0.00  0.00    +0.229 C 
ENDBRANCH  18  20
ENDBRANCH  16  18
ENDBRANCH   5  16
ENDBRANCH   1   8
BRANCH   2  21
ATOM     21  C   UNL     1       2.263   0.156   1.052  0.00  0.00    +0.078 C 
ATOM     22  C   UNL     1       0.880  -0.492   1.159  0.00  0.00    +0.030 C 
ATOM     23  C   UNL     1       0.002  -0.004   0.002  0.00  0.00    +0.110 C 
ATOM     24  N   UNL     1      -0.018   1.465   0.010  0.00  0.00    -0.176 NA
ATOM     25  C   UNL     1       1.261   2.189   0.002  0.00  0.00    +0.110 C 
ATOM     26  C   UNL     1       2.125   1.677   1.158  0.00  0.00    +0.030 C 
BRANCH  24  27
ATOM     27  S   UNL     1      -1.454   2.289   0.021  0.00  0.00    +0.067 S 
ATOM     28  O   UNL     1      -1.189   3.575  -0.524  0.00  0.00    -0.152 OA
ATOM     29  O   UNL     1      -2.429   1.414  -0.530  0.00  0.00    -0.152 OA
BRANCH  27  30
ATOM     30  C   UNL     1      -1.898   2.539   1.708  0.00  0.00    +0.144 A 
ATOM     31  C   UNL     1      -1.589   3.574   2.527  0.00  0.00    +0.038 A 
ATOM     32  C   UNL     1      -2.052   3.559   3.830  0.00  0.00    +0.030 A 
ATOM     33  C   UNL     1      -2.802   2.509   4.249  0.00  0.00    +0.080 A 
ATOM     34  S   UNL     1      -2.878   1.500   2.779  0.00  0.00    -0.057 S 
ATOM     35 CL   UNL     1      -3.510   2.225   5.808  0.00  0.00    -0.076 Cl
ENDBRANCH  27  30
ENDBRANCH  24  27
ENDBRANCH   2  21
TORSDOF 8
