REMARK  Name = ZINC12373537
REMARK  12 active torsions:
REMARK  status: ('A' for Active; 'I' for Inactive)
REMARK    1  A    between atoms: C_1  and  C_2
REMARK    2  A    between atoms: C_2  and  C_3
REMARK    3  A    between atoms: C_2  and  C_4
REMARK    4  A    between atoms: C_4  and  C_5
REMARK    5  A    between atoms: C_5  and  C_7
REMARK    6  A    between atoms: C_5  and  N_56
REMARK    7  A    between atoms: C_10  and  C_11
REMARK    8  A    between atoms: C_10  and  N_56
REMARK    9  A    between atoms: N_13  and  C_23
REMARK   10  A    between atoms: C_15  and  C_16
REMARK   11  A    between atoms: C_26  and  O_29
REMARK   12  A    between atoms: O_29  and  C_30
REMARK                            x       y       z     vdW  Elec       q    Type
REMARK                         _______ _______ _______ _____ _____    ______ ____
ROOT
ATOM      1  C   UNL     1       1.561  -0.340  -0.243  0.00  0.00    -0.019 A 
ATOM      2  C   UNL     1       2.465   0.648  -0.066  0.00  0.00    +0.116 A 
ATOM      3  N   UNL     1       1.784   1.814   0.083  0.00  0.00    -0.239 N 
ATOM      4  N   UNL     1       0.415   1.530  -0.007  0.00  0.00    -0.166 NA
ATOM      5  C   UNL     1       0.276   0.236  -0.203  0.00  0.00    +0.096 A 
ENDROOT
BRANCH   5   6
ATOM      6  C   UNL     1      -1.009  -0.490  -0.354  0.00  0.00    +0.021 A 
ATOM      7  C   UNL     1      -1.242  -1.659   0.368  0.00  0.00    +0.011 A 
ATOM      8  C   UNL     1      -2.439  -2.330   0.224  0.00  0.00    +0.001 A 
ATOM      9  C   UNL     1      -3.408  -1.844  -0.636  0.00  0.00    +0.001 A 
ATOM     10  C   UNL     1      -3.184  -0.685  -1.356  0.00  0.00    +0.020 A 
ATOM     11  C   UNL     1      -1.992  -0.002  -1.215  0.00  0.00    +0.050 A 
ATOM     12 CL   UNL     1      -1.714   1.458  -2.113  0.00  0.00    -0.083 Cl
ENDBRANCH   5   6
BRANCH   3  13
ATOM     13  C   UNL     1       2.351   3.079   0.289  0.00  0.00    +0.066 A 
ATOM     14  C   UNL     1       3.731   3.218   0.363  0.00  0.00    +0.031 A 
ATOM     15  C   UNL     1       4.289   4.465   0.561  0.00  0.00    +0.048 A 
ATOM     16  C   UNL     1       3.472   5.578   0.698  0.00  0.00    +0.120 A 
ATOM     17  C   UNL     1       2.093   5.439   0.629  0.00  0.00    +0.048 A 
ATOM     18  C   UNL     1       1.534   4.193   0.426  0.00  0.00    +0.031 A 
BRANCH  16  19
ATOM     19  O   UNL     1       4.022   6.804   0.899  0.00  0.00    -0.495 OA
ATOM     20  C   UNL     1       5.448   6.874   0.959  0.00  0.00    +0.277 C 
ENDBRANCH  16  19
ENDBRANCH   3  13
BRANCH   1  21
ATOM     21  C   UNL     1       1.872  -1.800  -0.449  0.00  0.00    -0.042 C 
BRANCH  21  22
ATOM     22  N   UNL     1       1.688  -2.138  -1.873  0.00  0.00    +0.389 N 
ATOM     23  H   UNL     1       0.711  -1.968  -2.138  0.00  0.00    -0.084 HD
ATOM     24  H   UNL     1       2.305  -1.548  -2.444  0.00  0.00    -0.084 HD
BRANCH  22  25
ATOM     25  C   UNL     1       2.016  -3.557  -2.110  0.00  0.00    +0.016 C 
BRANCH  25  26
ATOM     26  C   UNL     1       3.495  -3.696  -2.361  0.00  0.00    +0.196 C 
ATOM     27  O   UNL     1       4.209  -2.715  -2.340  0.00  0.00    -0.278 OA
ATOM     28  N   UNL     1       4.025  -4.910  -2.611  0.00  0.00    -0.331 N 
ATOM     29  H   UNL     1       3.454  -5.694  -2.628  0.00  0.00    +0.145 HD
ATOM     30  H   UNL     1       4.977  -4.999  -2.773  0.00  0.00    +0.145 HD
ENDBRANCH  25  26
BRANCH  25  31
ATOM     31  C   UNL     1       1.242  -4.054  -3.332  0.00  0.00    -0.004 C 
BRANCH  31  33
ATOM     32  C   UNL     1      -1.038  -4.408  -4.290  0.00  0.00    +0.007 C 
ATOM     33  C   UNL     1      -0.258  -4.030  -3.030  0.00  0.00    -0.018 C 
ATOM     34  C   UNL     1      -0.571  -5.032  -1.917  0.00  0.00    +0.007 C 
ENDBRANCH  31  33
ENDBRANCH  25  31
ENDBRANCH  22  25
ENDBRANCH  21  22
ENDBRANCH   1  21
TORSDOF 9
