REMARK  Name = ZINC38976218
REMARK  5 active torsions:
REMARK  status: ('A' for Active; 'I' for Inactive)
REMARK    1  A    between atoms: C_1  and  C_2
REMARK    2  A    between atoms: C_6  and  S_8
REMARK    3  A    between atoms: S_8  and  N_11
REMARK    4  A    between atoms: C_13  and  N_23
REMARK    5  A    between atoms: N_23  and  C_24
REMARK                            x       y       z     vdW  Elec       q    Type
REMARK                         _______ _______ _______ _____ _____    ______ ____
ROOT
ATOM      1  N   UNL     1       1.671  -2.771   3.015  0.00  0.00    -0.110 NA
ATOM      2  C   UNL     1       1.889  -3.586   4.005  0.00  0.00    +0.192 C 
ATOM      3  C   UNL     1       3.301  -3.961   4.394  0.00  0.00    +0.237 C 
ATOM      4  N   UNL     1       3.480  -4.887   5.523  0.00  0.00    -0.359 N 
ATOM      5  C   UNL     1       2.419  -5.338   6.132  0.00  0.00    +0.063 A 
ATOM      6  C   UNL     1       2.543  -6.266   7.266  0.00  0.00    +0.027 A 
ATOM      7  C   UNL     1       1.421  -6.712   7.871  0.00  0.00    +0.002 A 
ATOM      8  C   UNL     1       0.143  -6.313   7.445  0.00  0.00    +0.002 A 
ATOM      9  C   UNL     1      -0.050  -5.464   6.412  0.00  0.00    +0.030 A 
ATOM     10  C   UNL     1       1.058  -4.933   5.703  0.00  0.00    +0.089 A 
ATOM     11  N   UNL     1       0.863  -4.103   4.700  0.00  0.00    -0.226 NA
ATOM     12  H   UNL     1       4.367  -5.156   5.808  0.00  0.00    +0.162 HD
ENDROOT
BRANCH   1  13
ATOM     13  S   UNL     1       0.120  -2.364   2.604  0.00  0.00    +0.100 S 
ATOM     14  O   UNL     1      -0.407  -1.619   3.693  0.00  0.00    -0.146 OA
ATOM     15  O   UNL     1      -0.497  -3.550   2.123  0.00  0.00    -0.146 OA
BRANCH  13  21
ATOM     16  C   UNL     1       0.461   2.460   0.621  0.00  0.00    +0.044 C 
ATOM     17  C   UNL     1       0.373   0.975   0.383  0.00  0.00    -0.049 A 
ATOM     18  C   UNL     1       0.368   0.480  -0.909  0.00  0.00    +0.003 A 
ATOM     19  C   UNL     1       0.287  -0.882  -1.127  0.00  0.00    +0.002 A 
ATOM     20  C   UNL     1       0.212  -1.751  -0.054  0.00  0.00    +0.029 A 
ATOM     21  C   UNL     1       0.217  -1.257   1.237  0.00  0.00    +0.113 A 
ATOM     22  C   UNL     1       0.302   0.106   1.455  0.00  0.00    +0.032 A 
ENDBRANCH  13  21
ENDBRANCH   1  13
BRANCH   3  23
ATOM     23  N   UNL     1       4.020  -2.725   4.713  0.00  0.00    -0.316 N 
ATOM     24  H   UNL     1       3.592  -2.040   5.250  0.00  0.00    +0.148 HD
BRANCH  23  25
ATOM     25  C   UNL     1       5.323  -2.532   4.242  0.00  0.00    +0.065 A 
ATOM     26  C   UNL     1       5.984  -3.561   3.583  0.00  0.00    +0.027 A 
ATOM     27  C   UNL     1       7.271  -3.368   3.119  0.00  0.00    +0.017 A 
ATOM     28  C   UNL     1       7.903  -2.152   3.310  0.00  0.00    +0.021 A 
ATOM     29  C   UNL     1       7.249  -1.125   3.967  0.00  0.00    +0.055 A 
ATOM     30  C   UNL     1       5.958  -1.309   4.428  0.00  0.00    +0.145 A 
ATOM     31  F   UNL     1       5.317  -0.304   5.063  0.00  0.00    -0.204 F 
ATOM     32 BR   UNL     1       9.665  -1.894   2.674  0.00  0.00    -0.050 Br
ENDBRANCH  23  25
ENDBRANCH   3  23
TORSDOF 4
