REMARK  Name = ZINC65410075
REMARK  9 active torsions:
REMARK  status: ('A' for Active; 'I' for Inactive)
REMARK    1  A    between atoms: C_1  and  C_2
REMARK    2  A    between atoms: C_7  and  C_8
REMARK    3  A    between atoms: N_13  and  C_24
REMARK    4  A    between atoms: C_17  and  C_19
REMARK    5  A    between atoms: C_17  and  C_22
REMARK    6  A    between atoms: C_19  and  C_20
REMARK    7  A    between atoms: C_20  and  O_21
REMARK    8  A    between atoms: C_22  and  O_23
REMARK    9  A    between atoms: C_24  and  C_25
REMARK                            x       y       z     vdW  Elec       q    Type
REMARK                         _______ _______ _______ _____ _____    ______ ____
ROOT
ATOM      1  C   UNL     1       0.422   0.081   2.543  0.00  0.00    +0.086 C 
ATOM      2  C   UNL     1       1.700   0.696   3.151  0.00  0.00    -0.003 C 
ATOM      3  C   UNL     1       2.909  -0.177   2.756  0.00  0.00    -0.073 C 
ATOM      4  N   UNL     1       3.702  -0.311   4.004  0.00  0.00    +0.383 N 
ATOM      5  C   UNL     1       2.680  -0.480   5.069  0.00  0.00    -0.073 C 
ATOM      6  C   UNL     1       1.541   0.509   4.684  0.00  0.00    -0.002 C 
ATOM      7  C   UNL     1       0.183  -0.201   4.858  0.00  0.00    +0.046 C 
ATOM      8  N   UNL     1      -0.054  -0.889   3.562  0.00  0.00    -0.301 NA
ATOM      9  H   UNL     1      -1.033  -1.097   3.434  0.00  0.00    +0.123 HD
ATOM     10  H   UNL     1       4.247   0.522   4.167  0.00  0.00    -0.081 HD
ENDROOT
BRANCH   1  17
ATOM     11  C   UNL     1       0.670   1.587   0.090  0.00  0.00    +0.044 C 
ATOM     12  C   UNL     1       0.862   0.092   0.079  0.00  0.00    -0.046 A 
ATOM     13  C   UNL     1       1.163  -0.558  -1.103  0.00  0.00    +0.003 A 
ATOM     14  C   UNL     1       1.339  -1.929  -1.113  0.00  0.00    +0.000 A 
ATOM     15  C   UNL     1       1.215  -2.650   0.059  0.00  0.00    +0.000 A 
ATOM     16  C   UNL     1       0.915  -2.000   1.242  0.00  0.00    +0.005 A 
ATOM     17  C   UNL     1       0.744  -0.628   1.253  0.00  0.00    -0.027 A 
ENDBRANCH   1  17
BRANCH   7  18
ATOM     18  C   UNL     1      -0.923   0.822   5.125  0.00  0.00    +0.052 C 
BRANCH  18  19
ATOM     19  C   UNL     1      -2.270   0.102   5.228  0.00  0.00    +0.157 C 
BRANCH  19  20
ATOM     20  O   UNL     1      -3.313   1.065   5.386  0.00  0.00    -0.395 OA
ATOM     21  H   UNL     1      -4.197   0.679   5.458  0.00  0.00    +0.209 HD
ENDBRANCH  19  20
ENDBRANCH  18  19
ENDBRANCH   7  18
BRANCH   7  22
ATOM     22  C   UNL     1       0.255  -1.219   5.997  0.00  0.00    +0.178 C 
BRANCH  22  23
ATOM     23  O   UNL     1       0.719  -0.573   7.185  0.00  0.00    -0.393 OA
ATOM     24  H   UNL     1       0.790  -1.160   7.950  0.00  0.00    +0.209 HD
ENDBRANCH  22  23
ENDBRANCH   7  22
BRANCH   4  25
ATOM     25  C   UNL     1       4.573  -1.492   3.936  0.00  0.00    -0.043 C 
BRANCH  25  26
ATOM     26  C   UNL     1       5.618  -1.285   2.870  0.00  0.00    -0.064 A 
ATOM     27  C   UNL     1       5.365  -1.676   1.569  0.00  0.00    +0.002 A 
ATOM     28  C   UNL     1       6.323  -1.486   0.591  0.00  0.00    +0.000 A 
ATOM     29  C   UNL     1       7.535  -0.905   0.914  0.00  0.00    +0.000 A 
ATOM     30  C   UNL     1       7.788  -0.513   2.216  0.00  0.00    +0.000 A 
ATOM     31  C   UNL     1       6.827  -0.699   3.193  0.00  0.00    +0.002 A 
ENDBRANCH  25  26
ENDBRANCH   4  25
TORSDOF 8
