REMARK  Name = ZINC12468310
REMARK  7 active torsions:
REMARK  status: ('A' for Active; 'I' for Inactive)
REMARK    1  A    between atoms: C_1  and  C_2
REMARK    2  A    between atoms: C_2  and  C_4
REMARK    3  A    between atoms: C_2  and  O_36
REMARK    4  A    between atoms: C_9  and  N_10
REMARK    5  A    between atoms: C_11  and  C_13
REMARK    6  A    between atoms: C_19  and  C_28
REMARK    7  A    between atoms: C_22  and  C_24
REMARK                            x       y       z     vdW  Elec       q    Type
REMARK                         _______ _______ _______ _____ _____    ______ ____
ROOT
ATOM      1  C   UNL     1       4.932   0.190  -1.097  0.00  0.00    +0.096 A 
ATOM      2  C   UNL     1       4.390   0.692  -2.307  0.00  0.00    +0.149 A 
ATOM      3  N   UNL     1       5.378   1.007  -3.099  0.00  0.00    -0.177 NA
ATOM      4  N   UNL     1       6.585   0.733  -2.457  0.00  0.00    -0.238 N 
ATOM      5  C   UNL     1       6.308   0.236  -1.228  0.00  0.00    +0.130 A 
ATOM      6  N   UNL     1       7.291  -0.138  -0.329  0.00  0.00    -0.319 N 
ATOM      7  C   UNL     1       8.662  -0.239  -0.866  0.00  0.00    +0.140 C 
ATOM      8  C   UNL     1       8.917   0.968  -1.776  0.00  0.00    +0.066 C 
ATOM      9  C   UNL     1       7.946   0.930  -2.966  0.00  0.00    +0.215 C 
ATOM     10  H   UNL     1       7.090  -0.323   0.602  0.00  0.00    +0.148 HD
ENDROOT
BRANCH   7  11
ATOM     11  C   UNL     1       9.652  -0.241   0.270  0.00  0.00    +0.125 A 
ATOM     12  C   UNL     1      10.761  -0.998   0.345  0.00  0.00    +0.046 A 
ATOM     13  C   UNL     1      11.391  -0.682   1.571  0.00  0.00    +0.041 A 
ATOM     14  C   UNL     1      10.629   0.250   2.171  0.00  0.00    +0.195 A 
ATOM     15  O   UNL     1       9.580   0.517   1.376  0.00  0.00    -0.466 OA
ENDBRANCH   7  11
BRANCH   1  17
ATOM     16  N   UNL     1       2.832  -0.267   0.056  0.00  0.00    -0.281 N 
ATOM     17  C   UNL     1       4.180  -0.281   0.072  0.00  0.00    +0.253 C 
ATOM     18  O   UNL     1       4.772  -0.683   1.056  0.00  0.00    -0.270 OA
ATOM     19  H   UNL     1       2.359  -0.022  -0.755  0.00  0.00    +0.155 HD
BRANCH  16  25
ATOM     20  C   UNL     1       0.817  -1.088   1.104  0.00  0.00    +0.005 A 
ATOM     21  C   UNL     1       0.109  -1.428   2.241  0.00  0.00    +0.057 A 
ATOM     22  C   UNL     1       0.691  -1.284   3.490  0.00  0.00    +0.167 A 
ATOM     23  C   UNL     1       1.991  -0.796   3.600  0.00  0.00    +0.168 A 
ATOM     24  C   UNL     1       2.699  -0.455   2.460  0.00  0.00    +0.073 A 
ATOM     25  C   UNL     1       2.114  -0.606   1.210  0.00  0.00    +0.043 A 
ATOM     26  O   UNL     1       2.329  -0.750   4.922  0.00  0.00    -0.453 OA
ATOM     27  C   UNL     1       1.083  -0.826   5.641  0.00  0.00    +0.466 C 
ATOM     28  O   UNL     1       0.215  -1.543   4.744  0.00  0.00    -0.453 OA
BRANCH  20  30
ATOM     29  C   UNL     1      -0.434   0.086  -0.687  0.00  0.00    +0.043 C 
ATOM     30  C   UNL     1       0.181  -1.246  -0.254  0.00  0.00    +0.143 C 
BRANCH  30  31
ATOM     31  O   UNL     1      -0.840  -2.243  -0.188  0.00  0.00    -0.387 OA
ATOM     32  H   UNL     1      -1.293  -2.398  -1.028  0.00  0.00    +0.210 HD
ENDBRANCH  30  31
ENDBRANCH  20  30
ENDBRANCH  16  25
ENDBRANCH   1  17
BRANCH   9  33
ATOM     33  C   UNL     1       8.025   2.260  -3.717  0.00  0.00    +0.412 C 
ATOM     34  F   UNL     1       7.696   3.307  -2.849  0.00  0.00    -0.168 F 
ATOM     35  F   UNL     1       9.324   2.447  -4.202  0.00  0.00    -0.168 F 
ATOM     36  F   UNL     1       7.126   2.244  -4.789  0.00  0.00    -0.168 F 
ENDBRANCH   9  33
TORSDOF 6
