REMARK  Name = ZINC15304327
REMARK  10 active torsions:
REMARK  status: ('A' for Active; 'I' for Inactive)
REMARK    1  A    between atoms: C_1  and  C_2
REMARK    2  A    between atoms: C_2  and  O_3
REMARK    3  A    between atoms: O_3  and  C_4
REMARK    4  A    between atoms: C_6  and  C_14
REMARK    5  A    between atoms: C_8  and  N_11
REMARK    6  A    between atoms: C_9  and  O_10
REMARK    7  A    between atoms: C_19  and  C_29
REMARK    8  A    between atoms: C_21  and  C_25
REMARK    9  A    between atoms: C_25  and  O_27
REMARK   10  A    between atoms: O_27  and  C_28
REMARK                            x       y       z     vdW  Elec       q    Type
REMARK                         _______ _______ _______ _____ _____    ______ ____
ROOT
ATOM      1  C   UNL     1       1.881  -2.706   1.221  0.00  0.00    +0.136 C 
ATOM      2  C   UNL     1       3.364  -2.625   1.486  0.00  0.00    +0.037 C 
ATOM      3  C   UNL     1       4.219  -1.748   0.929  0.00  0.00    +0.017 C 
ATOM      4  C   UNL     1       5.697  -1.787   1.275  0.00  0.00    +0.055 C 
ATOM      5  C   UNL     1       5.881  -2.242   2.722  0.00  0.00    +0.013 C 
ATOM      6  C   UNL     1       5.267  -3.641   2.853  0.00  0.00    +0.171 C 
ATOM      7  C   UNL     1       3.833  -3.577   2.422  0.00  0.00    +0.177 C 
ATOM      8  O   UNL     1       3.044  -4.372   2.894  0.00  0.00    -0.291 OA
ATOM      9  C   UNL     1       7.371  -2.296   3.063  0.00  0.00    +0.009 C 
ATOM     10  N   UNL     1       3.864  -0.794   0.033  0.00  0.00    -0.316 N 
ATOM     11  C   UNL     1       2.768   0.050   0.160  0.00  0.00    +0.052 A 
ATOM     12  C   UNL     1       2.901   1.423   0.281  0.00  0.00    +0.025 A 
ATOM     13  C   UNL     1       1.766   2.215   0.312  0.00  0.00    +0.002 A 
ATOM     14  C   UNL     1       0.511   1.641   0.223  0.00  0.00    +0.002 A 
ATOM     15  C   UNL     1       0.375   0.267   0.120  0.00  0.00    +0.025 A 
ATOM     16  C   UNL     1       1.509  -0.529   0.106  0.00  0.00    +0.049 A 
ATOM     17  N   UNL     1       1.424  -1.921   0.093  0.00  0.00    -0.331 N 
ATOM     18  H   UNL     1       4.463  -0.644  -0.878  0.00  0.00    +0.152 HD
ATOM     19  H   UNL     1       1.003  -2.422  -0.791  0.00  0.00    +0.147 HD
ENDROOT
BRANCH   1  22
ATOM     20  C   UNL     1      -0.346  -2.677   4.272  0.00  0.00    +0.164 A 
ATOM     21  C   UNL     1       0.323  -3.106   3.137  0.00  0.00    +0.055 A 
ATOM     22  C   UNL     1       1.150  -2.236   2.452  0.00  0.00    -0.017 A 
ATOM     23  C   UNL     1       1.304  -0.934   2.890  0.00  0.00    +0.042 A 
ATOM     24  C   UNL     1       0.636  -0.498   4.019  0.00  0.00    +0.171 A 
ATOM     25  C   UNL     1      -0.191  -1.366   4.714  0.00  0.00    +0.189 A 
BRANCH  24  26
ATOM     26  N   UNL     1       0.803   0.897   4.485  0.00  0.00    +0.060 N 
ATOM     27  O   UNL     1       1.529   1.660   3.875  0.00  0.00    -0.126 OA
ATOM     28  O   UNL     1       0.214   1.281   5.480  0.00  0.00    -0.126 OA
ENDBRANCH  24  26
BRANCH  25  29
ATOM     29  O   UNL     1      -0.850  -0.939   5.824  0.00  0.00    -0.502 OA
ATOM     30  H   UNL     1      -0.726   0.098   6.172  0.00  0.00    +0.292 HD
ENDBRANCH  25  29
BRANCH  20  31
ATOM     31  O   UNL     1      -1.157  -3.533   4.950  0.00  0.00    -0.488 OA
BRANCH  31  33
ATOM     32  C   UNL     1      -2.216  -5.672   5.327  0.00  0.00    +0.048 C 
ATOM     33  C   UNL     1      -1.268  -4.863   4.440  0.00  0.00    +0.226 C 
ENDBRANCH  31  33
ENDBRANCH  20  31
ENDBRANCH   1  22
BRANCH   6  34
ATOM     34  C   UNL     1       5.344  -4.095   4.287  0.00  0.00    +0.318 C 
ATOM     35  O   UNL     1       5.853  -3.383   5.120  0.00  0.00    -0.250 OA
BRANCH  34  36
ATOM     36  O   UNL     1       4.848  -5.292   4.641  0.00  0.00    -0.467 OA
ATOM     37  C   UNL     1       4.957  -5.663   6.040  0.00  0.00    +0.280 C 
ENDBRANCH  34  36
ENDBRANCH   6  34
TORSDOF 7
