REMARK  Name = ZINC09542381
REMARK  8 active torsions:
REMARK  status: ('A' for Active; 'I' for Inactive)
REMARK    1  A    between atoms: C_1  and  O_2
REMARK    2  A    between atoms: O_2  and  C_3
REMARK    3  A    between atoms: C_7  and  C_10
REMARK    4  A    between atoms: C_8  and  O_9
REMARK    5  A    between atoms: C_13  and  C_26
REMARK    6  A    between atoms: C_15  and  C_17
REMARK    7  A    between atoms: C_20  and  O_24
REMARK    8  A    between atoms: O_24  and  C_25
REMARK                            x       y       z     vdW  Elec       q    Type
REMARK                         _______ _______ _______ _____ _____    ______ ____
ROOT
ATOM      1  C   UNL     1       0.002  -0.004   0.002  0.00  0.00    -0.028 C 
ATOM      2  C   UNL     1      -0.019   1.528   0.010  0.00  0.00    +0.044 C 
ATOM      3  C   UNL     1       1.392   2.048  -0.000  0.00  0.00    +0.040 C 
ATOM      4  N   UNL     1       2.408   1.320   0.276  0.00  0.00    -0.299 NA
ATOM      5  C   UNL     1       2.331  -0.093   0.623  0.00  0.00    +0.081 C 
ATOM      6  N   UNL     1       0.964  -0.459   1.024  0.00  0.00    +0.401 N 
ATOM      7  H   UNL     1       0.900  -1.479   1.123  0.00  0.00    -0.081 HD
ATOM      8  H   UNL     1       0.743  -0.014   1.923  0.00  0.00    -0.081 HD
ENDROOT
BRANCH   5   9
ATOM      9  C   UNL     1       2.737  -0.919  -0.571  0.00  0.00    -0.039 A 
ATOM     10  C   UNL     1       2.221  -2.191  -0.738  0.00  0.00    +0.007 A 
ATOM     11  C   UNL     1       2.587  -2.948  -1.834  0.00  0.00    +0.047 A 
ATOM     12  C   UNL     1       3.482  -2.436  -2.762  0.00  0.00    +0.134 A 
ATOM     13  C   UNL     1       4.003  -1.161  -2.590  0.00  0.00    +0.060 A 
ATOM     14  C   UNL     1       3.629  -0.405  -1.494  0.00  0.00    +0.022 A 
ATOM     15 BR   UNL     1       5.222  -0.458  -3.852  0.00  0.00    -0.047 Br
BRANCH  12  16
ATOM     16  O   UNL     1       3.848  -3.181  -3.838  0.00  0.00    -0.494 OA
ATOM     17  C   UNL     1       3.272  -4.484  -3.951  0.00  0.00    +0.277 C 
ENDBRANCH  12  16
ENDBRANCH   5   9
BRANCH   3  18
ATOM     18  C   UNL     1       1.615   3.465  -0.346  0.00  0.00    -0.004 A 
ATOM     19  C   UNL     1       0.533   4.290  -0.660  0.00  0.00    +0.011 A 
ATOM     20  C   UNL     1       0.748   5.615  -0.977  0.00  0.00    +0.020 A 
ATOM     21  C   UNL     1       2.035   6.125  -0.996  0.00  0.00    +0.041 A 
ATOM     22  C   UNL     1       3.114   5.311  -0.691  0.00  0.00    +0.020 A 
ATOM     23  C   UNL     1       2.911   3.986  -0.367  0.00  0.00    +0.011 A 
ATOM     24 CL   UNL     1       2.298   7.792  -1.403  0.00  0.00    -0.084 Cl
ENDBRANCH   3  18
BRANCH   1  29
ATOM     25  C   UNL     1      -3.582  -1.164  -0.369  0.00  0.00    +0.161 A 
ATOM     26  C   UNL     1      -3.893  -1.506   0.937  0.00  0.00    +0.049 A 
ATOM     27  C   UNL     1      -2.946  -1.362   1.934  0.00  0.00    +0.004 A 
ATOM     28  C   UNL     1      -1.687  -0.876   1.630  0.00  0.00    +0.006 A 
ATOM     29  C   UNL     1      -1.371  -0.533   0.329  0.00  0.00    -0.016 A 
ATOM     30  C   UNL     1      -2.317  -0.670  -0.673  0.00  0.00    +0.160 A 
BRANCH  25  32
ATOM     31  C   UNL     1      -5.792  -1.812  -0.963  0.00  0.00    +0.277 C 
ATOM     32  O   UNL     1      -4.513  -1.305  -1.350  0.00  0.00    -0.491 OA
ENDBRANCH  25  32
BRANCH  30  33
ATOM     33  O   UNL     1      -2.009  -0.328  -1.953  0.00  0.00    -0.503 OA
ATOM     34  H   UNL     1      -1.639  -1.053  -2.476  0.00  0.00    +0.292 HD
ENDBRANCH  30  33
ENDBRANCH   1  29
TORSDOF 6
