REMARK  Name = ZINC21254137
REMARK  13 active torsions:
REMARK  status: ('A' for Active; 'I' for Inactive)
REMARK    1  A    between atoms: C_1  and  C_2
REMARK    2  A    between atoms: C_2  and  C_3
REMARK    3  A    between atoms: C_3  and  C_4
REMARK    4  A    between atoms: C_4  and  N_5
REMARK    5  A    between atoms: C_9  and  C_32
REMARK    6  A    between atoms: C_10  and  C_31
REMARK    7  A    between atoms: C_14  and  S_15
REMARK    8  A    between atoms: S_15  and  C_16
REMARK    9  A    between atoms: C_16  and  C_17
REMARK   10  A    between atoms: N_19  and  C_20
REMARK   11  A    between atoms: C_23  and  C_30
REMARK   12  A    between atoms: C_24  and  S_26
REMARK   13  A    between atoms: S_26  and  N_29
REMARK                            x       y       z     vdW  Elec       q    Type
REMARK                         _______ _______ _______ _____ _____    ______ ____
ROOT
ATOM      1  C   UNL     1      -4.921   3.883  -0.144  0.00  0.00    +0.173 C 
ENDROOT
BRANCH   1   2
ATOM      2  C   UNL     1      -3.614   3.140  -0.048  0.00  0.00    +0.227 C 
ATOM      3  O   UNL     1      -3.604   1.927  -0.055  0.00  0.00    -0.275 OA
ATOM      4  N   UNL     1      -2.456   3.823   0.046  0.00  0.00    -0.285 N 
ATOM      5  H   UNL     1      -2.470   4.919   0.140  0.00  0.00    +0.155 HD
BRANCH   4   6
ATOM      6  C   UNL     1      -1.236   3.138   0.025  0.00  0.00    +0.035 A 
ATOM      7  C   UNL     1      -1.099   1.984  -0.735  0.00  0.00    +0.023 A 
ATOM      8  C   UNL     1       0.104   1.307  -0.750  0.00  0.00    +0.007 A 
ATOM      9  C   UNL     1       1.176   1.784  -0.017  0.00  0.00    -0.024 A 
ATOM     10  C   UNL     1       1.045   2.936   0.736  0.00  0.00    +0.110 A 
ATOM     11  C   UNL     1      -0.158   3.615   0.758  0.00  0.00    +0.052 A 
ATOM     12  C   UNL     1       2.490   1.045  -0.039  0.00  0.00    +0.046 C 
BRANCH  10  13
ATOM     13  S   UNL     1       2.414   3.539   1.667  0.00  0.00    +0.056 S 
ATOM     14  O   UNL     1       3.530   3.553   0.786  0.00  0.00    -0.153 OA
ATOM     15  O   UNL     1       1.963   4.705   2.343  0.00  0.00    -0.153 OA
BRANCH  13  16
ATOM     16  N   UNL     1       2.747   2.413   2.834  0.00  0.00    -0.204 NA
ATOM     17  H   UNL     1       3.599   2.754   3.440  0.00  0.00    +0.144 HD
ATOM     18  H   UNL     1       2.996   1.454   2.358  0.00  0.00    +0.144 HD
ENDBRANCH  13  16
ENDBRANCH  10  13
ENDBRANCH   4   6
ENDBRANCH   1   2
BRANCH   1  19
ATOM     19  S   UNL     1      -6.283   2.696  -0.257  0.00  0.00    -0.078 S 
BRANCH  19  29
ATOM     20  N   UNL     1      -8.915   3.307  -0.457  0.00  0.00    -0.287 N 
ATOM     21  C   UNL     1      -9.982   4.123  -0.535  0.00  0.00    +0.263 A 
ATOM     22  O   UNL     1     -11.107   3.661  -0.625  0.00  0.00    -0.267 OA
ATOM     23  C   UNL     1      -9.780   5.539  -0.510  0.00  0.00    +0.075 A 
ATOM     24  C   UNL     1     -10.760   6.609  -0.579  0.00  0.00    -0.026 A 
ATOM     25  C   UNL     1     -10.343   7.883  -0.539  0.00  0.00    -0.008 A 
ATOM     26  S   UNL     1      -8.571   7.734  -0.402  0.00  0.00    -0.073 S 
ATOM     27  C   UNL     1      -8.443   5.964  -0.403  0.00  0.00    +0.117 A 
ATOM     28  N   UNL     1      -7.434   5.105  -0.326  0.00  0.00    -0.216 NA
ATOM     29  C   UNL     1      -7.649   3.805  -0.356  0.00  0.00    +0.173 A 
ATOM     30  C   UNL     1     -11.172   9.139  -0.596  0.00  0.00    +0.052 C 
ATOM     31  C   UNL     1     -12.229   6.291  -0.695  0.00  0.00    +0.045 C 
BRANCH  20  32
ATOM     32  C   UNL     1      -9.116   1.856  -0.482  0.00  0.00    +0.127 C 
BRANCH  32  33
ATOM     33  C   UNL     1      -9.297   1.341   0.947  0.00  0.00    +0.021 C 
BRANCH  33  35
ATOM     34  C   UNL     1      -9.689  -0.689   2.350  0.00  0.00    +0.004 C 
ATOM     35  C   UNL     1      -9.508  -0.174   0.921  0.00  0.00    -0.002 C 
ENDBRANCH  33  35
ENDBRANCH  32  33
ENDBRANCH  20  32
ENDBRANCH  19  29
ENDBRANCH   1  19
TORSDOF 9
