REMARK  Name = ZINC39599909
REMARK  6 active torsions:
REMARK  status: ('A' for Active; 'I' for Inactive)
REMARK    1  A    between atoms: C_3  and  O_31
REMARK    2  A    between atoms: C_6  and  C_7
REMARK    3  A    between atoms: C_7  and  N_8
REMARK    4  A    between atoms: C_9  and  C_11
REMARK    5  A    between atoms: C_22  and  C_24
REMARK    6  A    between atoms: O_31  and  C_32
REMARK                            x       y       z     vdW  Elec       q    Type
REMARK                         _______ _______ _______ _____ _____    ______ ____
ROOT
ATOM      1  C   UNL     1      -3.314  -1.941  -3.024  0.00  0.00    +0.100 C 
ATOM      2  C   UNL     1      -3.720  -0.613  -3.701  0.00  0.00    +0.121 C 
ATOM      3  N   UNL     1      -4.886  -0.965  -4.547  0.00  0.00    -0.300 N 
ATOM      4  C   UNL     1      -5.660  -1.926  -3.725  0.00  0.00    +0.115 C 
ATOM      5  C   UNL     1      -4.590  -2.799  -3.041  0.00  0.00    -0.004 C 
ATOM      6  C   UNL     1      -4.358  -4.075  -3.845  0.00  0.00    -0.010 C 
ATOM      7  C   UNL     1      -5.622  -4.938  -3.800  0.00  0.00    -0.082 C 
ATOM      8  N   UNL     1      -5.943  -5.266  -2.406  0.00  0.00    +0.379 N 
ATOM      9  C   UNL     1      -6.255  -4.040  -1.662  0.00  0.00    -0.082 C 
ATOM     10  C   UNL     1      -5.018  -3.139  -1.617  0.00  0.00    -0.010 C 
ATOM     11  C   UNL     1      -5.176  -0.513  -5.783  0.00  0.00    +0.219 C 
ATOM     12  O   UNL     1      -6.176  -0.898  -6.350  0.00  0.00    -0.275 OA
ATOM     13  H   UNL     1      -6.740  -5.885  -2.382  0.00  0.00    -0.086 HD
ATOM     14  H   UNL     1      -5.152  -5.725  -1.979  0.00  0.00    -0.086 HD
ENDROOT
BRANCH  11  15
ATOM     15  C   UNL     1      -4.257   0.470  -6.461  0.00  0.00    +0.079 C 
ATOM     16  C   UNL     1      -4.816   0.829  -7.843  0.00  0.00    +0.017 C 
ATOM     17  C   UNL     1      -3.780   1.684  -8.577  0.00  0.00    +0.027 C 
ATOM     18  C   UNL     1      -3.313   2.803  -7.692  0.00  0.00    -0.031 C 
ATOM     19  C   UNL     1      -3.478   2.830  -6.409  0.00  0.00    -0.030 C 
ATOM     20  C   UNL     1      -4.164   1.748  -5.625  0.00  0.00    +0.039 C 
ENDBRANCH  11  15
BRANCH   1  22
ATOM     21  N   UNL     1      -1.970  -2.514  -1.028  0.00  0.00    -0.311 N 
ATOM     22  C   UNL     1      -2.868  -1.692  -1.606  0.00  0.00    +0.218 C 
ATOM     23  O   UNL     1      -3.318  -0.752  -0.986  0.00  0.00    -0.275 OA
ATOM     24  H   UNL     1      -1.611  -3.266  -1.524  0.00  0.00    +0.149 HD
BRANCH  21  25
ATOM     25  C   UNL     1      -1.537  -2.272   0.350  0.00  0.00    +0.139 C 
BRANCH  25  31
ATOM     26  C   UNL     1       0.812  -3.115   0.538  0.00  0.00    +0.009 A 
ATOM     27  C   UNL     1       1.730  -4.079   0.909  0.00  0.00    +0.046 A 
ATOM     28  C   UNL     1       1.296  -5.258   1.499  0.00  0.00    +0.130 A 
ATOM     29  C   UNL     1      -0.058  -5.465   1.715  0.00  0.00    +0.046 A 
ATOM     30  C   UNL     1      -0.972  -4.498   1.343  0.00  0.00    +0.009 A 
ATOM     31  C   UNL     1      -0.538  -3.325   0.755  0.00  0.00    -0.030 A 
BRANCH  28  32
ATOM     32  O   UNL     1       2.197  -6.207   1.864  0.00  0.00    -0.406 OA
BRANCH  32  33
ATOM     33  C   UNL     1       1.679  -7.396   2.466  0.00  0.00    +0.575 C 
ATOM     34  F   UNL     1       0.807  -8.028   1.573  0.00  0.00    -0.133 F 
ATOM     35  F   UNL     1       2.735  -8.259   2.776  0.00  0.00    -0.133 F 
ATOM     36  F   UNL     1       0.989  -7.063   3.636  0.00  0.00    -0.133 F 
ENDBRANCH  32  33
ENDBRANCH  28  32
ENDBRANCH  25  31
ENDBRANCH  21  25
ENDBRANCH   1  22
TORSDOF 6
