REMARK  Name = ZINC20930198
REMARK  11 active torsions:
REMARK  status: ('A' for Active; 'I' for Inactive)
REMARK    1  A    between atoms: C_1  and  C_2
REMARK    2  A    between atoms: C_2  and  C_3
REMARK    3  A    between atoms: C_3  and  O_4
REMARK    4  A    between atoms: O_4  and  C_5
REMARK    5  A    between atoms: C_6  and  C_13
REMARK    6  A    between atoms: C_13  and  N_14
REMARK    7  A    between atoms: N_14  and  C_15
REMARK    8  A    between atoms: C_15  and  C_16
REMARK    9  A    between atoms: C_16  and  N_17
REMARK   10  A    between atoms: N_17  and  C_18
REMARK   11  A    between atoms: C_21  and  N_25
REMARK                            x       y       z     vdW  Elec       q    Type
REMARK                         _______ _______ _______ _____ _____    ______ ____
ROOT
ATOM      1  N   UNL     1      -4.933   1.550   0.034  0.00  0.00    +0.383 N 
ATOM      2  H   UNL     1      -4.963   0.911   0.929  0.00  0.00    -0.085 HD
ATOM      3  H   UNL     1      -4.971   0.921  -0.868  0.00  0.00    -0.085 HD
ENDROOT
BRANCH   1   4
ATOM      4  C   UNL     1      -6.086   2.461   0.044  0.00  0.00    -0.043 C 
BRANCH   4   6
ATOM      5  C   UNL     1      -7.828   1.100   1.227  0.00  0.00    +0.140 A 
ATOM      6  C   UNL     1      -7.361   1.657   0.046  0.00  0.00    -0.020 A 
ATOM      7  C   UNL     1      -8.062   1.471  -1.130  0.00  0.00    +0.025 A 
ATOM      8  C   UNL     1      -9.232   0.733  -1.129  0.00  0.00    +0.043 A 
ATOM      9  C   UNL     1      -9.704   0.180   0.048  0.00  0.00    +0.043 A 
ATOM     10  C   UNL     1      -9.005   0.364   1.227  0.00  0.00    +0.084 A 
ATOM     11 CL   UNL     1      -9.597  -0.329   2.704  0.00  0.00    -0.080 Cl
ATOM     12 CL   UNL     1     -10.111   0.500  -2.608  0.00  0.00    -0.083 Cl
BRANCH   5  13
ATOM     13  O   UNL     1      -7.136   1.277   2.384  0.00  0.00    -0.490 OA
BRANCH  13  14
ATOM     14  C   UNL     1      -7.473   2.420   3.172  0.00  0.00    +0.229 C 
BRANCH  14  16
ATOM     15  C   UNL     1      -6.956   3.676   5.269  0.00  0.00    +0.007 C 
ATOM     16  C   UNL     1      -6.596   2.452   4.426  0.00  0.00    +0.038 C 
ENDBRANCH  14  16
ENDBRANCH  13  14
ENDBRANCH   5  13
ENDBRANCH   4   6
ENDBRANCH   1   4
BRANCH   1  17
ATOM     17  C   UNL     1      -3.670   2.300   0.032  0.00  0.00    -0.063 C 
BRANCH  17  18
ATOM     18  C   UNL     1      -2.495   1.321   0.021  0.00  0.00    +0.082 C 
BRANCH  18  19
ATOM     19  N   UNL     1      -1.236   2.068   0.019  0.00  0.00    -0.345 N 
ATOM     20  H   UNL     1      -1.249   3.168   0.025  0.00  0.00    +0.146 HD
BRANCH  19  21
ATOM     21  C   UNL     1      -0.017   1.385   0.010  0.00  0.00    +0.046 A 
ATOM     22  C   UNL     1       0.002  -0.004   0.002  0.00  0.00    +0.026 A 
ATOM     23  C   UNL     1       1.208  -0.677  -0.013  0.00  0.00    +0.034 A 
ATOM     24  C   UNL     1       2.397   0.030  -0.021  0.00  0.00    +0.128 A 
ATOM     25  C   UNL     1       2.382   1.413  -0.014  0.00  0.00    +0.054 A 
ATOM     26  C   UNL     1       1.179   2.093   0.002  0.00  0.00    +0.064 A 
ATOM     27 CL   UNL     1       1.162   3.829   0.011  0.00  0.00    -0.082 Cl
BRANCH  24  28
ATOM     28  N   UNL     1       3.687  -0.695  -0.038  0.00  0.00    +0.056 N 
ATOM     29  O   UNL     1       3.701  -1.913  -0.045  0.00  0.00    -0.126 OA
ATOM     30  O   UNL     1       4.734  -0.074  -0.045  0.00  0.00    -0.126 OA
ENDBRANCH  24  28
ENDBRANCH  19  21
ENDBRANCH  18  19
ENDBRANCH  17  18
ENDBRANCH   1  17
TORSDOF 10
