REMARK  Name = ZINC36576148
REMARK  17 active torsions:
REMARK  status: ('A' for Active; 'I' for Inactive)
REMARK    1  A    between atoms: C_1  and  C_2
REMARK    2  A    between atoms: C_2  and  C_3
REMARK    3  A    between atoms: C_3  and  N_4
REMARK    4  A    between atoms: N_4  and  C_5
REMARK    5  A    between atoms: C_5  and  C_7
REMARK    6  A    between atoms: C_5  and  C_17
REMARK    7  A    between atoms: C_9  and  N_14
REMARK    8  A    between atoms: N_19  and  C_20
REMARK    9  A    between atoms: C_20  and  C_21
REMARK   10  A    between atoms: C_20  and  C_22
REMARK   11  A    between atoms: C_20  and  C_23
REMARK   12  A    between atoms: C_23  and  C_24
REMARK   13  A    between atoms: C_24  and  C_25
REMARK   14  A    between atoms: C_24  and  C_26
REMARK   15  A    between atoms: C_24  and  C_27
REMARK   16  A    between atoms: C_28  and  C_30
REMARK   17  A    between atoms: C_34  and  N_36
REMARK                            x       y       z     vdW  Elec       q    Type
REMARK                         _______ _______ _______ _____ _____    ______ ____
ROOT
ATOM      1  C   UNL     1       1.584  -4.585  -0.282  0.00  0.00    +0.194 C 
ENDROOT
BRANCH   1   2
ATOM      2  C   UNL     1       0.113  -4.643  -0.603  0.00  0.00    +0.002 A 
ATOM      3  C   UNL     1      -0.770  -3.800   0.046  0.00  0.00    +0.040 A 
ATOM      4  C   UNL     1      -2.120  -3.853  -0.248  0.00  0.00    +0.127 A 
ATOM      5  C   UNL     1      -2.587  -4.748  -1.193  0.00  0.00    +0.034 A 
ATOM      6  C   UNL     1      -1.706  -5.590  -1.843  0.00  0.00    +0.022 A 
ATOM      7  C   UNL     1      -0.354  -5.534  -1.553  0.00  0.00    +0.047 A 
ATOM      8 CL   UNL     1       0.755  -6.586  -2.375  0.00  0.00    -0.083 Cl
BRANCH   4   9
ATOM      9  N   UNL     1      -3.065  -2.951   0.448  0.00  0.00    +0.056 N 
ATOM     10  O   UNL     1      -2.656  -2.169   1.275  0.00  0.00    -0.126 OA
ATOM     11  O   UNL     1      -4.245  -2.997   0.191  0.00  0.00    -0.126 OA
ENDBRANCH   4   9
ENDBRANCH   1   2
BRANCH   1  12
ATOM     12  C   UNL     1       1.772  -4.049   1.114  0.00  0.00    +0.239 C 
ATOM     13  O   UNL     1       2.101  -2.894   1.280  0.00  0.00    -0.273 OA
ATOM     14  N   UNL     1       1.575  -4.854   2.177  0.00  0.00    -0.308 N 
ATOM     15  H   UNL     1       1.367  -5.792   2.044  0.00  0.00    +0.149 HD
BRANCH  14  16
ATOM     16  C   UNL     1       1.676  -4.311   3.535  0.00  0.00    +0.030 C 
ATOM     17  C   UNL     1       3.139  -3.996   3.851  0.00  0.00    +0.031 C 
ATOM     18  C   UNL     1       0.844  -3.031   3.635  0.00  0.00    +0.031 C 
BRANCH  16  19
ATOM     19  C   UNL     1       1.149  -5.342   4.535  0.00  0.00    +0.031 C 
BRANCH  19  20
ATOM     20  C   UNL     1      -0.372  -5.213   4.646  0.00  0.00    -0.036 C 
ATOM     21  C   UNL     1      -0.990  -5.243   3.247  0.00  0.00    +0.010 C 
ATOM     22  C   UNL     1      -0.923  -6.378   5.471  0.00  0.00    +0.010 C 
ATOM     23  C   UNL     1      -0.724  -3.891   5.331  0.00  0.00    +0.010 C 
ENDBRANCH  19  20
ENDBRANCH  16  19
ENDBRANCH  14  16
ENDBRANCH   1  12
BRANCH   1  24
ATOM     24  N   UNL     1       2.259  -3.705  -1.238  0.00  0.00    -0.282 N 
ATOM     25  C   UNL     1       3.433  -4.078  -1.785  0.00  0.00    +0.248 C 
ATOM     26  O   UNL     1       3.920  -3.422  -2.685  0.00  0.00    -0.270 OA
BRANCH  25  27
ATOM     27  C   UNL     1       4.129  -5.284  -1.288  0.00  0.00    +0.039 A 
ATOM     28  C   UNL     1       3.843  -5.786  -0.018  0.00  0.00    +0.013 A 
ATOM     29  C   UNL     1       4.496  -6.912   0.439  0.00  0.00    +0.003 A 
ATOM     30  C   UNL     1       5.433  -7.544  -0.360  0.00  0.00    +0.033 A 
ATOM     31  C   UNL     1       5.721  -7.052  -1.620  0.00  0.00    +0.127 A 
ATOM     32  C   UNL     1       5.071  -5.930  -2.091  0.00  0.00    +0.045 A 
BRANCH  31  33
ATOM     33  N   UNL     1       6.726  -7.734  -2.467  0.00  0.00    +0.056 N 
ATOM     34  O   UNL     1       7.292  -8.720  -2.057  0.00  0.00    -0.126 OA
ATOM     35  O   UNL     1       6.979  -7.304  -3.568  0.00  0.00    -0.126 OA
ENDBRANCH  31  33
ENDBRANCH  25  27
BRANCH  24  36
ATOM     36  C   UNL     1       1.657  -2.420  -1.601  0.00  0.00    +0.109 C 
BRANCH  36  38
ATOM     37  C   UNL     1       1.712   0.043  -1.182  0.00  0.00    +0.005 C 
ATOM     38  C   UNL     1       2.244  -1.315  -0.719  0.00  0.00    +0.016 C 
ENDBRANCH  36  38
ENDBRANCH  24  36
ENDBRANCH   1  24
TORSDOF 11
