REMARK  Name = ZINC45961936
REMARK  8 active torsions:
REMARK  status: ('A' for Active; 'I' for Inactive)
REMARK    1  A    between atoms: C_1  and  N_2
REMARK    2  A    between atoms: C_6  and  S_13
REMARK    3  A    between atoms: N_9  and  C_12
REMARK    4  A    between atoms: S_13  and  N_16
REMARK    5  A    between atoms: N_16  and  C_17
REMARK    6  A    between atoms: C_18  and  N_28
REMARK    7  A    between atoms: N_28  and  C_29
REMARK    8  A    between atoms: C_29  and  C_30
REMARK                            x       y       z     vdW  Elec       q    Type
REMARK                         _______ _______ _______ _____ _____    ______ ____
ROOT
ATOM      1  C   UNL     1      -3.169  -4.772  -2.258  0.00  0.00    +0.154 A 
ATOM      2  C   UNL     1      -2.023  -5.194  -1.609  0.00  0.00    +0.068 A 
ATOM      3  C   UNL     1      -0.861  -5.560  -2.434  0.00  0.00    +0.040 A 
ATOM      4  C   UNL     1       0.329  -5.995  -1.846  0.00  0.00    +0.013 A 
ATOM      5  C   UNL     1       1.400  -6.331  -2.645  0.00  0.00    +0.001 A 
ATOM      6  C   UNL     1       1.299  -6.237  -4.026  0.00  0.00    +0.004 A 
ATOM      7  C   UNL     1       0.130  -5.808  -4.618  0.00  0.00    +0.047 A 
ATOM      8  C   UNL     1      -0.962  -5.465  -3.831  0.00  0.00    +0.141 A 
ATOM      9  O   UNL     1      -2.113  -5.044  -4.398  0.00  0.00    -0.421 OA
ATOM     10  C   UNL     1      -3.186  -4.712  -3.663  0.00  0.00    +0.362 A 
ATOM     11  O   UNL     1      -4.202  -4.344  -4.229  0.00  0.00    -0.243 OA
ENDROOT
BRANCH   1  12
ATOM     12  N   UNL     1      -4.310  -4.410  -1.519  0.00  0.00    -0.208 N 
ATOM     13  H   UNL     1      -4.338  -4.566  -0.562  0.00  0.00    +0.174 HD
BRANCH  12  14
ATOM     14  S   UNL     1      -5.606  -3.717  -2.283  0.00  0.00    +0.073 S 
ATOM     15  O   UNL     1      -5.088  -2.677  -3.100  0.00  0.00    -0.150 OA
ATOM     16  O   UNL     1      -6.589  -3.483  -1.283  0.00  0.00    -0.150 OA
BRANCH  14  22
ATOM     17  C   UNL     1      -8.356  -8.933  -6.098  0.00  0.00    +0.154 C 
ATOM     18  N   UNL     1      -7.805  -7.577  -6.159  0.00  0.00    -0.295 N 
ATOM     19  C   UNL     1      -7.331  -6.840  -5.077  0.00  0.00    +0.070 A 
ATOM     20  C   UNL     1      -7.229  -7.102  -3.719  0.00  0.00    +0.030 A 
ATOM     21  C   UNL     1      -6.702  -6.147  -2.872  0.00  0.00    +0.031 A 
ATOM     22  C   UNL     1      -6.276  -4.929  -3.373  0.00  0.00    +0.111 A 
ATOM     23  C   UNL     1      -6.375  -4.658  -4.724  0.00  0.00    +0.056 A 
ATOM     24  C   UNL     1      -6.902  -5.611  -5.582  0.00  0.00    +0.071 A 
ATOM     25  N   UNL     1      -7.127  -5.640  -6.956  0.00  0.00    -0.295 N 
ATOM     26  C   UNL     1      -7.664  -6.834  -7.273  0.00  0.00    +0.330 A 
ATOM     27  O   UNL     1      -7.977  -7.186  -8.395  0.00  0.00    -0.246 OA
ATOM     28  C   UNL     1      -6.826  -4.559  -7.897  0.00  0.00    +0.154 C 
ENDBRANCH  14  22
ENDBRANCH  12  14
ENDBRANCH   1  12
BRANCH   2  29
ATOM     29  N   UNL     1      -1.971  -5.270  -0.228  0.00  0.00    -0.338 N 
ATOM     30  H   UNL     1      -1.211  -5.688   0.206  0.00  0.00    +0.146 HD
BRANCH  29  31
ATOM     31  C   UNL     1      -3.064  -4.720   0.577  0.00  0.00    +0.137 C 
BRANCH  31  32
ATOM     32  C   UNL     1      -2.610  -4.573   2.007  0.00  0.00    -0.030 A 
ATOM     33  C   UNL     1      -2.695  -5.647   2.873  0.00  0.00    +0.005 A 
ATOM     34  C   UNL     1      -2.279  -5.513   4.184  0.00  0.00    +0.000 A 
ATOM     35  C   UNL     1      -1.777  -4.305   4.629  0.00  0.00    +0.000 A 
ATOM     36  C   UNL     1      -1.691  -3.231   3.763  0.00  0.00    +0.000 A 
ATOM     37  C   UNL     1      -2.103  -3.366   2.451  0.00  0.00    +0.005 A 
ENDBRANCH  31  32
ENDBRANCH  29  31
ENDBRANCH   2  29
TORSDOF 6
