REMARK  Name = ZINC39231213
REMARK  4 active torsions:
REMARK  status: ('A' for Active; 'I' for Inactive)
REMARK    1  A    between atoms: C_11  and  C_27
REMARK    2  A    between atoms: N_13  and  C_16
REMARK    3  A    between atoms: C_16  and  C_17
REMARK    4  A    between atoms: N_19  and  C_20
REMARK                            x       y       z     vdW  Elec       q    Type
REMARK                         _______ _______ _______ _____ _____    ______ ____
ROOT
ATOM      1  C   UNL     1       0.004   1.370   0.033  0.00  0.00    +0.001 A 
ATOM      2  C   UNL     1       1.191   2.090   0.037  0.00  0.00    +0.002 A 
ATOM      3  C   UNL     1       2.405   1.440   0.027  0.00  0.00    +0.026 A 
ATOM      4  C   UNL     1       2.446   0.050   0.013  0.00  0.00    +0.047 A 
ATOM      5  C   UNL     1       1.239  -0.677   0.009  0.00  0.00    +0.003 A 
ATOM      6  C   UNL     1       0.020   0.004   0.020  0.00  0.00    +0.010 A 
ATOM      7  C   UNL     1       1.624  -2.082  -0.007  0.00  0.00    -0.022 A 
ATOM      8  C   UNL     1       2.972  -2.133  -0.010  0.00  0.00    +0.011 A 
ATOM      9  N   UNL     1       3.477  -0.866   0.000  0.00  0.00    -0.359 N 
ATOM     10  H   UNL     1       4.421  -0.643  -0.001  0.00  0.00    +0.166 HD
ATOM     11  C   UNL     1       3.742  -3.433  -0.020  0.00  0.00    +0.015 C 
ATOM     12  N   UNL     1       2.838  -4.516   0.397  0.00  0.00    +0.394 N 
ATOM     13  C   UNL     1       1.618  -4.504  -0.421  0.00  0.00    -0.072 C 
ATOM     14  C   UNL     1       0.744  -3.306  -0.021  0.00  0.00    +0.019 C 
ATOM     15  H   UNL     1       2.591  -4.390   1.367  0.00  0.00    -0.080 HD
ENDROOT
BRANCH  11  16
ATOM     16  C   UNL     1       4.903  -3.341   0.936  0.00  0.00    -0.008 A 
ATOM     17  C   UNL     1       4.809  -3.910   2.193  0.00  0.00    +0.026 A 
ATOM     18  C   UNL     1       5.873  -3.829   3.073  0.00  0.00    +0.045 A 
ATOM     19  C   UNL     1       7.035  -3.177   2.699  0.00  0.00    +0.069 A 
ATOM     20  C   UNL     1       7.135  -2.605   1.442  0.00  0.00    +0.168 A 
ATOM     21  C   UNL     1       6.065  -2.692   0.553  0.00  0.00    +0.168 A 
ATOM     22  O   UNL     1       6.410  -2.063  -0.608  0.00  0.00    -0.452 OA
ATOM     23  C   UNL     1       7.546  -1.242  -0.278  0.00  0.00    +0.466 C 
ATOM     24  O   UNL     1       8.148  -1.918   0.837  0.00  0.00    -0.453 OA
ATOM     25 CL   UNL     1       5.751  -4.544   4.650  0.00  0.00    -0.083 Cl
ENDBRANCH  11  16
BRANCH  12  26
ATOM     26  C   UNL     1       3.519  -5.808   0.236  0.00  0.00    +0.020 C 
BRANCH  26  27
ATOM     27  C   UNL     1       2.643  -6.908   0.776  0.00  0.00    +0.201 C 
ATOM     28  O   UNL     1       1.558  -6.643   1.249  0.00  0.00    -0.278 OA
ATOM     29  N   UNL     1       3.064  -8.188   0.734  0.00  0.00    -0.286 N 
ATOM     30  H   UNL     1       3.895  -8.410   0.285  0.00  0.00    +0.155 HD
BRANCH  29  31
ATOM     31  C   UNL     1       2.304  -9.196   1.339  0.00  0.00    +0.052 A 
ATOM     32  C   UNL     1       1.442  -8.886   2.383  0.00  0.00    +0.025 A 
ATOM     33  C   UNL     1       0.694  -9.882   2.977  0.00  0.00    +0.002 A 
ATOM     34  C   UNL     1       0.801 -11.188   2.535  0.00  0.00    +0.002 A 
ATOM     35  C   UNL     1       1.658 -11.501   1.496  0.00  0.00    +0.022 A 
ATOM     36  C   UNL     1       2.406 -10.508   0.893  0.00  0.00    +0.062 A 
ATOM     37 CL   UNL     1       3.477 -10.899  -0.416  0.00  0.00    -0.082 Cl
ENDBRANCH  29  31
ENDBRANCH  26  27
ENDBRANCH  12  26
TORSDOF 4
