REMARK  Name = ZINC12023581
REMARK  6 active torsions:
REMARK  status: ('A' for Active; 'I' for Inactive)
REMARK    1  A    between atoms: C_4  and  C_27
REMARK    2  A    between atoms: C_5  and  C_7
REMARK    3  A    between atoms: C_7  and  N_8
REMARK    4  A    between atoms: C_14  and  C_16
REMARK    5  A    between atoms: C_16  and  C_17
REMARK    6  A    between atoms: N_19  and  C_20
REMARK                            x       y       z     vdW  Elec       q    Type
REMARK                         _______ _______ _______ _____ _____    ______ ____
ROOT
ATOM      1  N   UNL     1       1.321  -2.704   1.261  0.00  0.00    +0.391 N 
ATOM      2  C   UNL     1       0.116  -2.423   2.057  0.00  0.00    -0.058 C 
ATOM      3  C   UNL     1       0.477  -2.501   3.541  0.00  0.00    +0.085 C 
ATOM      4  N   UNL     1       1.173  -3.755   3.819  0.00  0.00    -0.318 N 
ATOM      5  C   UNL     1       1.730  -4.499   2.856  0.00  0.00    +0.200 C 
ATOM      6  O   UNL     1       2.311  -5.516   3.169  0.00  0.00    -0.278 OA
ATOM      7  C   UNL     1       1.664  -4.125   1.402  0.00  0.00    +0.028 C 
ATOM      8  H   UNL     1       1.235  -4.060   4.737  0.00  0.00    +0.149 HD
ATOM      9  H   UNL     1       2.087  -2.137   1.593  0.00  0.00    -0.080 HD
ENDROOT
BRANCH   1  10
ATOM     10  C   UNL     1       1.060  -2.400  -0.152  0.00  0.00    -0.041 C 
BRANCH  10  15
ATOM     11  C   UNL     1      -0.628   0.960  -0.494  0.00  0.00    +0.000 A 
ATOM     12  C   UNL     1       0.459   1.804  -0.618  0.00  0.00    +0.001 A 
ATOM     13  C   UNL     1       1.741   1.288  -0.591  0.00  0.00    +0.012 A 
ATOM     14  C   UNL     1       1.936  -0.073  -0.440  0.00  0.00    +0.056 A 
ATOM     15  C   UNL     1       0.848  -0.916  -0.316  0.00  0.00    -0.052 A 
ATOM     16  C   UNL     1      -0.434  -0.400  -0.344  0.00  0.00    +0.002 A 
BRANCH  14  17
ATOM     17  C   UNL     1       3.333  -0.635  -0.412  0.00  0.00    +0.418 C 
ATOM     18  F   UNL     1       4.253   0.387  -0.666  0.00  0.00    -0.166 F 
ATOM     19  F   UNL     1       3.588  -1.190   0.847  0.00  0.00    -0.166 F 
ATOM     20  F   UNL     1       3.456  -1.627  -1.392  0.00  0.00    -0.166 F 
ENDBRANCH  14  17
ENDBRANCH  10  15
ENDBRANCH   1  10
BRANCH   7  21
ATOM     21  C   UNL     1       3.023  -4.386   0.749  0.00  0.00    +0.089 C 
BRANCH  21  22
ATOM     22  C   UNL     1       3.292  -5.869   0.726  0.00  0.00    +0.212 C 
ATOM     23  O   UNL     1       2.425  -6.648   1.059  0.00  0.00    -0.276 OA
ATOM     24  N   UNL     1       4.498  -6.328   0.336  0.00  0.00    -0.312 N 
ATOM     25  H   UNL     1       5.192  -5.705   0.070  0.00  0.00    +0.149 HD
BRANCH  24  26
ATOM     26  C   UNL     1       4.760  -7.770   0.314  0.00  0.00    +0.073 C 
ATOM     27  C   UNL     1       5.130  -8.232   1.738  0.00  0.00    +0.022 C 
ATOM     28  C   UNL     1       4.899  -9.716   1.833  0.00  0.00    +0.002 C 
ATOM     29  C   UNL     1       6.174 -10.531   1.546  0.00  0.00    +0.000 C 
ATOM     30  C   UNL     1       6.986  -9.972   0.362  0.00  0.00    +0.000 C 
ATOM     31  C   UNL     1       6.112  -9.549  -0.787  0.00  0.00    +0.002 C 
ATOM     32  C   UNL     1       5.816  -8.042  -0.650  0.00  0.00    +0.022 C 
ENDBRANCH  24  26
ENDBRANCH  21  22
ENDBRANCH   7  21
TORSDOF 6
