REMARK  Name = ZINC38688442
REMARK  10 active torsions:
REMARK  status: ('A' for Active; 'I' for Inactive)
REMARK    1  A    between atoms: C_1  and  O_2
REMARK    2  A    between atoms: O_2  and  C_3
REMARK    3  A    between atoms: C_6  and  C_11
REMARK    4  A    between atoms: C_7  and  O_9
REMARK    5  A    between atoms: O_9  and  C_10
REMARK    6  A    between atoms: C_16  and  O_25
REMARK    7  A    between atoms: C_20  and  N_24
REMARK    8  A    between atoms: C_21  and  C_22
REMARK    9  A    between atoms: O_25  and  C_26
REMARK   10  A    between atoms: C_26  and  C_28
REMARK                            x       y       z     vdW  Elec       q    Type
REMARK                         _______ _______ _______ _____ _____    ______ ____
ROOT
ATOM      1  C   UNL     1      -5.007  -2.565   0.010  0.00  0.00    +0.101 C 
ATOM      2  C   UNL     1      -5.760  -2.188   1.258  0.00  0.00    +0.008 A 
ATOM      3  C   UNL     1      -5.469  -2.830   2.449  0.00  0.00    +0.012 A 
ATOM      4  C   UNL     1      -6.150  -2.497   3.603  0.00  0.00    +0.047 A 
ATOM      5  C   UNL     1      -7.130  -1.515   3.572  0.00  0.00    +0.135 A 
ATOM      6  C   UNL     1      -7.424  -0.870   2.382  0.00  0.00    +0.093 A 
ATOM      7  C   UNL     1      -6.738  -1.206   1.221  0.00  0.00    +0.138 A 
ATOM      8  O   UNL     1      -7.037  -0.566   0.064  0.00  0.00    -0.441 OA
ATOM      9  C   UNL     1      -6.692  -1.113  -1.113  0.00  0.00    +0.199 C 
ATOM     10  C   UNL     1      -5.737  -2.064  -1.205  0.00  0.00    +0.098 C 
ENDROOT
BRANCH   1  14
ATOM     11  C   UNL     1      -1.101  -0.828   0.134  0.00  0.00    +0.124 A 
ATOM     12  C   UNL     1      -2.226  -0.017   0.165  0.00  0.00    +0.046 A 
ATOM     13  C   UNL     1      -3.487  -0.580   0.124  0.00  0.00    +0.012 A 
ATOM     14  C   UNL     1      -3.631  -1.953   0.053  0.00  0.00    +0.007 A 
ATOM     15  C   UNL     1      -2.508  -2.768   0.022  0.00  0.00    +0.128 A 
ATOM     16  C   UNL     1      -1.242  -2.205   0.057  0.00  0.00    +0.091 A 
BRANCH  11  18
ATOM     17  C   UNL     1       0.209   1.152   0.254  0.00  0.00    +0.277 C 
ATOM     18  O   UNL     1       0.139  -0.273   0.174  0.00  0.00    -0.495 OA
ENDBRANCH  11  18
BRANCH  15  19
ATOM     19  O   UNL     1      -2.650  -4.118  -0.047  0.00  0.00    -0.495 OA
ATOM     20  C   UNL     1      -1.452  -4.896  -0.075  0.00  0.00    +0.277 C 
ENDBRANCH  15  19
ENDBRANCH   1  14
BRANCH   9  21
ATOM     21  N   UNL     1      -7.327  -0.692  -2.255  0.00  0.00    -0.328 N 
ATOM     22  H   UNL     1      -8.014  -0.010  -2.204  0.00  0.00    +0.145 HD
ATOM     23  H   UNL     1      -7.089  -1.077  -3.113  0.00  0.00    +0.145 HD
ENDBRANCH   9  21
BRANCH  10  24
ATOM     24  C   UNL     1      -5.414  -2.605  -2.490  0.00  0.00    +0.101 C 
ATOM     25  N   UNL     1      -5.157  -3.035  -3.510  0.00  0.00    -0.191 NA
ENDBRANCH  10  24
BRANCH   5  26
ATOM     26  O   UNL     1      -7.801  -1.188   4.707  0.00  0.00    -0.422 OA
BRANCH  26  27
ATOM     27  C   UNL     1      -9.104  -1.523   4.791  0.00  0.00    +0.351 C 
ATOM     28  O   UNL     1      -9.617  -2.192   3.915  0.00  0.00    -0.244 OA
BRANCH  27  29
ATOM     29  C   UNL     1      -9.905  -1.080   5.943  0.00  0.00    +0.144 A 
ATOM     30  C   UNL     1     -11.248  -1.415   6.060  0.00  0.00    +0.033 A 
ATOM     31  C   UNL     1     -11.963  -0.924   7.183  0.00  0.00    +0.018 A 
ATOM     32  C   UNL     1     -13.257  -1.388   7.461  0.00  0.00    +0.011 A 
ATOM     33  C   UNL     1     -13.915  -0.937   8.569  0.00  0.00    +0.001 A 
ATOM     34  C   UNL     1     -13.318  -0.017   9.420  0.00  0.00    +0.004 A 
ATOM     35  C   UNL     1     -12.054   0.468   9.155  0.00  0.00    +0.047 A 
ATOM     36  C   UNL     1     -11.368   0.029   8.030  0.00  0.00    +0.139 A 
ATOM     37  O   UNL     1     -10.144   0.529   7.736  0.00  0.00    -0.422 OA
ATOM     38  C   UNL     1      -9.313  -0.268   7.022  0.00  0.00    +0.351 A 
ATOM     39  O   UNL     1      -8.120  -0.310   7.258  0.00  0.00    -0.244 OA
ENDBRANCH  27  29
ENDBRANCH  26  27
ENDBRANCH   5  26
TORSDOF 8
