REMARK  Name = ZINC38556291
REMARK  8 active torsions:
REMARK  status: ('A' for Active; 'I' for Inactive)
REMARK    1  A    between atoms: C_1  and  C_2
REMARK    2  A    between atoms: C_5  and  C_8
REMARK    3  A    between atoms: C_10  and  C_14
REMARK    4  A    between atoms: C_18  and  S_22
REMARK    5  A    between atoms: N_20  and  N_21
REMARK    6  A    between atoms: S_22  and  C_23
REMARK    7  A    between atoms: C_23  and  C_24
REMARK    8  A    between atoms: C_24  and  C_26
REMARK                            x       y       z     vdW  Elec       q    Type
REMARK                         _______ _______ _______ _____ _____    ______ ____
ROOT
ATOM      1  C   UNL     1       1.358  -7.180   0.973  0.00  0.00    +0.244 C 
ATOM      2  N   UNL     1       2.550  -6.518   0.428  0.00  0.00    -0.167 NA
ATOM      3  N   UNL     1       3.344  -7.340  -0.038  0.00  0.00    -0.159 NA
ATOM      4  C   UNL     1       2.836  -8.711   0.106  0.00  0.00    +0.272 C 
ATOM      5  N   UNL     1       1.388  -8.550   0.401  0.00  0.00    -0.183 NA
ENDROOT
BRANCH   1   8
ATOM      6  C   UNL     1       0.061  -4.256  -0.021  0.00  0.00    +0.091 C 
ATOM      7  C   UNL     1       0.071  -5.030   1.081  0.00  0.00    +0.035 C 
ATOM      8  C   UNL     1       0.090  -6.445   0.530  0.00  0.00    +0.195 C 
ATOM      9  N   UNL     1       0.087  -6.239  -0.927  0.00  0.00    -0.176 NA
ATOM     10  N   UNL     1       0.065  -5.025  -1.142  0.00  0.00    -0.154 NA
BRANCH   6  15
ATOM     11  C   UNL     1      -0.018   1.503   0.010  0.00  0.00    +0.044 C 
ATOM     12  C   UNL     1       0.002  -0.004   0.002  0.00  0.00    -0.050 A 
ATOM     13  C   UNL     1       0.006  -0.686  -1.201  0.00  0.00    +0.004 A 
ATOM     14  C   UNL     1       0.025  -2.066  -1.215  0.00  0.00    +0.010 A 
ATOM     15  C   UNL     1       0.041  -2.772  -0.013  0.00  0.00    +0.002 A 
ATOM     16  C   UNL     1       0.037  -2.080   1.196  0.00  0.00    +0.010 A 
ATOM     17  C   UNL     1       0.023  -0.700   1.198  0.00  0.00    +0.004 A 
ENDBRANCH   6  15
ENDBRANCH   1   8
BRANCH   5  18
ATOM     18  N   UNL     1       0.939  -9.531   1.375  0.00  0.00    -0.263 NA
ATOM     19  H   UNL     1       0.960 -10.462   0.986  0.00  0.00    +0.137 HD
ATOM     20  H   UNL     1       1.489  -9.480   2.219  0.00  0.00    +0.137 HD
ENDBRANCH   5  18
BRANCH   4  21
ATOM     21  S   UNL     1       3.072  -9.638  -1.435  0.00  0.00    -0.108 S 
BRANCH  21  22
ATOM     22  C   UNL     1       2.163  -8.672  -2.672  0.00  0.00    +0.152 C 
BRANCH  22  23
ATOM     23  C   UNL     1       2.280  -9.342  -4.017  0.00  0.00    +0.173 C 
ATOM     24  O   UNL     1       2.914 -10.369  -4.130  0.00  0.00    -0.291 OA
BRANCH  23  25
ATOM     25  C   UNL     1       1.625  -8.749  -5.193  0.00  0.00    +0.018 A 
ATOM     26  C   UNL     1       0.897  -7.561  -5.068  0.00  0.00    +0.012 A 
ATOM     27  C   UNL     1       0.286  -7.011  -6.175  0.00  0.00    +0.016 A 
ATOM     28  C   UNL     1       0.391  -7.633  -7.408  0.00  0.00    +0.018 A 
ATOM     29  C   UNL     1       1.110  -8.810  -7.540  0.00  0.00    +0.016 A 
ATOM     30  C   UNL     1       1.731  -9.368  -6.443  0.00  0.00    +0.012 A 
ATOM     31 BR   UNL     1      -0.452  -6.871  -8.920  0.00  0.00    -0.050 Br
ENDBRANCH  23  25
ENDBRANCH  22  23
ENDBRANCH  21  22
ENDBRANCH   4  21
TORSDOF 7
