REMARK  Name = ZINC39290208
REMARK  11 active torsions:
REMARK  status: ('A' for Active; 'I' for Inactive)
REMARK    1  A    between atoms: C_1  and  C_2
REMARK    2  A    between atoms: C_2  and  O_3
REMARK    3  A    between atoms: O_3  and  C_4
REMARK    4  A    between atoms: C_4  and  C_6
REMARK    5  A    between atoms: C_8  and  N_21
REMARK    6  A    between atoms: N_10  and  C_13
REMARK    7  A    between atoms: C_13  and  C_14
REMARK    8  A    between atoms: C_17  and  C_20
REMARK    9  A    between atoms: C_22  and  C_24
REMARK   10  A    between atoms: C_24  and  S_25
REMARK   11  A    between atoms: S_25  and  C_26
REMARK                            x       y       z     vdW  Elec       q    Type
REMARK                         _______ _______ _______ _____ _____    ______ ____
ROOT
ATOM      1  C   UNL     1       1.516  -2.381   2.500  0.00  0.00    +0.182 C 
ATOM      2  C   UNL     1       0.577  -2.431   3.725  0.00  0.00    +0.071 C 
ATOM      3  N   UNL     1       0.884  -3.710   4.401  0.00  0.00    +0.413 N 
ATOM      4  N   UNL     1       1.957  -4.351   3.638  0.00  0.00    -0.297 NA
ATOM      5  N   UNL     1       1.858  -3.811   2.273  0.00  0.00    -0.257 NA
ATOM      6  H   UNL     1       2.859  -4.146   4.041  0.00  0.00    +0.119 HD
ATOM      7  H   UNL     1       1.131  -4.278   1.752  0.00  0.00    +0.140 HD
ATOM      8  H   UNL     1       0.066  -4.301   4.405  0.00  0.00    -0.051 HD
ENDROOT
BRANCH   2   9
ATOM      9  N   UNL     1      -0.823  -2.406   3.293  0.00  0.00    -0.324 N 
ATOM     10  C   UNL     1      -1.713  -1.626   3.938  0.00  0.00    +0.222 C 
ATOM     11  O   UNL     1      -1.355  -0.945   4.875  0.00  0.00    -0.275 OA
ATOM     12  H   UNL     1      -1.109  -2.951   2.543  0.00  0.00    +0.147 HD
BRANCH  10  13
ATOM     13  C   UNL     1      -3.153  -1.600   3.493  0.00  0.00    +0.173 C 
BRANCH  13  14
ATOM     14  S   UNL     1      -4.091  -0.464   4.551  0.00  0.00    -0.075 S 
BRANCH  14  15
ATOM     15  C   UNL     1      -5.732  -0.544   3.912  0.00  0.00    +0.209 A 
ATOM     16  H   UNL     1      -8.076  -1.437   2.060  0.00  0.00    +0.190 HD
ATOM     17  N   UNL     1      -6.784   0.135   4.381  0.00  0.00    -0.210 NA
ATOM     18  C   UNL     1      -7.848  -0.157   3.677  0.00  0.00    +0.217 A 
ATOM     19  N   UNL     1      -7.495  -1.041   2.729  0.00  0.00    -0.264 N 
ATOM     20  N   UNL     1      -6.121  -1.276   2.894  0.00  0.00    -0.146 NA
ENDBRANCH  14  15
ENDBRANCH  13  14
ENDBRANCH  10  13
ENDBRANCH   2   9
BRANCH   1  21
ATOM     21  C   UNL     1       0.801  -1.808   1.304  0.00  0.00    +0.326 C 
ATOM     22  O   UNL     1       0.324  -2.546   0.475  0.00  0.00    -0.249 OA
BRANCH  21  23
ATOM     23  O   UNL     1       0.693  -0.477   1.160  0.00  0.00    -0.464 OA
BRANCH  23  25
ATOM     24  C   UNL     1      -0.019   1.526   0.010  0.00  0.00    +0.048 C 
ATOM     25  C   UNL     1       0.002  -0.004   0.002  0.00  0.00    +0.229 C 
ENDBRANCH  23  25
ENDBRANCH  21  23
ENDBRANCH   1  21
BRANCH   3  26
ATOM     26  C   UNL     1       1.330  -3.455   5.777  0.00  0.00    -0.015 C 
BRANCH  26  27
ATOM     27  C   UNL     1       1.522  -4.767   6.494  0.00  0.00    -0.061 A 
ATOM     28  C   UNL     1       0.469  -5.339   7.182  0.00  0.00    +0.002 A 
ATOM     29  C   UNL     1       0.645  -6.542   7.840  0.00  0.00    +0.003 A 
ATOM     30  C   UNL     1       1.874  -7.173   7.809  0.00  0.00    -0.050 A 
ATOM     31  C   UNL     1       2.927  -6.602   7.120  0.00  0.00    +0.003 A 
ATOM     32  C   UNL     1       2.750  -5.401   6.458  0.00  0.00    +0.002 A 
ATOM     33  C   UNL     1       2.066  -8.484   8.526  0.00  0.00    +0.044 C 
ENDBRANCH  26  27
ENDBRANCH   3  26
TORSDOF 9
