REMARK  Name = ZINC43082544
REMARK  6 active torsions:
REMARK  status: ('A' for Active; 'I' for Inactive)
REMARK    1  A    between atoms: C_1  and  C_2
REMARK    2  A    between atoms: C_3  and  C_17
REMARK    3  A    between atoms: C_5  and  C_7
REMARK    4  A    between atoms: C_10  and  C_13
REMARK    5  A    between atoms: C_17  and  N_18
REMARK    6  A    between atoms: C_22  and  C_24
REMARK                            x       y       z     vdW  Elec       q    Type
REMARK                         _______ _______ _______ _____ _____    ______ ____
ROOT
ATOM      1  C   UNL     1      -0.441   2.326  -0.018  0.00  0.00    +0.088 C 
ATOM      2  C   UNL     1      -0.081   0.863  -0.013  0.00  0.00    +0.124 A 
ATOM      3  C   UNL     1      -0.942  -0.171   0.000  0.00  0.00    +0.066 A 
ATOM      4  N   UNL     1      -0.224  -1.304   0.001  0.00  0.00    -0.216 NA
ATOM      5  C   UNL     1       1.051  -0.993  -0.011  0.00  0.00    +0.228 A 
ATOM      6  O   UNL     1       1.164   0.346  -0.026  0.00  0.00    -0.440 OA
ENDROOT
BRANCH   5   7
ATOM      7  C   UNL     1       2.174  -1.955  -0.015  0.00  0.00    +0.037 A 
ATOM      8  C   UNL     1       1.921  -3.328  -0.011  0.00  0.00    +0.014 A 
ATOM      9  C   UNL     1       2.973  -4.220  -0.015  0.00  0.00    +0.013 A 
ATOM     10  C   UNL     1       4.277  -3.756  -0.023  0.00  0.00    +0.055 A 
ATOM     11  C   UNL     1       4.534  -2.397  -0.026  0.00  0.00    +0.013 A 
ATOM     12  C   UNL     1       3.491  -1.494  -0.028  0.00  0.00    +0.014 A 
BRANCH  10  13
ATOM     13  C   UNL     1       5.422  -4.736  -0.027  0.00  0.00    +0.417 C 
ATOM     14  F   UNL     1       5.769  -5.042  -1.347  0.00  0.00    -0.166 F 
ATOM     15  F   UNL     1       6.522  -4.170   0.626  0.00  0.00    -0.166 F 
ATOM     16  F   UNL     1       5.037  -5.906   0.637  0.00  0.00    -0.166 F 
ENDBRANCH  10  13
ENDBRANCH   5   7
BRANCH   3  17
ATOM     17  C   UNL     1      -2.446  -0.073   0.012  0.00  0.00    -0.018 C 
BRANCH  17  18
ATOM     18  N   UNL     1      -2.946  -0.049  -1.369  0.00  0.00    +0.390 N 
ATOM     19  C   UNL     1      -2.687  -1.353  -2.015  0.00  0.00    -0.077 C 
ATOM     20  C   UNL     1      -3.915  -1.593  -2.928  0.00  0.00    -0.020 C 
ATOM     21  C   UNL     1      -5.066  -1.010  -2.066  0.00  0.00    -0.009 C 
ATOM     22  C   UNL     1      -4.400   0.194  -1.366  0.00  0.00    +0.001 C 
ATOM     23  H   UNL     1      -2.481   0.683  -1.886  0.00  0.00    -0.080 HD
BRANCH  22  24
ATOM     24  C   UNL     1      -4.899   0.302   0.052  0.00  0.00    +0.118 A 
ATOM     25  N   UNL     1      -4.895  -0.711   0.980  0.00  0.00    -0.295 N 
ATOM     26  C   UNL     1      -5.417  -0.235   2.129  0.00  0.00    +0.341 A 
ATOM     27  O   UNL     1      -5.567  -0.858   3.165  0.00  0.00    -0.245 OA
ATOM     28  N   UNL     1      -5.741   1.058   1.920  0.00  0.00    -0.227 N 
ATOM     29  N   UNL     1      -5.395   1.366   0.597  0.00  0.00    -0.158 NA
ATOM     30  H   UNL     1      -4.573  -1.614   0.834  0.00  0.00    +0.172 HD
ATOM     31  H   UNL     1      -6.137   1.663   2.566  0.00  0.00    +0.194 HD
ENDBRANCH  22  24
ENDBRANCH  17  18
ENDBRANCH   3  17
TORSDOF 5
