REMARK  Name = ZINC07363716
REMARK  6 active torsions:
REMARK  status: ('A' for Active; 'I' for Inactive)
REMARK    1  A    between atoms: C_1  and  O_2
REMARK    2  A    between atoms: O_2  and  C_3
REMARK    3  A    between atoms: C_6  and  N_9
REMARK    4  A    between atoms: C_10  and  C_21
REMARK    5  A    between atoms: C_23  and  O_29
REMARK    6  A    between atoms: C_24  and  O_28
REMARK                            x       y       z     vdW  Elec       q    Type
REMARK                         _______ _______ _______ _____ _____    ______ ____
ROOT
ATOM      1  N   UNL     1      -0.017   1.396   0.010  0.00  0.00    -0.244 N 
ATOM      2  C   UNL     1      -1.290   2.097   0.182  0.00  0.00    +0.198 C 
ATOM      3  N   UNL     1      -1.079   3.356   0.912  0.00  0.00    -0.321 N 
ATOM      4  C   UNL     1       0.001   4.158   0.561  0.00  0.00    +0.041 A 
ATOM      5  C   UNL     1      -0.024   5.531   0.732  0.00  0.00    +0.024 A 
ATOM      6  C   UNL     1       1.084   6.284   0.394  0.00  0.00    +0.002 A 
ATOM      7  C   UNL     1       2.222   5.674  -0.112  0.00  0.00    +0.001 A 
ATOM      8  C   UNL     1       2.262   4.307  -0.293  0.00  0.00    +0.015 A 
ATOM      9  C   UNL     1       1.147   3.538   0.032  0.00  0.00    +0.058 A 
ATOM     10  C   UNL     1       1.137   2.075  -0.147  0.00  0.00    +0.254 C 
ATOM     11  O   UNL     1       2.161   1.485  -0.434  0.00  0.00    -0.270 OA
ATOM     12  H   UNL     1      -1.683   3.623   1.623  0.00  0.00    +0.148 HD
ENDROOT
BRANCH   2  13
ATOM     13  C   UNL     1      -1.883   2.393  -1.171  0.00  0.00    -0.004 A 
ATOM     14  C   UNL     1      -2.681   3.509  -1.346  0.00  0.00    +0.056 A 
ATOM     15  C   UNL     1      -3.227   3.783  -2.589  0.00  0.00    +0.160 A 
ATOM     16  C   UNL     1      -2.972   2.933  -3.661  0.00  0.00    +0.177 A 
ATOM     17  C   UNL     1      -2.172   1.815  -3.480  0.00  0.00    +0.086 A 
ATOM     18  C   UNL     1      -1.625   1.551  -2.237  0.00  0.00    +0.031 A 
ATOM     19 CL   UNL     1      -1.850   0.752  -4.814  0.00  0.00    -0.080 Cl
BRANCH  16  20
ATOM     20  O   UNL     1      -3.506   3.198  -4.884  0.00  0.00    -0.502 OA
ATOM     21  H   UNL     1      -2.947   3.752  -5.446  0.00  0.00    +0.292 HD
ENDBRANCH  16  20
BRANCH  15  22
ATOM     22  O   UNL     1      -4.011   4.881  -2.762  0.00  0.00    -0.503 OA
ATOM     23  H   UNL     1      -3.523   5.675  -3.021  0.00  0.00    +0.292 HD
ENDBRANCH  15  22
ENDBRANCH   2  13
BRANCH   1  27
ATOM     24  C   UNL     1       0.040  -2.773  -0.013  0.00  0.00    +0.120 A 
ATOM     25  C   UNL     1       0.528  -2.067  -1.103  0.00  0.00    +0.047 A 
ATOM     26  C   UNL     1       0.509  -0.686  -1.096  0.00  0.00    +0.027 A 
ATOM     27  C   UNL     1       0.002  -0.004   0.002  0.00  0.00    +0.039 A 
ATOM     28  C   UNL     1      -0.481  -0.711   1.095  0.00  0.00    +0.027 A 
ATOM     29  C   UNL     1      -0.467  -2.092   1.084  0.00  0.00    +0.047 A 
BRANCH  24  31
ATOM     30  C   UNL     1      -0.460  -4.794   1.135  0.00  0.00    +0.277 C 
ATOM     31  O   UNL     1       0.059  -4.132  -0.021  0.00  0.00    -0.495 OA
ENDBRANCH  24  31
ENDBRANCH   1  27
TORSDOF 5
