REMARK  Name = ZINC35560271
REMARK  8 active torsions:
REMARK  status: ('A' for Active; 'I' for Inactive)
REMARK    1  A    between atoms: C_1  and  C_2
REMARK    2  A    between atoms: C_2  and  N_3
REMARK    3  A    between atoms: N_3  and  C_4
REMARK    4  A    between atoms: C_4  and  C_6
REMARK    5  A    between atoms: C_4  and  C_15
REMARK    6  A    between atoms: C_9  and  C_12
REMARK    7  A    between atoms: C_12  and  C_13
REMARK    8  A    between atoms: C_12  and  C_14
REMARK                            x       y       z     vdW  Elec       q    Type
REMARK                         _______ _______ _______ _____ _____    ______ ____
ROOT
ATOM      1  C   UNL     1       0.710  -1.947  -1.215  0.00  0.00    -0.008 C 
ENDROOT
BRANCH   1   2
ATOM      2  C   UNL     1      -0.700  -2.467  -1.328  0.00  0.00    -0.035 A 
ATOM      3  C   UNL     1      -1.689  -1.696  -1.910  0.00  0.00    +0.026 A 
ATOM      4  C   UNL     1      -2.947  -2.195  -1.995  0.00  0.00    +0.056 A 
ATOM      5  S   UNL     1      -2.760  -3.801  -1.240  0.00  0.00    -0.074 S 
ATOM      6  C   UNL     1      -1.017  -3.703  -0.866  0.00  0.00    +0.058 A 
ATOM      7 BR   UNL     1       0.098  -4.986  -0.038  0.00  0.00    -0.042 Br
ATOM      8 BR   UNL     1      -4.498  -1.396  -2.725  0.00  0.00    -0.043 Br
ENDBRANCH   1   2
BRANCH   1   9
ATOM      9  C   UNL     1       1.520  -2.432  -2.389  0.00  0.00    -0.057 A 
ATOM     10  C   UNL     1       1.423  -1.788  -3.609  0.00  0.00    +0.002 A 
ATOM     11  C   UNL     1       2.166  -2.233  -4.686  0.00  0.00    +0.004 A 
ATOM     12  C   UNL     1       3.007  -3.321  -4.543  0.00  0.00    -0.045 A 
ATOM     13  C   UNL     1       3.105  -3.963  -3.323  0.00  0.00    +0.004 A 
ATOM     14  C   UNL     1       2.365  -3.516  -2.245  0.00  0.00    +0.002 A 
BRANCH  12  15
ATOM     15  C   UNL     1       3.817  -3.807  -5.718  0.00  0.00    +0.013 C 
ATOM     16  C   UNL     1       5.307  -3.728  -5.378  0.00  0.00    +0.012 C 
ATOM     17  C   UNL     1       3.442  -5.256  -6.032  0.00  0.00    +0.012 C 
ENDBRANCH  12  15
ENDBRANCH   1   9
BRANCH   1  18
ATOM     18  N   UNL     1       0.690  -0.478  -1.207  0.00  0.00    +0.386 N 
ATOM     19  H   UNL     1       0.202  -0.144  -2.024  0.00  0.00    -0.085 HD
ATOM     20  H   UNL     1       1.636  -0.129  -1.214  0.00  0.00    -0.085 HD
BRANCH  18  22
ATOM     21  C   UNL     1      -0.019   1.526   0.010  0.00  0.00    -0.017 C 
ATOM     22  C   UNL     1       0.002  -0.004   0.002  0.00  0.00    -0.085 C 
ENDBRANCH  18  22
ENDBRANCH   1  18
TORSDOF 5
