REMARK  Name = ZINC41027062
REMARK  4 active torsions:
REMARK  status: ('A' for Active; 'I' for Inactive)
REMARK    1  A    between atoms: C_3  and  S_11
REMARK    2  A    between atoms: CA_5  and  C_8
REMARK    3  A    between atoms: S_11  and  C_12
REMARK    4  A    between atoms: C_18  and  N_20
REMARK                            x       y       z     vdW  Elec       q    Type
REMARK                         _______ _______ _______ _____ _____    ______ ____
ROOT
ATOM      1  S   UNL     1       3.952   2.661  -0.063  0.00  0.00    -0.032 S 
ENDROOT
BRANCH   1   2
ATOM      2  C   UNL     1       5.350   1.595   0.064  0.00  0.00    +0.177 A 
ATOM      3  N   UNL     1       6.595   2.138   0.167  0.00  0.00    -0.302 N 
ATOM      4  H   UNL     1       6.704   3.101   0.169  0.00  0.00    +0.171 HD
ATOM      5  C   UNL     1       7.676   1.337   0.266  0.00  0.00    +0.254 A 
ATOM      6  O   UNL     1       8.796   1.815   0.359  0.00  0.00    -0.268 OA
ATOM      7  C   UNL     1       7.493  -0.049   0.259  0.00  0.00    +0.113 A 
ATOM      8  C   UNL     1       6.204  -0.552   0.152  0.00  0.00    +0.124 A 
ATOM      9  N   UNL     1       5.169   0.291   0.062  0.00  0.00    -0.208 NA
BRANCH   8  10
ATOM     10  N   UNL     1       5.990  -1.915   0.142  0.00  0.00    -0.343 N 
ATOM     11  H   UNL     1       6.745  -2.525   0.137  0.00  0.00    +0.144 HD
ATOM     12  H   UNL     1       5.085  -2.264   0.141  0.00  0.00    +0.144 HD
ENDBRANCH   8  10
ENDBRANCH   1   2
BRANCH   1  15
ATOM     13  C   UNL     1       0.203   1.223   0.108  0.00  0.00    +0.025 A 
ATOM     14  C   UNL     1       1.280   2.087   0.053  0.00  0.00    +0.036 A 
ATOM     15  C   UNL     1       2.573   1.565   0.008  0.00  0.00    +0.105 A 
ATOM     16  N   UNL     1       2.776   0.262   0.019  0.00  0.00    -0.232 NA
ATOM     17  CA  UNL     1       1.765  -0.600   0.072  0.00  0.00    +0.171 A 
ATOM     18  C   UNL     1       0.448  -0.145   0.118  0.00  0.00    +0.074 A 
ATOM     19 CL   UNL     1      -0.870  -1.273   0.188  0.00  0.00    -0.081 Cl
BRANCH  17  20
ATOM     20  C   UNL     1       2.039  -2.052   0.081  0.00  0.00    +0.406 C 
ATOM     21  O   UNL     1       3.191  -2.456   0.143  0.00  0.00    -0.239 OA
ATOM     22  OXT UNL     1       1.113  -2.849   0.027  0.00  0.00    -0.239 OA
ENDBRANCH  17  20
ENDBRANCH   1  15
TORSDOF 4
