REMARK  Name = ZINC39662301
REMARK  5 active torsions:
REMARK  status: ('A' for Active; 'I' for Inactive)
REMARK    1  A    between atoms: C_4  and  C_7
REMARK    2  A    between atoms: C_7  and  C_9
REMARK    3  A    between atoms: C_7  and  N_11
REMARK    4  A    between atoms: C_12  and  C_14
REMARK    5  A    between atoms: C_25  and  C_27
REMARK                            x       y       z     vdW  Elec       q    Type
REMARK                         _______ _______ _______ _____ _____    ______ ____
ROOT
ATOM      1  C   UNL     1       4.372  -4.091   2.668  0.00  0.00    +0.100 C 
ATOM      2  C   UNL     1       3.804  -5.091   1.636  0.00  0.00    +0.121 C 
ATOM      3  N   UNL     1       4.994  -5.803   1.111  0.00  0.00    -0.296 N 
ATOM      4  C   UNL     1       5.858  -6.001   2.299  0.00  0.00    +0.115 C 
ATOM      5  C   UNL     1       5.718  -4.694   3.103  0.00  0.00    -0.004 C 
ATOM      6  C   UNL     1       5.704  -4.993   4.599  0.00  0.00    -0.010 C 
ATOM      7  C   UNL     1       7.072  -5.537   5.019  0.00  0.00    -0.082 C 
ATOM      8  N   UNL     1       8.111  -4.548   4.708  0.00  0.00    +0.379 N 
ATOM      9  C   UNL     1       8.181  -4.335   3.257  0.00  0.00    -0.082 C 
ATOM     10  C   UNL     1       6.859  -3.740   2.762  0.00  0.00    -0.010 C 
ATOM     11  C   UNL     1       5.234  -6.183  -0.159  0.00  0.00    +0.247 C 
ATOM     12  O   UNL     1       4.484  -5.837  -1.050  0.00  0.00    -0.270 OA
ATOM     13  H   UNL     1       7.890  -3.675   5.164  0.00  0.00    -0.086 HD
ATOM     14  H   UNL     1       9.003  -4.882   5.040  0.00  0.00    -0.086 HD
ENDROOT
BRANCH  11  15
ATOM     15  C   UNL     1       6.412  -7.022  -0.469  0.00  0.00    +0.040 A 
ATOM     16  C   UNL     1       7.019  -7.775   0.537  0.00  0.00    +0.033 A 
ATOM     17  C   UNL     1       8.118  -8.557   0.242  0.00  0.00    +0.043 A 
ATOM     18  C   UNL     1       8.618  -8.595  -1.049  0.00  0.00    +0.040 A 
ATOM     19  C   UNL     1       8.020  -7.850  -2.051  0.00  0.00    +0.043 A 
ATOM     20  C   UNL     1       6.916  -7.069  -1.769  0.00  0.00    +0.033 A 
ATOM     21 CL   UNL     1       8.654  -7.903  -3.666  0.00  0.00    -0.083 Cl
ATOM     22 CL   UNL     1       8.876  -9.494   1.492  0.00  0.00    -0.083 Cl
ENDBRANCH  11  15
BRANCH   1  24
ATOM     23  N   UNL     1       4.605  -1.632   2.794  0.00  0.00    -0.296 N 
ATOM     24  C   UNL     1       4.583  -2.742   2.030  0.00  0.00    +0.219 C 
ATOM     25  O   UNL     1       4.733  -2.655   0.830  0.00  0.00    -0.275 OA
ATOM     26  H   UNL     1       4.485  -1.701   3.754  0.00  0.00    +0.150 HD
BRANCH  23  27
ATOM     27  C   UNL     1       4.810  -0.320   2.174  0.00  0.00    +0.207 C 
BRANCH  27  31
ATOM     28  C   UNL     1       6.464   2.372   5.049  0.00  0.00    +0.000 A 
ATOM     29  C   UNL     1       6.917   2.392   3.743  0.00  0.00    +0.000 A 
ATOM     30  C   UNL     1       6.381   1.520   2.813  0.00  0.00    +0.006 A 
ATOM     31  C   UNL     1       5.394   0.629   3.189  0.00  0.00    -0.013 A 
ATOM     32  C   UNL     1       4.941   0.609   4.495  0.00  0.00    +0.006 A 
ATOM     33  C   UNL     1       5.476   1.481   5.425  0.00  0.00    +0.000 A 
ENDBRANCH  27  31
BRANCH  27  34
ATOM     34  C   UNL     1       3.520   0.204   1.697  0.00  0.00    +0.090 C 
ATOM     35  N   UNL     1       2.524   0.609   1.329  0.00  0.00    -0.194 NA
ENDBRANCH  27  34
ENDBRANCH  23  27
ENDBRANCH   1  24
TORSDOF 5
