REMARK  Name = ZINC09547856
REMARK  13 active torsions:
REMARK  status: ('A' for Active; 'I' for Inactive)
REMARK    1  A    between atoms: C_1  and  C_2
REMARK    2  A    between atoms: C_2  and  C_4
REMARK    3  A    between atoms: C_2  and  N_11
REMARK    4  A    between atoms: N_6  and  C_7
REMARK    5  A    between atoms: C_7  and  C_8
REMARK    6  A    between atoms: C_8  and  N_64
REMARK    7  A    between atoms: C_9  and  N_64
REMARK    8  A    between atoms: C_10  and  N_64
REMARK    9  A    between atoms: C_12  and  C_14
REMARK   10  A    between atoms: C_18  and  C_22
REMARK   11  A    between atoms: C_22  and  N_23
REMARK   12  A    between atoms: N_23  and  S_24
REMARK   13  A    between atoms: S_24  and  C_27
REMARK                            x       y       z     vdW  Elec       q    Type
REMARK                         _______ _______ _______ _____ _____    ______ ____
ROOT
ATOM      1  C   UNL     1      -0.753   1.593  -1.232  0.00  0.00    +0.075 C 
ATOM      2  C   UNL     1      -0.013   1.086   0.008  0.00  0.00    +0.013 C 
ATOM      3  C   UNL     1      -0.729   1.579   1.267  0.00  0.00    +0.005 C 
ATOM      4  C   UNL     1      -2.164   1.050   1.278  0.00  0.00    +0.005 C 
ATOM      5  C   UNL     1      -2.904   1.556   0.038  0.00  0.00    +0.005 C 
ATOM      6  C   UNL     1      -2.188   1.063  -1.221  0.00  0.00    +0.013 C 
ENDROOT
BRANCH   1   8
ATOM      7  N   UNL     1      -0.524   1.433  -3.689  0.00  0.00    -0.304 N 
ATOM      8  C   UNL     1      -0.047   1.107  -2.471  0.00  0.00    +0.217 C 
ATOM      9  O   UNL     1       0.949   0.422  -2.373  0.00  0.00    -0.275 OA
ATOM     10  H   UNL     1      -1.321   1.980  -3.768  0.00  0.00    +0.149 HD
BRANCH   7  12
ATOM     11  C   UNL     1      -0.328  -0.447  -5.241  0.00  0.00    +0.038 C 
ATOM     12  C   UNL     1       0.162   0.960  -4.895  0.00  0.00    +0.156 C 
BRANCH  12  13
ATOM     13  C   UNL     1      -0.137   1.892  -6.040  0.00  0.00    +0.233 C 
ATOM     14  O   UNL     1      -0.852   2.856  -5.867  0.00  0.00    -0.274 OA
ATOM     15  N   UNL     1       0.391   1.655  -7.258  0.00  0.00    -0.316 N 
ATOM     16  H   UNL     1       0.963   0.883  -7.396  0.00  0.00    +0.149 HD
BRANCH  15  17
ATOM     17  C   UNL     1       0.101   2.561  -8.371  0.00  0.00    +0.085 C 
BRANCH  17  18
ATOM     18  C   UNL     1       0.817   2.067  -9.630  0.00  0.00    -0.061 C 
BRANCH  18  21
ATOM     19  C   UNL     1       1.109   4.304 -10.511  0.00  0.00    -0.097 C 
ATOM     20  C   UNL     1       0.996   2.413 -12.020  0.00  0.00    -0.097 C 
ATOM     21  N   UNL     1       0.497   2.979 -10.749  0.00  0.00    +0.377 N 
ATOM     22  H   UNL     1      -0.522   3.088 -10.810  0.00  0.00    -0.083 HD
ENDBRANCH  18  21
ENDBRANCH  17  18
ENDBRANCH  15  17
ENDBRANCH  12  13
ENDBRANCH   7  12
ENDBRANCH   1   8
BRANCH   4  23
ATOM     23  C   UNL     1      -2.880   1.543   2.537  0.00  0.00    +0.109 C 
BRANCH  23  24
ATOM     24  N   UNL     1      -2.244   0.961   3.720  0.00  0.00    -0.190 NA
ATOM     25  H   UNL     1      -1.641   0.207   3.626  0.00  0.00    +0.148 HD
BRANCH  24  26
ATOM     26  S   UNL     1      -2.553   1.590   5.221  0.00  0.00    +0.058 S 
ATOM     27  O   UNL     1      -1.819   0.804   6.150  0.00  0.00    -0.153 OA
ATOM     28  O   UNL     1      -2.385   2.997   5.114  0.00  0.00    -0.153 OA
BRANCH  26  29
ATOM     29  C   UNL     1      -4.259   1.311   5.561  0.00  0.00    +0.105 A 
ATOM     30  C   UNL     1      -5.199   2.258   5.201  0.00  0.00    +0.031 A 
ATOM     31  C   UNL     1      -6.538   2.038   5.463  0.00  0.00    +0.040 A 
ATOM     32  C   UNL     1      -6.937   0.873   6.096  0.00  0.00    +0.124 A 
ATOM     33  C   UNL     1      -5.994  -0.073   6.461  0.00  0.00    +0.040 A 
ATOM     34  C   UNL     1      -4.656   0.147   6.193  0.00  0.00    +0.031 A 
ATOM     35  F   UNL     1      -8.245   0.659   6.357  0.00  0.00    -0.205 F 
ENDBRANCH  26  29
ENDBRANCH  24  26
ENDBRANCH  23  24
ENDBRANCH   4  23
TORSDOF 10
