REMARK  Name = ZINC48839719
REMARK  6 active torsions:
REMARK  status: ('A' for Active; 'I' for Inactive)
REMARK    1  A    between atoms: C_1  and  C_2
REMARK    2  A    between atoms: C_5  and  S_11
REMARK    3  A    between atoms: C_7  and  C_8
REMARK    4  A    between atoms: S_11  and  N_14
REMARK    5  A    between atoms: N_14  and  C_15
REMARK    6  A    between atoms: C_21  and  N_23
REMARK                            x       y       z     vdW  Elec       q    Type
REMARK                         _______ _______ _______ _____ _____    ______ ____
ROOT
ATOM      1  S   UNL     1       0.668  -4.471  -0.133  0.00  0.00    +0.059 S 
ATOM      2  O   UNL     1       0.479  -4.985   1.178  0.00  0.00    -0.153 OA
ATOM      3  O   UNL     1      -0.030  -4.983  -1.260  0.00  0.00    -0.153 OA
ENDROOT
BRANCH   1   8
ATOM      4  C   UNL     1      -0.579   1.439   0.097  0.00  0.00    +0.044 C 
ATOM      5  C   UNL     1      -0.267  -0.035   0.044  0.00  0.00    -0.036 A 
ATOM      6  C   UNL     1      -0.366  -0.720  -1.150  0.00  0.00    +0.006 A 
ATOM      7  C   UNL     1      -0.080  -2.072  -1.201  0.00  0.00    +0.029 A 
ATOM      8  C   UNL     1       0.307  -2.748  -0.056  0.00  0.00    +0.106 A 
ATOM      9  C   UNL     1       0.410  -2.077   1.144  0.00  0.00    +0.044 A 
ATOM     10  C   UNL     1       0.128  -0.709   1.201  0.00  0.00    +0.068 A 
BRANCH  10  11
ATOM     11  C   UNL     1       0.243   0.018   2.480  0.00  0.00    +0.387 C 
ATOM     12  O   UNL     1       0.923   1.031   2.548  0.00  0.00    -0.241 OA
ATOM     13  O   UNL     1      -0.343  -0.393   3.472  0.00  0.00    -0.241 OA
ENDBRANCH  10  11
ENDBRANCH   1   8
BRANCH   1  14
ATOM     14  N   UNL     1       2.283  -4.618  -0.470  0.00  0.00    -0.188 NA
ATOM     15  H   UNL     1       2.570  -5.014  -1.308  0.00  0.00    +0.148 HD
BRANCH  14  16
ATOM     16  C   UNL     1       3.279  -4.150   0.497  0.00  0.00    +0.062 C 
ATOM     17  C   UNL     1       3.707  -2.725   0.139  0.00  0.00    +0.019 C 
ATOM     18  C   UNL     1       4.747  -2.236   1.149  0.00  0.00    +0.001 C 
ATOM     19  C   UNL     1       5.966  -3.159   1.113  0.00  0.00    -0.001 C 
ATOM     20  C   UNL     1       5.538  -4.584   1.470  0.00  0.00    -0.015 C 
ATOM     21  C   UNL     1       4.498  -5.073   0.461  0.00  0.00    -0.056 C 
BRANCH  21  22
ATOM     22  N   UNL     1       4.088  -6.441   0.804  0.00  0.00    +0.381 N 
ATOM     23  H   UNL     1       3.402  -6.763   0.138  0.00  0.00    -0.090 HD
ATOM     24  H   UNL     1       4.892  -7.050   0.780  0.00  0.00    -0.090 HD
ATOM     25  H   UNL     1       3.687  -6.449   1.730  0.00  0.00    -0.090 HD
ENDBRANCH  21  22
ENDBRANCH  14  16
ENDBRANCH   1  14
TORSDOF 5
