REMARK  Name = ZINC37578185
REMARK  13 active torsions:
REMARK  status: ('A' for Active; 'I' for Inactive)
REMARK    1  A    between atoms: C_1  and  C_2
REMARK    2  A    between atoms: C_2  and  C_3
REMARK    3  A    between atoms: C_3  and  C_5
REMARK    4  A    between atoms: C_3  and  N_6
REMARK    5  A    between atoms: N_6  and  C_7
REMARK    6  A    between atoms: C_7  and  C_8
REMARK    7  A    between atoms: C_8  and  C_9
REMARK    8  A    between atoms: N_11  and  C_12
REMARK    9  A    between atoms: C_12  and  C_13
REMARK   10  A    between atoms: C_13  and  N_14
REMARK   11  A    between atoms: C_20  and  C_22
REMARK   12  A    between atoms: N_30  and  C_33
REMARK   13  A    between atoms: C_33  and  C_34
REMARK                            x       y       z     vdW  Elec       q    Type
REMARK                         _______ _______ _______ _____ _____    ______ ____
ROOT
ATOM      1  N   UNL     1       2.010  -0.050  -1.348  0.00  0.00    -0.293 N 
ATOM      2  C   UNL     1       2.917  -0.304  -0.384  0.00  0.00    +0.267 C 
ATOM      3  O   UNL     1       2.680  -1.137   0.469  0.00  0.00    -0.268 OA
ENDROOT
BRANCH   2   4
ATOM      4  C   UNL     1       4.199   0.430  -0.364  0.00  0.00    +0.148 A 
ATOM      5  C   UNL     1       5.282   0.197   0.514  0.00  0.00    +0.067 A 
ATOM      6  C   UNL     1       6.224   1.103   0.156  0.00  0.00    +0.124 A 
ATOM      7  N   UNL     1       5.723   1.844  -0.883  0.00  0.00    -0.258 N 
ATOM      8  N   UNL     1       4.545   1.421  -1.168  0.00  0.00    -0.166 NA
ATOM      9  C   UNL     1       6.463   2.933  -1.523  0.00  0.00    +0.146 C 
ATOM     10  C   UNL     1       6.555   4.135  -0.575  0.00  0.00    +0.042 C 
ATOM     11  C   UNL     1       6.866   3.654   0.841  0.00  0.00    +0.110 C 
ATOM     12  N   UNL     1       7.908   2.640   0.894  0.00  0.00    -0.292 N 
ATOM     13  C   UNL     1       7.575   1.340   0.708  0.00  0.00    +0.265 C 
ATOM     14  O   UNL     1       8.335   0.430   0.978  0.00  0.00    -0.268 OA
BRANCH  12  15
ATOM     15  C   UNL     1       9.301   3.021   1.145  0.00  0.00    +0.143 C 
BRANCH  15  16
ATOM     16  C   UNL     1       9.566   3.006   2.628  0.00  0.00    -0.030 A 
ATOM     17  C   UNL     1       9.356   4.147   3.379  0.00  0.00    +0.005 A 
ATOM     18  C   UNL     1       9.600   4.134   4.740  0.00  0.00    +0.000 A 
ATOM     19  C   UNL     1      10.053   2.979   5.349  0.00  0.00    +0.000 A 
ATOM     20  C   UNL     1      10.262   1.838   4.598  0.00  0.00    +0.000 A 
ATOM     21  C   UNL     1      10.015   1.850   3.239  0.00  0.00    +0.005 A 
ENDBRANCH  15  16
ENDBRANCH  12  15
ENDBRANCH   2   4
BRANCH   1  22
ATOM     22  C   UNL     1       0.696  -0.697  -1.307  0.00  0.00    +0.073 C 
ATOM     23  C   UNL     1       0.869  -2.211  -1.436  0.00  0.00    +0.028 C 
BRANCH  22  25
ATOM     24  C   UNL     1      -0.261   1.131   0.103  0.00  0.00    +0.005 C 
ATOM     25  C   UNL     1       0.011  -0.373   0.022  0.00  0.00    +0.019 C 
ENDBRANCH  22  25
ENDBRANCH   1  22
BRANCH   1  26
ATOM     26  C   UNL     1       2.338   0.873  -2.438  0.00  0.00    +0.117 C 
BRANCH  26  27
ATOM     27  C   UNL     1       2.010   2.304  -2.010  0.00  0.00    +0.114 C 
BRANCH  27  28
ATOM     28  C   UNL     1       2.347   3.253  -3.131  0.00  0.00    +0.214 C 
ATOM     29  O   UNL     1       2.806   2.827  -4.170  0.00  0.00    -0.276 OA
ATOM     30  N   UNL     1       2.140   4.576  -2.979  0.00  0.00    -0.317 N 
ATOM     31  H   UNL     1       1.774   4.918  -2.149  0.00  0.00    +0.149 HD
BRANCH  30  32
ATOM     32  C   UNL     1       2.468   5.499  -4.069  0.00  0.00    +0.085 C 
BRANCH  32  33
ATOM     33  C   UNL     1       2.140   6.931  -3.641  0.00  0.00    -0.060 C 
BRANCH  33  34
ATOM     34  N   UNL     1       2.469   7.856  -4.734  0.00  0.00    +0.381 N 
ATOM     35  C   UNL     1       3.917   7.835  -4.971  0.00  0.00    -0.079 C 
ATOM     36  C   UNL     1       4.256   8.736  -6.161  0.00  0.00    -0.019 C 
ATOM     37  C   UNL     1       3.807  10.168  -5.855  0.00  0.00    -0.004 C 
ATOM     38  C   UNL     1       2.310  10.166  -5.536  0.00  0.00    -0.019 C 
ATOM     39  C   UNL     1       2.043   9.213  -4.369  0.00  0.00    -0.079 C 
ATOM     40  H   UNL     1       1.988   7.568  -5.573  0.00  0.00    -0.082 HD
ENDBRANCH  33  34
ENDBRANCH  32  33
ENDBRANCH  30  32
ENDBRANCH  27  28
ENDBRANCH  26  27
ENDBRANCH   1  26
TORSDOF 11
