REMARK  Name = ZINC39597971
REMARK  5 active torsions:
REMARK  status: ('A' for Active; 'I' for Inactive)
REMARK    1  A    between atoms: C_7  and  C_10
REMARK    2  A    between atoms: C_10  and  C_11
REMARK    3  A    between atoms: C_11  and  N_12
REMARK    4  A    between atoms: C_13  and  C_15
REMARK    5  A    between atoms: C_26  and  C_28
REMARK                            x       y       z     vdW  Elec       q    Type
REMARK                         _______ _______ _______ _____ _____    ______ ____
ROOT
ATOM      1  C   UNL     1      -5.660   7.126  -2.507  0.00  0.00    +0.100 C 
ATOM      2  C   UNL     1      -4.766   8.038  -1.638  0.00  0.00    +0.121 C 
ATOM      3  N   UNL     1      -3.832   8.671  -2.598  0.00  0.00    -0.300 N 
ATOM      4  C   UNL     1      -4.667   8.961  -3.788  0.00  0.00    +0.115 C 
ATOM      5  C   UNL     1      -5.596   7.737  -3.917  0.00  0.00    -0.004 C 
ATOM      6  C   UNL     1      -6.986   8.174  -4.368  0.00  0.00    -0.010 C 
ATOM      7  C   UNL     1      -6.906   8.724  -5.795  0.00  0.00    -0.082 C 
ATOM      8  N   UNL     1      -6.381   7.688  -6.692  0.00  0.00    +0.379 N 
ATOM      9  C   UNL     1      -5.008   7.340  -6.307  0.00  0.00    -0.082 C 
ATOM     10  C   UNL     1      -5.008   6.731  -4.902  0.00  0.00    -0.010 C 
ATOM     11  C   UNL     1      -2.520   8.928  -2.428  0.00  0.00    +0.219 C 
ATOM     12  O   UNL     1      -1.885   9.457  -3.315  0.00  0.00    -0.275 OA
ATOM     13  H   UNL     1      -6.964   6.866  -6.632  0.00  0.00    -0.086 HD
ATOM     14  H   UNL     1      -6.387   8.032  -7.641  0.00  0.00    -0.086 HD
ENDROOT
BRANCH  11  15
ATOM     15  C   UNL     1      -1.841   8.556  -1.134  0.00  0.00    +0.079 C 
ATOM     16  C   UNL     1      -2.508   9.302   0.026  0.00  0.00    +0.041 C 
ATOM     17  C   UNL     1      -1.763   8.980   1.325  0.00  0.00    +0.160 C 
ATOM     18  O   UNL     1      -0.388   9.344   1.186  0.00  0.00    -0.380 OA
ATOM     19  C   UNL     1       0.299   8.643   0.147  0.00  0.00    +0.160 C 
ATOM     20  C   UNL     1      -0.363   8.952  -1.199  0.00  0.00    +0.041 C 
ENDBRANCH  11  15
BRANCH   1  22
ATOM     21  N   UNL     1      -5.956   4.677  -2.697  0.00  0.00    -0.315 N 
ATOM     22  C   UNL     1      -5.120   5.719  -2.519  0.00  0.00    +0.218 C 
ATOM     23  O   UNL     1      -3.932   5.525  -2.370  0.00  0.00    -0.275 OA
ATOM     24  H   UNL     1      -6.906   4.833  -2.816  0.00  0.00    +0.149 HD
BRANCH  21  25
ATOM     25  C   UNL     1      -5.431   3.310  -2.709  0.00  0.00    +0.109 C 
BRANCH  25  26
ATOM     26  C   UNL     1      -6.580   2.324  -2.925  0.00  0.00    +0.056 C 
BRANCH  26  33
ATOM     27  C   UNL     1      -5.611  -0.770   0.461  0.00  0.00    +0.001 A 
ATOM     28  C   UNL     1      -5.118  -1.971  -0.029  0.00  0.00    +0.002 A 
ATOM     29  C   UNL     1      -4.957  -2.164  -1.384  0.00  0.00    +0.026 A 
ATOM     30  C   UNL     1      -5.291  -1.147  -2.271  0.00  0.00    +0.047 A 
ATOM     31  N   UNL     1      -5.246  -1.032  -3.643  0.00  0.00    -0.360 N 
ATOM     32  C   UNL     1      -5.696   0.203  -4.021  0.00  0.00    +0.087 A 
ATOM     33  C   UNL     1      -6.040   0.917  -2.937  0.00  0.00    -0.021 A 
ATOM     34  C   UNL     1      -5.790   0.069  -1.769  0.00  0.00    +0.003 A 
ATOM     35  C   UNL     1      -5.950   0.241  -0.393  0.00  0.00    +0.010 A 
ATOM     36  H   UNL     1      -4.940  -1.724  -4.250  0.00  0.00    +0.165 HD
ENDBRANCH  26  33
ENDBRANCH  25  26
ENDBRANCH  21  25
ENDBRANCH   1  22
TORSDOF 5
