REMARK  Name = ZINC08645803
REMARK  6 active torsions:
REMARK  status: ('A' for Active; 'I' for Inactive)
REMARK    1  A    between atoms: C_1  and  C_2
REMARK    2  A    between atoms: C_2  and  C_20
REMARK    3  A    between atoms: N_5  and  C_9
REMARK    4  A    between atoms: C_9  and  C_10
REMARK    5  A    between atoms: N_12  and  C_13
REMARK    6  A    between atoms: C_23  and  N_26
REMARK                            x       y       z     vdW  Elec       q    Type
REMARK                         _______ _______ _______ _____ _____    ______ ____
ROOT
ATOM      1  C   UNL     1      -0.823   2.003   1.215  0.00  0.00    +0.047 C 
ATOM      2  C   UNL     1      -0.042   1.490   0.004  0.00  0.00    +0.135 C 
ATOM      3  C   UNL     1      -0.638   2.022  -1.284  0.00  0.00    +0.251 C 
ATOM      4  O   UNL     1      -1.758   1.829  -1.707  0.00  0.00    -0.272 OA
ATOM      5  N   UNL     1       0.336   2.752  -1.862  0.00  0.00    -0.215 N 
ATOM      6  C   UNL     1       1.453   2.755  -1.125  0.00  0.00    +0.310 C 
ATOM      7  O   UNL     1       2.468   3.345  -1.440  0.00  0.00    -0.252 OA
ATOM      8  N   UNL     1       1.327   2.033   0.003  0.00  0.00    -0.281 N 
ATOM      9  H   UNL     1       2.006   1.896   0.682  0.00  0.00    +0.152 HD
ENDROOT
BRANCH   2  10
ATOM     10  C   UNL     1      -0.014  -0.017  -0.007  0.00  0.00    -0.015 A 
ATOM     11  C   UNL     1      -1.028  -0.722  -0.627  0.00  0.00    +0.008 A 
ATOM     12  C   UNL     1      -1.001  -2.104  -0.641  0.00  0.00    +0.033 A 
ATOM     13  C   UNL     1       0.036  -2.781  -0.026  0.00  0.00    +0.126 A 
ATOM     14  C   UNL     1       1.047  -2.076   0.599  0.00  0.00    +0.033 A 
ATOM     15  C   UNL     1       1.022  -0.694   0.609  0.00  0.00    +0.008 A 
BRANCH  13  16
ATOM     16  N   UNL     1       0.063  -4.261  -0.037  0.00  0.00    +0.056 N 
ATOM     17  O   UNL     1       0.976  -4.858   0.505  0.00  0.00    -0.126 OA
ATOM     18  O   UNL     1      -0.829  -4.883  -0.588  0.00  0.00    -0.126 OA
ENDBRANCH  13  16
ENDBRANCH   2  10
BRANCH   5  19
ATOM     19  C   UNL     1       0.191   3.455  -3.139  0.00  0.00    +0.214 C 
BRANCH  19  20
ATOM     20  C   UNL     1       0.598   2.540  -4.265  0.00  0.00    +0.235 C 
ATOM     21  O   UNL     1       0.974   1.412  -4.024  0.00  0.00    -0.274 OA
ATOM     22  N   UNL     1       0.546   2.975  -5.539  0.00  0.00    -0.283 N 
ATOM     23  H   UNL     1       0.184   3.853  -5.737  0.00  0.00    +0.155 HD
BRANCH  22  24
ATOM     24  C   UNL     1       1.013   2.160  -6.577  0.00  0.00    +0.047 A 
ATOM     25  C   UNL     1       0.856   0.783  -6.505  0.00  0.00    +0.024 A 
ATOM     26  C   UNL     1       1.318  -0.019  -7.530  0.00  0.00    +0.002 A 
ATOM     27  C   UNL     1       1.937   0.549  -8.628  0.00  0.00    +0.001 A 
ATOM     28  C   UNL     1       2.095   1.921  -8.704  0.00  0.00    +0.016 A 
ATOM     29  C   UNL     1       1.630   2.729  -7.684  0.00  0.00    +0.035 A 
ATOM     30  I   UNL     1       1.862   4.807  -7.804  0.00  0.00    -0.042 I 
ENDBRANCH  22  24
ENDBRANCH  19  20
ENDBRANCH   5  19
TORSDOF 5
