REMARK  Name = ZINC20990003
REMARK  9 active torsions:
REMARK  status: ('A' for Active; 'I' for Inactive)
REMARK    1  A    between atoms: C_1  and  C_2
REMARK    2  A    between atoms: C_3  and  C_26
REMARK    3  A    between atoms: C_4  and  S_9
REMARK    4  A    between atoms: C_5  and  C_8
REMARK    5  A    between atoms: N_6  and  C_7
REMARK    6  A    between atoms: S_9  and  N_12
REMARK    7  A    between atoms: N_12  and  C_13
REMARK    8  A    between atoms: C_16  and  C_19
REMARK    9  A    between atoms: C_19  and  N_20
REMARK                            x       y       z     vdW  Elec       q    Type
REMARK                         _______ _______ _______ _____ _____    ______ ____
ROOT
ATOM      1  S   UNL     1       3.365   3.076   2.243  0.00  0.00    +0.075 S 
ATOM      2  O   UNL     1       3.768   2.935   3.599  0.00  0.00    -0.150 OA
ATOM      3  O   UNL     1       2.557   2.111   1.584  0.00  0.00    -0.150 OA
ENDROOT
BRANCH   1   7
ATOM      4  C   UNL     1       0.315   7.191   0.543  0.00  0.00    +0.064 C 
ATOM      5  C   UNL     1       1.216   6.313   1.372  0.00  0.00    +0.030 A 
ATOM      6  C   UNL     1       1.677   5.076   1.014  0.00  0.00    +0.084 A 
ATOM      7  C   UNL     1       2.507   4.612   2.131  0.00  0.00    +0.141 A 
ATOM      8  C   UNL     1       2.487   5.593   3.050  0.00  0.00    +0.043 A 
ATOM      9  N   UNL     1       1.706   6.612   2.590  0.00  0.00    -0.349 N 
ATOM     10  C   UNL     1       1.438   7.856   3.317  0.00  0.00    +0.149 C 
ATOM     11  C   UNL     1       3.203   5.567   4.376  0.00  0.00    +0.065 C 
BRANCH   6  12
ATOM     12  C   UNL     1       1.392   4.353  -0.237  0.00  0.00    +0.250 C 
ATOM     13  O   UNL     1       0.367   3.707  -0.346  0.00  0.00    -0.270 OA
ATOM     14  N   UNL     1       2.267   4.406  -1.260  0.00  0.00    -0.297 N 
ATOM     15  C   UNL     1       2.007   3.583  -2.458  0.00  0.00    +0.108 C 
ATOM     16  C   UNL     1       2.292   4.349  -3.762  0.00  0.00    +0.019 C 
ATOM     17  C   UNL     1       1.802   5.771  -3.646  0.00  0.00    +0.002 C 
ATOM     18  C   UNL     1       2.935   6.657  -3.135  0.00  0.00    +0.002 C 
ATOM     19  C   UNL     1       3.073   6.681  -1.672  0.00  0.00    +0.019 C 
ATOM     20  C   UNL     1       3.422   5.268  -1.141  0.00  0.00    +0.108 C 
ENDBRANCH   6  12
ENDBRANCH   1   7
BRANCH   1  21
ATOM     21  N   UNL     1       4.751   3.223   1.350  0.00  0.00    -0.216 N 
ATOM     22  H   UNL     1       4.878   2.633   0.430  0.00  0.00    +0.174 HD
BRANCH  21  23
ATOM     23  C   UNL     1       5.760   4.096   1.764  0.00  0.00    +0.048 A 
ATOM     24  C   UNL     1       5.443   5.392   2.151  0.00  0.00    +0.025 A 
ATOM     25  C   UNL     1       6.442   6.251   2.564  0.00  0.00    +0.003 A 
ATOM     26  C   UNL     1       7.758   5.826   2.583  0.00  0.00    -0.064 A 
ATOM     27  C   UNL     1       8.077   4.538   2.193  0.00  0.00    +0.003 A 
ATOM     28  C   UNL     1       7.082   3.672   1.784  0.00  0.00    +0.025 A 
BRANCH  26  29
ATOM     29  C   UNL     1       8.846   6.769   3.029  0.00  0.00    -0.043 C 
BRANCH  29  30
ATOM     30  N   UNL     1       9.358   7.509   1.868  0.00  0.00    +0.382 N 
ATOM     31  C   UNL     1      10.033   6.608   0.925  0.00  0.00    -0.078 C 
ATOM     32  C   UNL     1      10.424   7.385  -0.334  0.00  0.00    -0.019 C 
ATOM     33  C   UNL     1      11.353   8.540   0.052  0.00  0.00    -0.004 C 
ATOM     34  C   UNL     1      10.644   9.436   1.071  0.00  0.00    -0.019 C 
ATOM     35  C   UNL     1      10.247   8.600   2.290  0.00  0.00    -0.078 C 
ATOM     36  H   UNL     1       8.500   7.959   1.346  0.00  0.00    -0.081 HD
ENDBRANCH  29  30
ENDBRANCH  26  29
ENDBRANCH  21  23
ENDBRANCH   1  21
TORSDOF 6
