REMARK  Name = ZINC35729618
REMARK  12 active torsions:
REMARK  status: ('A' for Active; 'I' for Inactive)
REMARK    1  A    between atoms: C_1  and  C_2
REMARK    2  A    between atoms: C_2  and  N_3
REMARK    3  A    between atoms: C_4  and  C_37
REMARK    4  A    between atoms: C_5  and  C_30
REMARK    5  A    between atoms: C_6  and  C_11
REMARK    6  A    between atoms: C_14  and  N_17
REMARK    7  A    between atoms: C_18  and  C_20
REMARK    8  A    between atoms: C_30  and  O_32
REMARK    9  A    between atoms: O_32  and  C_33
REMARK   10  A    between atoms: C_33  and  C_34
REMARK   11  A    between atoms: C_34  and  C_35
REMARK   12  A    between atoms: C_34  and  C_36
REMARK                            x       y       z     vdW  Elec       q    Type
REMARK                         _______ _______ _______ _____ _____    ______ ____
ROOT
ATOM      1  C   UNL     1       2.267  -2.425  -3.684  0.00  0.00    -0.022 A 
ATOM      2  C   UNL     1       2.068  -3.363  -2.688  0.00  0.00    +0.007 A 
ATOM      3  C   UNL     1       2.219  -4.708  -2.964  0.00  0.00    +0.023 A 
ATOM      4  C   UNL     1       2.569  -5.118  -4.244  0.00  0.00    +0.033 A 
ATOM      5  C   UNL     1       2.767  -4.173  -5.242  0.00  0.00    +0.023 A 
ATOM      6  C   UNL     1       2.611  -2.830  -4.961  0.00  0.00    +0.007 A 
ENDROOT
BRANCH   1  10
ATOM      7  N   UNL     1       0.844   0.113  -1.162  0.00  0.00    -0.286 N 
ATOM      8  C   UNL     1       0.080  -0.120  -2.268  0.00  0.00    +0.021 C 
ATOM      9  C   UNL     1       0.621  -0.642  -3.391  0.00  0.00    +0.078 C 
ATOM     10  C   UNL     1       2.103  -0.958  -3.379  0.00  0.00    +0.141 C 
ATOM     11  N   UNL     1       2.836  -0.669  -2.136  0.00  0.00    -0.315 N 
ATOM     12  C   UNL     1       2.157  -0.142  -1.098  0.00  0.00    +0.138 C 
ATOM     13  S   UNL     1       2.998   0.205   0.352  0.00  0.00    -0.018 S 
ATOM     14  C   UNL     1      -1.390   0.209  -2.237  0.00  0.00    +0.061 C 
ATOM     15  H   UNL     1       3.787  -0.850  -2.066  0.00  0.00    +0.149 HD
BRANCH   7  17
ATOM     16  C   UNL     1      -0.444  -0.444   0.841  0.00  0.00    +0.025 C 
ATOM     17  C   UNL     1       0.192   0.680   0.021  0.00  0.00    +0.109 C 
ENDBRANCH   7  17
BRANCH   9  18
ATOM     18  C   UNL     1      -0.169  -0.885  -4.538  0.00  0.00    +0.339 C 
ATOM     19  O   UNL     1      -1.358  -0.624  -4.525  0.00  0.00    -0.245 OA
BRANCH  18  20
ATOM     20  O   UNL     1       0.394  -1.407  -5.648  0.00  0.00    -0.461 OA
BRANCH  20  21
ATOM     21  C   UNL     1      -0.463  -1.627  -6.770  0.00  0.00    +0.235 C 
BRANCH  21  22
ATOM     22  C   UNL     1       0.348  -2.218  -7.924  0.00  0.00    +0.020 C 
ATOM     23  C   UNL     1      -0.591  -2.569  -9.080  0.00  0.00    +0.010 C 
ATOM     24  C   UNL     1       1.381  -1.194  -8.399  0.00  0.00    +0.010 C 
ENDBRANCH  21  22
ENDBRANCH  20  21
ENDBRANCH  18  20
ENDBRANCH   9  18
ENDBRANCH   1  10
BRANCH   4  25
ATOM     25  N   UNL     1       2.722  -6.479  -4.527  0.00  0.00    -0.285 N 
ATOM     26  C   UNL     1       1.928  -7.386  -3.924  0.00  0.00    +0.223 C 
ATOM     27  O   UNL     1       1.134  -7.031  -3.079  0.00  0.00    -0.275 OA
ATOM     28  H   UNL     1       3.400  -6.771  -5.157  0.00  0.00    +0.155 HD
BRANCH  26  29
ATOM     29  C   UNL     1       2.026  -8.842  -4.300  0.00  0.00    +0.048 C 
ATOM     30  C   UNL     1       1.712  -9.007  -5.789  0.00  0.00    +0.019 C 
ATOM     31  C   UNL     1       1.812 -10.485  -6.171  0.00  0.00    -0.009 C 
ATOM     32  C   UNL     1       0.810 -11.294  -5.345  0.00  0.00    +0.007 C 
ATOM     33  C   UNL     1       1.124 -11.130  -3.857  0.00  0.00    -0.009 C 
ATOM     34  C   UNL     1       1.024  -9.651  -3.475  0.00  0.00    +0.019 C 
ATOM     35  C   UNL     1       2.541 -11.634  -3.576  0.00  0.00    +0.007 C 
ATOM     36  C   UNL     1       3.543 -10.825  -4.402  0.00  0.00    -0.009 C 
ATOM     37  C   UNL     1       3.229 -10.990  -5.890  0.00  0.00    +0.007 C 
ATOM     38  C   UNL     1       3.443  -9.347  -4.019  0.00  0.00    +0.019 C 
ENDBRANCH  26  29
ENDBRANCH   4  25
TORSDOF 8
