REMARK  Name = ZINC43549253
REMARK  10 active torsions:
REMARK  status: ('A' for Active; 'I' for Inactive)
REMARK    1  A    between atoms: C_1  and  C_2
REMARK    2  A    between atoms: C_7  and  C_9
REMARK    3  A    between atoms: C_16  and  C_36
REMARK    4  A    between atoms: C_19  and  O_35
REMARK    5  A    between atoms: C_21  and  C_25
REMARK    6  A    between atoms: C_25  and  C_27
REMARK    7  A    between atoms: C_25  and  C_28
REMARK    8  A    between atoms: N_30  and  C_31
REMARK    9  A    between atoms: N_30  and  C_32
REMARK   10  A    between atoms: C_32  and  C_33
REMARK                            x       y       z     vdW  Elec       q    Type
REMARK                         _______ _______ _______ _____ _____    ______ ____
ROOT
ATOM      1  C   UNL     1       1.454   2.823   1.681  0.00  0.00    +0.014 C 
ATOM      2  C   UNL     1       0.926   1.389   1.597  0.00  0.00    +0.042 C 
ATOM      3  C   UNL     1      -0.481   1.332   2.169  0.00  0.00    +0.055 A 
ATOM      4  C   UNL     1      -0.866   0.291   2.954  0.00  0.00    +0.013 A 
ATOM      5  S   UNL     1      -2.545   0.702   3.340  0.00  0.00    -0.076 S 
ATOM      6  C   UNL     1      -2.616   2.150   2.481  0.00  0.00    +0.082 A 
ATOM      7  N   UNL     1      -1.418   2.250   1.964  0.00  0.00    -0.248 NA
ATOM      8  C   UNL     1      -0.049  -0.884   3.368  0.00  0.00    +0.051 C 
ATOM      9  C   UNL     1       1.214  -0.936   2.506  0.00  0.00    -0.022 C 
ATOM     10  C   UNL     1       1.841   0.460   2.404  0.00  0.00    +0.033 C 
ATOM     11  C   UNL     1       3.169   0.324   1.642  0.00  0.00    +0.123 C 
ATOM     12  C   UNL     1       2.874  -0.188   0.230  0.00  0.00    +0.029 C 
ATOM     13  C   UNL     1       2.191  -1.554   0.300  0.00  0.00    +0.007 C 
ATOM     14  C   UNL     1       0.889  -1.444   1.102  0.00  0.00    +0.008 C 
ATOM     15  C   UNL     1       2.231  -1.875   3.158  0.00  0.00    +0.012 C 
ENDROOT
BRANCH   6  16
ATOM     16  C   UNL     1      -3.779   3.099   2.341  0.00  0.00    +0.041 C 
ATOM     17  C   UNL     1      -4.197   3.604   3.725  0.00  0.00    -0.009 C 
ATOM     18  C   UNL     1      -5.426   4.505   3.584  0.00  0.00    -0.082 C 
ATOM     19  N   UNL     1      -6.529   3.742   2.986  0.00  0.00    +0.379 N 
ATOM     20  C   UNL     1      -6.162   3.316   1.630  0.00  0.00    -0.082 C 
ATOM     21  C   UNL     1      -4.961   2.370   1.696  0.00  0.00    -0.009 C 
ATOM     22  H   UNL     1      -6.721   2.930   3.552  0.00  0.00    -0.086 HD
ATOM     23  H   UNL     1      -7.353   4.322   2.943  0.00  0.00    -0.086 HD
ENDBRANCH   6  16
BRANCH  12  24
ATOM     24  C   UNL     1       4.185  -0.318  -0.548  0.00  0.00    +0.078 C 
ATOM     25  C   UNL     1       3.896  -0.856  -1.950  0.00  0.00    +0.017 C 
BRANCH  24  26
ATOM     26  C   UNL     1       5.105  -1.268   0.175  0.00  0.00    +0.219 C 
ATOM     27  O   UNL     1       4.652  -2.063   0.970  0.00  0.00    -0.275 OA
ATOM     28  N   UNL     1       6.431  -1.233  -0.062  0.00  0.00    -0.293 N 
ATOM     29  C   UNL     1       6.989  -0.214  -0.956  0.00  0.00    +0.133 C 
BRANCH  28  30
ATOM     30  C   UNL     1       7.316  -2.213   0.573  0.00  0.00    +0.196 C 
BRANCH  30  31
ATOM     31  C   UNL     1       7.441  -3.396  -0.294  0.00  0.00    -0.086 C 
ATOM     32  C   UNL     1       7.541  -4.339  -0.986  0.00  0.00    +0.005 C 
ENDBRANCH  30  31
ENDBRANCH  28  30
ENDBRANCH  24  26
ENDBRANCH  12  24
BRANCH  11  33
ATOM     33  O   UNL     1       3.813   1.597   1.569  0.00  0.00    -0.391 OA
ATOM     34  H   UNL     1       4.634   1.594   1.058  0.00  0.00    +0.210 HD
ENDBRANCH  11  33
TORSDOF 6
