REMARK  Name = ZINC20806959
REMARK  8 active torsions:
REMARK  status: ('A' for Active; 'I' for Inactive)
REMARK    1  A    between atoms: C_1  and  C_2
REMARK    2  A    between atoms: C_5  and  C_8
REMARK    3  A    between atoms: N_9  and  N_10
REMARK    4  A    between atoms: C_14  and  S_17
REMARK    5  A    between atoms: N_15  and  N_16
REMARK    6  A    between atoms: S_17  and  C_18
REMARK    7  A    between atoms: C_18  and  C_19
REMARK    8  A    between atoms: N_21  and  C_22
REMARK                            x       y       z     vdW  Elec       q    Type
REMARK                         _______ _______ _______ _____ _____    ______ ____
ROOT
ATOM      1  N   UNL     1      -0.013   1.383   0.075  0.00  0.00    -0.204 N 
ATOM      2  C   UNL     1       0.006  -0.004   0.057  0.00  0.00    +0.254 A 
ATOM      3  N   UNL     1      -1.045  -0.789   0.067  0.00  0.00    -0.109 NA
ATOM      4  N   UNL     1      -0.594  -2.115   0.039  0.00  0.00    -0.119 NA
ATOM      5  C   UNL     1       0.717  -2.098   0.022  0.00  0.00    +0.210 A 
ATOM      6  N   UNL     1       1.122  -0.793   0.033  0.00  0.00    -0.211 N 
ATOM      7  H   UNL     1       0.933   1.946   0.074  0.00  0.00    +0.177 HD
ENDROOT
BRANCH   6   8
ATOM      8  N   UNL     1       2.415  -0.354   0.022  0.00  0.00    -0.294 N 
ATOM      9  H   UNL     1       3.242  -1.079   0.002  0.00  0.00    +0.163 HD
ATOM     10  H   UNL     1       2.630   0.725   0.032  0.00  0.00    +0.163 HD
ENDBRANCH   6   8
BRANCH   1  12
ATOM     11  C   UNL     1      -1.252   3.366   0.110  0.00  0.00    +0.138 C 
ATOM     12  N   UNL     1      -1.235   2.067   0.093  0.00  0.00    -0.188 NA
BRANCH  11  17
ATOM     13  C   UNL     1      -6.269   6.175   0.186  0.00  0.00    +0.044 C 
ATOM     14  C   UNL     1      -4.955   5.439   0.166  0.00  0.00    -0.050 A 
ATOM     15  C   UNL     1      -3.768   6.150   0.165  0.00  0.00    +0.004 A 
ATOM     16  C   UNL     1      -2.560   5.483   0.147  0.00  0.00    +0.010 A 
ATOM     17  C   UNL     1      -2.538   4.086   0.129  0.00  0.00    -0.005 A 
ATOM     18  C   UNL     1      -3.741   3.375   0.124  0.00  0.00    +0.010 A 
ATOM     19  C   UNL     1      -4.940   4.055   0.148  0.00  0.00    +0.004 A 
ENDBRANCH  11  17
ENDBRANCH   1  12
BRANCH   5  20
ATOM     20  S   UNL     1       1.772  -3.509  -0.008  0.00  0.00    -0.075 S 
BRANCH  20  21
ATOM     21  C   UNL     1       0.624  -4.914  -0.011  0.00  0.00    +0.173 C 
BRANCH  21  22
ATOM     22  C   UNL     1       1.407  -6.202  -0.036  0.00  0.00    +0.228 C 
ATOM     23  O   UNL     1       2.619  -6.174  -0.051  0.00  0.00    -0.275 OA
ATOM     24  N   UNL     1       0.759  -7.384  -0.042  0.00  0.00    -0.284 N 
ATOM     25  H   UNL     1      -0.337  -7.411   0.046  0.00  0.00    +0.155 HD
BRANCH  24  26
ATOM     26  C   UNL     1       1.482  -8.577  -0.161  0.00  0.00    +0.053 A 
ATOM     27  C   UNL     1       2.739  -8.689   0.418  0.00  0.00    +0.044 A 
ATOM     28  C   UNL     1       3.447  -9.870   0.304  0.00  0.00    +0.043 A 
ATOM     29  C   UNL     1       2.910 -10.937  -0.396  0.00  0.00    +0.021 A 
ATOM     30  C   UNL     1       1.661 -10.826  -0.978  0.00  0.00    +0.023 A 
ATOM     31  C   UNL     1       0.945  -9.649  -0.862  0.00  0.00    +0.062 A 
ATOM     32 CL   UNL     1      -0.624  -9.511  -1.593  0.00  0.00    -0.082 Cl
ATOM     33 CL   UNL     1       5.016 -10.014   1.033  0.00  0.00    -0.083 Cl
ENDBRANCH  24  26
ENDBRANCH  21  22
ENDBRANCH  20  21
ENDBRANCH   5  20
TORSDOF 7
