REMARK  Name = ZINC09846624
REMARK  8 active torsions:
REMARK  status: ('A' for Active; 'I' for Inactive)
REMARK    1  A    between atoms: C_1  and  C_2
REMARK    2  A    between atoms: C_5  and  N_8
REMARK    3  A    between atoms: C_9  and  C_11
REMARK    4  A    between atoms: C_11  and  N_12
REMARK    5  A    between atoms: C_16  and  C_17
REMARK    6  A    between atoms: C_20  and  O_23
REMARK    7  A    between atoms: O_23  and  C_24
REMARK    8  A    between atoms: C_24  and  C_25
REMARK                            x       y       z     vdW  Elec       q    Type
REMARK                         _______ _______ _______ _____ _____    ______ ____
ROOT
ATOM      1  N   UNL     1      -0.309  -7.317  -2.448  0.00  0.00    -0.212 N 
ATOM      2  C   UNL     1       0.729  -7.672  -3.232  0.00  0.00    +0.269 C 
ATOM      3  O   UNL     1       1.864  -7.923  -2.873  0.00  0.00    -0.268 OA
ATOM      4  C   UNL     1       0.212  -7.695  -4.609  0.00  0.00    +0.098 C 
ATOM      5  C   UNL     1       0.896  -7.998  -5.741  0.00  0.00    +0.036 C 
ATOM      6  N   UNL     1      -1.139  -7.337  -4.501  0.00  0.00    -0.265 N 
ATOM      7  C   UNL     1      -1.405  -7.128  -3.199  0.00  0.00    +0.314 C 
ATOM      8  O   UNL     1      -2.493  -6.806  -2.762  0.00  0.00    -0.252 OA
ATOM      9  H   UNL     1      -1.770  -7.257  -5.233  0.00  0.00    +0.157 HD
ENDROOT
BRANCH   5  10
ATOM     10  C   UNL     1       2.354  -8.164  -5.696  0.00  0.00    -0.023 A 
ATOM     11  C   UNL     1       3.137  -7.290  -4.931  0.00  0.00    +0.011 A 
ATOM     12  C   UNL     1       4.503  -7.453  -4.888  0.00  0.00    +0.046 A 
ATOM     13  C   UNL     1       5.107  -8.475  -5.610  0.00  0.00    +0.121 A 
ATOM     14  C   UNL     1       4.336  -9.342  -6.375  0.00  0.00    +0.046 A 
ATOM     15  C   UNL     1       2.968  -9.192  -6.421  0.00  0.00    +0.011 A 
BRANCH  13  16
ATOM     16  O   UNL     1       6.456  -8.628  -5.569  0.00  0.00    -0.487 OA
BRANCH  16  17
ATOM     17  C   UNL     1       7.189  -7.703  -4.763  0.00  0.00    +0.264 C 
BRANCH  17  18
ATOM     18  C   UNL     1       8.659  -8.026  -4.839  0.00  0.00    -0.010 A 
ATOM     19  C   UNL     1       9.221  -8.900  -3.928  0.00  0.00    +0.010 A 
ATOM     20  C   UNL     1      10.569  -9.201  -3.999  0.00  0.00    +0.039 A 
ATOM     21  C   UNL     1      11.357  -8.617  -4.977  0.00  0.00    +0.123 A 
ATOM     22  C   UNL     1      10.793  -7.737  -5.885  0.00  0.00    +0.039 A 
ATOM     23  C   UNL     1       9.445  -7.442  -5.815  0.00  0.00    +0.010 A 
ATOM     24  F   UNL     1      12.674  -8.907  -5.045  0.00  0.00    -0.205 F 
ENDBRANCH  17  18
ENDBRANCH  16  17
ENDBRANCH  13  16
ENDBRANCH   5  10
BRANCH   1  25
ATOM     25  C   UNL     1      -0.251  -7.168  -0.991  0.00  0.00    +0.214 C 
BRANCH  25  27
ATOM     26  N   UNL     1       0.232  -5.376   0.644  0.00  0.00    -0.284 N 
ATOM     27  C   UNL     1       0.119  -5.749  -0.646  0.00  0.00    +0.235 C 
ATOM     28  O   UNL     1       0.316  -4.941  -1.530  0.00  0.00    -0.274 OA
ATOM     29  H   UNL     1       0.154  -6.038   1.348  0.00  0.00    +0.155 HD
BRANCH  26  34
ATOM     30  C   UNL     1       1.166   0.064   1.955  0.00  0.00    +0.044 C 
ATOM     31  C   UNL     1       0.918  -1.381   1.607  0.00  0.00    -0.050 A 
ATOM     32  C   UNL     1       1.390  -2.382   2.437  0.00  0.00    +0.005 A 
ATOM     33  C   UNL     1       1.160  -3.707   2.123  0.00  0.00    +0.023 A 
ATOM     34  C   UNL     1       0.463  -4.035   0.967  0.00  0.00    +0.033 A 
ATOM     35  C   UNL     1      -0.005  -3.027   0.133  0.00  0.00    +0.023 A 
ATOM     36  C   UNL     1       0.223  -1.704   0.456  0.00  0.00    +0.005 A 
ENDBRANCH  26  34
ENDBRANCH  25  27
ENDBRANCH   1  25
TORSDOF 7
