REMARK  Name = ZINC20558465
REMARK  8 active torsions:
REMARK  status: ('A' for Active; 'I' for Inactive)
REMARK    1  A    between atoms: C_1  and  C_2
REMARK    2  A    between atoms: C_2  and  O_3
REMARK    3  A    between atoms: O_3  and  C_4
REMARK    4  A    between atoms: C_9  and  C_10
REMARK    5  A    between atoms: C_12  and  C_36
REMARK    6  A    between atoms: C_13  and  N_35
REMARK    7  A    between atoms: N_20  and  C_27
REMARK    8  A    between atoms: C_27  and  C_28
REMARK                            x       y       z     vdW  Elec       q    Type
REMARK                         _______ _______ _______ _____ _____    ______ ____
ROOT
ATOM      1  C   UNL     1       0.568   0.448  -0.279  0.00  0.00    +0.121 C 
ATOM      2  C   UNL     1       1.923   0.015   0.210  0.00  0.00    +0.099 C 
ATOM      3  C   UNL     1       2.909   0.931   0.386  0.00  0.00    +0.199 C 
ATOM      4  O   UNL     1       2.704   2.233   0.129  0.00  0.00    -0.439 OA
ATOM      5  C   UNL     1       1.441   2.735   0.092  0.00  0.00    +0.162 C 
ATOM      6  C   UNL     1       0.400   1.931  -0.097  0.00  0.00    +0.141 C 
ATOM      7  S   UNL     1      -1.225   2.631  -0.127  0.00  0.00    +0.076 S 
ATOM      8  O   UNL     1      -1.482   3.026  -1.468  0.00  0.00    -0.150 OA
ATOM      9  O   UNL     1      -2.073   1.744   0.590  0.00  0.00    -0.150 OA
ATOM     10  N   UNL     1      -1.102   4.024   0.772  0.00  0.00    -0.198 N 
ATOM     11  C   UNL     1       0.056   4.792   0.602  0.00  0.00    +0.062 A 
ATOM     12  C   UNL     1       1.273   4.198   0.266  0.00  0.00    +0.042 A 
ATOM     13  C   UNL     1       2.398   5.012   0.081  0.00  0.00    +0.013 A 
ATOM     14  C   UNL     1       2.300   6.377   0.238  0.00  0.00    +0.001 A 
ATOM     15  C   UNL     1       1.092   6.958   0.580  0.00  0.00    +0.002 A 
ATOM     16  C   UNL     1      -0.028   6.169   0.762  0.00  0.00    +0.025 A 
ENDROOT
BRANCH   1  22
ATOM     17  C   UNL     1      -0.562  -0.763  -2.162  0.00  0.00    +0.125 A 
ATOM     18  C   UNL     1      -0.682  -1.076  -3.508  0.00  0.00    +0.046 A 
ATOM     19  C   UNL     1       0.189  -0.522  -4.426  0.00  0.00    +0.004 A 
ATOM     20  C   UNL     1       1.182   0.344  -4.003  0.00  0.00    +0.001 A 
ATOM     21  C   UNL     1       1.300   0.661  -2.663  0.00  0.00    +0.008 A 
ATOM     22  C   UNL     1       0.434   0.105  -1.741  0.00  0.00    +0.008 A 
BRANCH  17  23
ATOM     23  O   UNL     1      -1.418  -1.307  -1.258  0.00  0.00    -0.492 OA
BRANCH  23  25
ATOM     24  C   UNL     1      -3.281  -2.702  -0.606  0.00  0.00    +0.048 C 
ATOM     25  C   UNL     1      -2.418  -2.193  -1.763  0.00  0.00    +0.225 C 
ENDBRANCH  23  25
ENDBRANCH  17  23
ENDBRANCH   1  22
BRANCH   3  26
ATOM     26  N   UNL     1       4.139   0.518   0.835  0.00  0.00    -0.328 N 
ATOM     27  H   UNL     1       4.945   1.252   0.981  0.00  0.00    +0.145 HD
ATOM     28  H   UNL     1       4.318  -0.546   1.048  0.00  0.00    +0.145 HD
ENDBRANCH   3  26
BRANCH   2  29
ATOM     29  C   UNL     1       2.174  -1.367   0.489  0.00  0.00    +0.101 C 
ATOM     30  N   UNL     1       2.373  -2.463   0.711  0.00  0.00    -0.191 NA
ENDBRANCH   2  29
BRANCH  10  31
ATOM     31  C   UNL     1      -2.158   4.427   1.704  0.00  0.00    +0.166 C 
BRANCH  31  32
ATOM     32  C   UNL     1      -1.801   3.974   3.096  0.00  0.00    -0.028 A 
ATOM     33  C   UNL     1      -2.301   2.781   3.583  0.00  0.00    +0.008 A 
ATOM     34  C   UNL     1      -1.970   2.362   4.858  0.00  0.00    +0.038 A 
ATOM     35  C   UNL     1      -1.145   3.142   5.651  0.00  0.00    +0.123 A 
ATOM     36  C   UNL     1      -0.649   4.340   5.163  0.00  0.00    +0.038 A 
ATOM     37  C   UNL     1      -0.978   4.754   3.886  0.00  0.00    +0.008 A 
ATOM     38  F   UNL     1      -0.825   2.736   6.899  0.00  0.00    -0.205 F 
ENDBRANCH  31  32
ENDBRANCH  10  31
TORSDOF 7
