REMARK  Name = ZINC36303042
REMARK  17 active torsions:
REMARK  status: ('A' for Active; 'I' for Inactive)
REMARK    1  A    between atoms: C_1  and  C_2
REMARK    2  A    between atoms: C_2  and  C_3
REMARK    3  A    between atoms: C_4  and  C_22
REMARK    4  A    between atoms: C_5  and  O_14
REMARK    5  A    between atoms: N_6  and  C_8
REMARK    6  A    between atoms: O_14  and  C_15
REMARK    7  A    between atoms: C_18  and  C_21
REMARK    8  A    between atoms: C_22  and  N_23
REMARK    9  A    between atoms: N_23  and  C_24
REMARK   10  A    between atoms: N_23  and  C_28
REMARK   11  A    between atoms: C_24  and  C_25
REMARK   12  A    between atoms: C_25  and  O_26
REMARK   13  A    between atoms: O_26  and  C_27
REMARK   14  A    between atoms: C_28  and  C_29
REMARK   15  A    between atoms: C_29  and  C_31
REMARK   16  A    between atoms: C_29  and  O_38
REMARK   17  A    between atoms: C_31  and  C_32
REMARK                            x       y       z     vdW  Elec       q    Type
REMARK                         _______ _______ _______ _____ _____    ______ ____
ROOT
ATOM      1  C   UNL     1       1.156  -0.059  -0.763  0.00  0.00    +0.068 A 
ATOM      2  C   UNL     1       0.483  -0.327  -1.959  0.00  0.00    +0.021 A 
ATOM      3  C   UNL     1       1.412  -0.433  -2.946  0.00  0.00    +0.225 A 
ATOM      4  N   UNL     1       2.633  -0.237  -2.381  0.00  0.00    -0.200 N 
ATOM      5  N   UNL     1       2.438   0.000  -1.014  0.00  0.00    -0.168 NA
ENDROOT
BRANCH   4   6
ATOM      6  C   UNL     1       3.866  -0.262  -3.047  0.00  0.00    +0.069 A 
ATOM      7  C   UNL     1       4.135  -1.260  -3.974  0.00  0.00    +0.028 A 
ATOM      8  C   UNL     1       5.351  -1.282  -4.630  0.00  0.00    +0.002 A 
ATOM      9  C   UNL     1       6.299  -0.311  -4.364  0.00  0.00    +0.000 A 
ATOM     10  C   UNL     1       6.034   0.684  -3.441  0.00  0.00    +0.002 A 
ATOM     11  C   UNL     1       4.818   0.715  -2.786  0.00  0.00    +0.028 A 
ENDBRANCH   4   6
BRANCH   1  13
ATOM     12  C   UNL     1       0.178   1.614   0.784  0.00  0.00    +0.010 C 
ATOM     13  C   UNL     1       0.512   0.134   0.586  0.00  0.00    +0.054 C 
ENDBRANCH   1  13
BRANCH   3  14
ATOM     14  O   UNL     1       1.165  -0.689  -4.256  0.00  0.00    -0.438 OA
BRANCH  14  15
ATOM     15  C   UNL     1       1.060  -1.987  -4.644  0.00  0.00    +0.130 A 
ATOM     16  C   UNL     1       1.087  -3.000  -3.696  0.00  0.00    +0.046 A 
ATOM     17  C   UNL     1       0.979  -4.319  -4.092  0.00  0.00    +0.007 A 
ATOM     18  C   UNL     1       0.845  -4.630  -5.433  0.00  0.00    -0.050 A 
ATOM     19  C   UNL     1       0.817  -3.622  -6.380  0.00  0.00    +0.007 A 
ATOM     20  C   UNL     1       0.918  -2.302  -5.988  0.00  0.00    +0.046 A 
ATOM     21  C   UNL     1       0.728  -6.069  -5.863  0.00  0.00    +0.044 C 
ENDBRANCH  14  15
ENDBRANCH   3  14
BRANCH   2  22
ATOM     22  C   UNL     1      -1.008  -0.472  -2.125  0.00  0.00    -0.036 C 
BRANCH  22  23
ATOM     23  N   UNL     1      -1.598   0.840  -2.423  0.00  0.00    +0.386 N 
ATOM     24  H   UNL     1      -1.363   1.489  -1.687  0.00  0.00    -0.081 HD
BRANCH  23  25
ATOM     25  C   UNL     1      -1.069   1.335  -3.701  0.00  0.00    -0.050 C 
BRANCH  25  26
ATOM     26  C   UNL     1      -1.591   2.751  -3.954  0.00  0.00    +0.141 C 
BRANCH  26  27
ATOM     27  O   UNL     1      -1.107   3.627  -2.935  0.00  0.00    -0.385 OA
ATOM     28  C   UNL     1      -1.539   4.981  -3.079  0.00  0.00    +0.193 C 
ENDBRANCH  26  27
ENDBRANCH  25  26
ENDBRANCH  23  25
BRANCH  23  29
ATOM     29  C   UNL     1      -3.058   0.710  -2.515  0.00  0.00    -0.046 C 
BRANCH  29  30
ATOM     30  C   UNL     1      -3.628   0.369  -1.137  0.00  0.00    +0.102 C 
BRANCH  30  31
ATOM     31  O   UNL     1      -3.236  -0.956  -0.774  0.00  0.00    -0.393 OA
ATOM     32  H   UNL     1      -3.543  -1.639  -1.387  0.00  0.00    +0.210 HD
ENDBRANCH  30  31
BRANCH  30  33
ATOM     33  C   UNL     1      -5.155   0.455  -1.181  0.00  0.00    +0.064 C 
BRANCH  33  34
ATOM     34  C   UNL     1      -5.710   0.240   0.204  0.00  0.00    -0.045 A 
ATOM     35  C   UNL     1      -6.020  -1.037   0.633  0.00  0.00    +0.004 A 
ATOM     36  C   UNL     1      -6.529  -1.234   1.903  0.00  0.00    +0.000 A 
ATOM     37  C   UNL     1      -6.728  -0.155   2.744  0.00  0.00    +0.000 A 
ATOM     38  C   UNL     1      -6.418   1.122   2.314  0.00  0.00    +0.000 A 
ATOM     39  C   UNL     1      -5.904   1.319   1.046  0.00  0.00    +0.004 A 
ENDBRANCH  33  34
ENDBRANCH  30  33
ENDBRANCH  29  30
ENDBRANCH  23  29
ENDBRANCH  22  23
ENDBRANCH   2  22
TORSDOF 14
