REMARK  Name = ZINC12020289
REMARK  9 active torsions:
REMARK  status: ('A' for Active; 'I' for Inactive)
REMARK    1  A    between atoms: C_4  and  C_7
REMARK    2  A    between atoms: C_8  and  C_9
REMARK    3  A    between atoms: C_9  and  N_58
REMARK    4  A    between atoms: C_15  and  C_17
REMARK    5  A    between atoms: C_17  and  C_18
REMARK    6  A    between atoms: N_20  and  C_21
REMARK    7  A    between atoms: C_21  and  C_22
REMARK    8  A    between atoms: C_22  and  C_23
REMARK    9  A    between atoms: C_26  and  C_29
REMARK                            x       y       z     vdW  Elec       q    Type
REMARK                         _______ _______ _______ _____ _____    ______ ____
ROOT
ATOM      1  C   UNL     1       0.090  -7.280  -6.085  0.00  0.00    -0.058 C 
ATOM      2  C   UNL     1      -0.175  -8.757  -5.786  0.00  0.00    +0.085 C 
ATOM      3  N   UNL     1       0.752  -9.235  -4.764  0.00  0.00    -0.318 N 
ATOM      4  C   UNL     1       1.429  -8.414  -3.956  0.00  0.00    +0.200 C 
ATOM      5  O   UNL     1       2.156  -8.896  -3.113  0.00  0.00    -0.278 OA
ATOM      6  C   UNL     1       1.328  -6.917  -4.047  0.00  0.00    +0.028 C 
ATOM      7  H   UNL     1       0.882 -10.192  -4.668  0.00  0.00    +0.149 HD
ATOM      8  N   UNL     1       0.114  -6.551  -4.801  0.00  0.00    +0.391 N 
ATOM      9  H   UNL     1      -0.713  -6.812  -4.251  0.00  0.00    -0.080 HD
ENDROOT
BRANCH   8  10
ATOM     10  C   UNL     1       0.090  -5.091  -5.044  0.00  0.00    -0.050 C 
BRANCH  10  12
ATOM     11  C   UNL     1      -1.954  -3.751  -4.814  0.00  0.00    +0.002 C 
ATOM     12  C   UNL     1      -1.296  -4.691  -5.478  0.00  0.00    -0.045 C 
BRANCH  11  16
ATOM     13  C   UNL     1      -5.862  -2.625  -6.037  0.00  0.00    +0.000 A 
ATOM     14  C   UNL     1      -5.278  -2.009  -4.944  0.00  0.00    +0.001 A 
ATOM     15  C   UNL     1      -4.009  -2.370  -4.542  0.00  0.00    +0.008 A 
ATOM     16  C   UNL     1      -3.314  -3.359  -5.239  0.00  0.00    -0.025 A 
ATOM     17  C   UNL     1      -3.907  -3.973  -6.343  0.00  0.00    +0.008 A 
ATOM     18  C   UNL     1      -5.179  -3.607  -6.732  0.00  0.00    +0.001 A 
ENDBRANCH  11  16
ENDBRANCH  10  12
ENDBRANCH   8  10
BRANCH   6  19
ATOM     19  C   UNL     1       1.236  -6.328  -2.638  0.00  0.00    +0.089 C 
BRANCH  19  20
ATOM     20  C   UNL     1      -0.020  -6.822  -1.968  0.00  0.00    +0.212 C 
ATOM     21  O   UNL     1      -0.818  -7.490  -2.592  0.00  0.00    -0.276 OA
ATOM     22  N   UNL     1      -0.257  -6.522  -0.676  0.00  0.00    -0.315 N 
ATOM     23  H   UNL     1       0.380  -5.988  -0.177  0.00  0.00    +0.149 HD
BRANCH  22  24
ATOM     24  C   UNL     1      -1.478  -7.003  -0.024  0.00  0.00    +0.109 C 
BRANCH  24  25
ATOM     25  C   UNL     1      -1.502  -6.526   1.429  0.00  0.00    +0.054 C 
BRANCH  25  26
ATOM     26  C   UNL     1      -2.759  -7.020   2.099  0.00  0.00    -0.046 A 
ATOM     27  C   UNL     1      -2.763  -8.243   2.743  0.00  0.00    +0.004 A 
ATOM     28  C   UNL     1      -3.915  -8.697   3.359  0.00  0.00    +0.012 A 
ATOM     29  C   UNL     1      -5.062  -7.926   3.330  0.00  0.00    +0.055 A 
ATOM     30  C   UNL     1      -5.058  -6.704   2.686  0.00  0.00    +0.012 A 
ATOM     31  C   UNL     1      -3.906  -6.250   2.071  0.00  0.00    +0.004 A 
BRANCH  29  32
ATOM     32  C   UNL     1      -6.318  -8.420   4.001  0.00  0.00    +0.417 C 
ATOM     33  F   UNL     1      -6.339  -7.985   5.330  0.00  0.00    -0.166 F 
ATOM     34  F   UNL     1      -7.436  -7.916   3.327  0.00  0.00    -0.166 F 
ATOM     35  F   UNL     1      -6.345  -9.819   3.968  0.00  0.00    -0.166 F 
ENDBRANCH  29  32
ENDBRANCH  25  26
ENDBRANCH  24  25
ENDBRANCH  22  24
ENDBRANCH  19  20
ENDBRANCH   6  19
TORSDOF 9
