REMARK  Name = ZINC00836900
REMARK  5 active torsions:
REMARK  status: ('A' for Active; 'I' for Inactive)
REMARK    1  A    between atoms: C_1  and  C_2
REMARK    2  A    between atoms: C_5  and  C_8
REMARK    3  A    between atoms: C_8  and  C_22
REMARK    4  A    between atoms: C_16  and  C_20
REMARK    5  A    between atoms: C_16  and  C_21
REMARK                            x       y       z     vdW  Elec       q    Type
REMARK                         _______ _______ _______ _____ _____    ______ ____
ROOT
ATOM      1  C   UNL     1      -0.733   1.888   1.268  0.00  0.00    +0.300 C 
ATOM      2  N   UNL     1      -0.770   3.353   1.263  0.00  0.00    -0.263 N 
ATOM      3  C   UNL     1       0.277   4.046   1.764  0.00  0.00    +0.254 C 
ATOM      4  O   UNL     1       0.327   5.257   1.668  0.00  0.00    -0.270 OA
ATOM      5  C   UNL     1       1.356   3.295   2.430  0.00  0.00    +0.116 C 
ATOM      6  C   UNL     1       1.161   1.965   2.728  0.00  0.00    +0.117 C 
ATOM      7  O   UNL     1      -0.030   1.406   2.440  0.00  0.00    -0.459 OA
ATOM      8  C   UNL     1       2.234   1.130   3.369  0.00  0.00    +0.081 C 
ATOM      9  C   UNL     1       3.615   1.741   3.149  0.00  0.00    -0.021 C 
ATOM     10  C   UNL     1       3.605   3.201   3.625  0.00  0.00    +0.086 C 
ATOM     11  C   UNL     1       2.623   3.953   2.750  0.00  0.00    +0.172 C 
ATOM     12  O   UNL     1       2.878   5.062   2.329  0.00  0.00    -0.292 OA
ATOM     13  C   UNL     1       3.965   1.692   1.660  0.00  0.00    +0.012 C 
ATOM     14  C   UNL     1       4.657   0.952   3.945  0.00  0.00    +0.012 C 
ATOM     15  H   UNL     1      -1.539   3.821   0.902  0.00  0.00    +0.153 HD
ENDROOT
BRANCH   1  20
ATOM     16  C   UNL     1      -6.141  -0.147   1.314  0.00  0.00    +0.044 C 
ATOM     17  C   UNL     1      -4.731   0.384   1.302  0.00  0.00    -0.050 A 
ATOM     18  C   UNL     1      -3.713  -0.345   1.889  0.00  0.00    +0.004 A 
ATOM     19  C   UNL     1      -2.420   0.142   1.878  0.00  0.00    +0.010 A 
ATOM     20  C   UNL     1      -2.143   1.357   1.280  0.00  0.00    +0.023 A 
ATOM     21  C   UNL     1      -3.162   2.089   0.699  0.00  0.00    +0.010 A 
ATOM     22  C   UNL     1      -4.455   1.600   0.705  0.00  0.00    +0.004 A 
ENDBRANCH   1  20
BRANCH   1  23
ATOM     23  C   UNL     1      -0.017   1.395   0.010  0.00  0.00    +0.452 C 
ATOM     24  F   UNL     1       0.002  -0.004   0.002  0.00  0.00    -0.165 F 
ATOM     25  F   UNL     1       1.296   1.879  -0.000  0.00  0.00    -0.165 F 
ATOM     26  F   UNL     1      -0.694   1.858  -1.124  0.00  0.00    -0.165 F 
ENDBRANCH   1  23
TORSDOF 2
