REMARK  Name = ZINC65192526
REMARK  8 active torsions:
REMARK  status: ('A' for Active; 'I' for Inactive)
REMARK    1  A    between atoms: C_1  and  C_2
REMARK    2  A    between atoms: C_5  and  N_9
REMARK    3  A    between atoms: C_13  and  S_14
REMARK    4  A    between atoms: S_14  and  C_15
REMARK    5  A    between atoms: C_15  and  C_16
REMARK    6  A    between atoms: N_18  and  N_19
REMARK    7  A    between atoms: N_22  and  C_23
REMARK    8  A    between atoms: C_23  and  C_24
REMARK                            x       y       z     vdW  Elec       q    Type
REMARK                         _______ _______ _______ _____ _____    ______ ____
ROOT
ATOM      1  C   UNL     1       2.928  -6.048   2.327  0.00  0.00    +0.174 C 
ENDROOT
BRANCH   1   2
ATOM      2  C   UNL     1       4.063  -5.755   3.274  0.00  0.00    +0.239 C 
ATOM      3  O   UNL     1       4.355  -4.607   3.535  0.00  0.00    -0.273 OA
ATOM      4  N   UNL     1       4.755  -6.769   3.831  0.00  0.00    -0.233 N 
ATOM      5  H   UNL     1       4.522  -7.687   3.622  0.00  0.00    +0.173 HD
BRANCH   4   6
ATOM      6  N   UNL     1       5.811  -6.497   4.711  0.00  0.00    -0.218 N 
ATOM      7  C   UNL     1       6.502  -7.511   5.268  0.00  0.00    +0.316 C 
ATOM      8  O   UNL     1       7.418  -7.274   6.032  0.00  0.00    -0.251 OA
ATOM      9  N   UNL     1       6.178  -8.786   4.978  0.00  0.00    -0.298 N 
ATOM     10  H   UNL     1       6.043  -5.579   4.920  0.00  0.00    +0.174 HD
ATOM     11  H   UNL     1       5.448  -8.975   4.369  0.00  0.00    +0.150 HD
BRANCH   9  12
ATOM     12  C   UNL     1       6.930  -9.889   5.583  0.00  0.00    +0.109 C 
BRANCH  12  13
ATOM     13  C   UNL     1       6.364 -11.222   5.092  0.00  0.00    +0.006 C 
ATOM     14  C   UNL     1       5.734 -12.149   6.133  0.00  0.00    +0.005 C 
ATOM     15  C   UNL     1       7.091 -12.499   5.520  0.00  0.00    +0.005 C 
ENDBRANCH  12  13
ENDBRANCH   9  12
ENDBRANCH   4   6
ENDBRANCH   1   2
BRANCH   1  16
ATOM     16  S   UNL     1       2.203  -4.488   1.752  0.00  0.00    -0.076 S 
BRANCH  16  21
ATOM     17  N   UNL     1       0.059  -4.174  -0.022  0.00  0.00    -0.277 N 
ATOM     18  C   UNL     1      -0.766  -5.008  -0.729  0.00  0.00    +0.230 A 
ATOM     19  N   UNL     1      -0.411  -6.231  -0.452  0.00  0.00    -0.137 NA
ATOM     20  N   UNL     1       0.574  -6.229   0.375  0.00  0.00    -0.122 NA
ATOM     21  C   UNL     1       0.908  -4.993   0.669  0.00  0.00    +0.196 A 
BRANCH  17  26
ATOM     22  C   UNL     1      -0.018   1.503   0.010  0.00  0.00    +0.045 C 
ATOM     23  C   UNL     1       0.002  -0.004   0.002  0.00  0.00    -0.032 A 
ATOM     24  C   UNL     1       0.006  -0.688  -1.200  0.00  0.00    +0.007 A 
ATOM     25  C   UNL     1       0.025  -2.069  -1.211  0.00  0.00    +0.026 A 
ATOM     26  C   UNL     1       0.040  -2.771  -0.013  0.00  0.00    +0.051 A 
ATOM     27  C   UNL     1       0.037  -2.084   1.192  0.00  0.00    +0.046 A 
ATOM     28  C   UNL     1       0.023  -0.701   1.197  0.00  0.00    +0.046 A 
ATOM     29 CL   UNL     1       0.025   0.161   2.704  0.00  0.00    -0.083 Cl
ENDBRANCH  17  26
ENDBRANCH  16  21
ENDBRANCH   1  16
TORSDOF 7
