REMARK  Name = ZINC03327208
REMARK  8 active torsions:
REMARK  status: ('A' for Active; 'I' for Inactive)
REMARK    1  A    between atoms: C_1  and  C_2
REMARK    2  A    between atoms: C_2  and  N_47
REMARK    3  A    between atoms: C_3  and  C_4
REMARK    4  A    between atoms: C_3  and  N_47
REMARK    5  A    between atoms: N_6  and  C_7
REMARK    6  A    between atoms: C_14  and  C_15
REMARK    7  A    between atoms: C_14  and  N_47
REMARK    8  A    between atoms: N_17  and  C_18
REMARK                            x       y       z     vdW  Elec       q    Type
REMARK                         _______ _______ _______ _____ _____    ______ ____
ROOT
ATOM      1  N   UNL     1       3.174  -4.602  -2.531  0.00  0.00    +0.391 N 
ATOM      2  H   UNL     1       2.808  -4.353  -3.457  0.00  0.00    -0.080 HD
ENDROOT
BRANCH   1   4
ATOM      3  C   UNL     1       5.068  -4.289  -0.973  0.00  0.00    -0.017 C 
ATOM      4  C   UNL     1       4.531  -4.034  -2.383  0.00  0.00    -0.081 C 
ENDBRANCH   1   4
BRANCH   1   5
ATOM      5  C   UNL     1       3.228  -6.075  -2.417  0.00  0.00    +0.020 C 
BRANCH   5   6
ATOM      6  C   UNL     1       3.832  -6.636  -3.678  0.00  0.00    +0.201 C 
ATOM      7  O   UNL     1       4.100  -5.899  -4.603  0.00  0.00    -0.278 OA
ATOM      8  N   UNL     1       4.072  -7.959  -3.779  0.00  0.00    -0.287 N 
ATOM      9  H   UNL     1       3.792  -8.558  -3.070  0.00  0.00    +0.155 HD
BRANCH   8  10
ATOM     10  C   UNL     1       4.726  -8.466  -4.907  0.00  0.00    +0.033 A 
ATOM     11  C   UNL     1       4.484  -7.916  -6.159  0.00  0.00    +0.024 A 
ATOM     12  C   UNL     1       5.136  -8.415  -7.270  0.00  0.00    +0.016 A 
ATOM     13  C   UNL     1       6.020  -9.471  -7.138  0.00  0.00    +0.013 A 
ATOM     14  C   UNL     1       6.259 -10.025  -5.893  0.00  0.00    +0.016 A 
ATOM     15  C   UNL     1       5.615  -9.526  -4.778  0.00  0.00    +0.024 A 
ATOM     16  I   UNL     1       6.999 -10.231  -8.827  0.00  0.00    -0.044 I 
ENDBRANCH   8  10
ENDBRANCH   5   6
ENDBRANCH   1   5
BRANCH   1  17
ATOM     17  C   UNL     1       2.278  -4.048  -1.494  0.00  0.00    +0.019 C 
BRANCH  17  18
ATOM     18  C   UNL     1       2.068  -2.581  -1.768  0.00  0.00    +0.197 C 
ATOM     19  O   UNL     1       2.618  -2.055  -2.712  0.00  0.00    -0.278 OA
ATOM     20  N   UNL     1       1.268  -1.853  -0.964  0.00  0.00    -0.312 N 
ATOM     21  H   UNL     1       0.827  -2.274  -0.209  0.00  0.00    +0.149 HD
BRANCH  20  22
ATOM     22  C   UNL     1       1.063  -0.427  -1.231  0.00  0.00    +0.095 C 
ATOM     23  C   UNL     1      -0.284   0.015  -0.635  0.00  0.00    +0.046 C 
ATOM     24  C   UNL     1      -0.334   1.570  -0.651  0.00  0.00    +0.168 C 
ATOM     25  S   UNL     1       1.391   1.967  -0.141  0.00  0.00    -0.029 S 
ATOM     26  O   UNL     1       1.893   3.003  -0.975  0.00  0.00    -0.174 OA
ATOM     27  O   UNL     1       1.431   2.124   1.271  0.00  0.00    -0.174 OA
ATOM     28  C   UNL     1       2.214   0.386  -0.591  0.00  0.00    +0.188 C 
ENDBRANCH  20  22
ENDBRANCH  17  18
ENDBRANCH   1  17
TORSDOF 7
