REMARK  Name = ZINC06103448
REMARK  7 active torsions:
REMARK  status: ('A' for Active; 'I' for Inactive)
REMARK    1  A    between atoms: C_1  and  C_2
REMARK    2  A    between atoms: C_2  and  C_3
REMARK    3  A    between atoms: C_8  and  N_9
REMARK    4  A    between atoms: C_12  and  C_17
REMARK    5  A    between atoms: C_17  and  S_18
REMARK    6  A    between atoms: S_18  and  C_19
REMARK    7  A    between atoms: C_22  and  C_24
REMARK                            x       y       z     vdW  Elec       q    Type
REMARK                         _______ _______ _______ _____ _____    ______ ____
ROOT
ATOM      1  N   UNL     1      -4.025   3.134   2.301  0.00  0.00    -0.283 N 
ATOM      2  C   UNL     1      -2.661   2.920   2.325  0.00  0.00    +0.224 A 
ATOM      3  N   UNL     1      -2.036   2.479   1.235  0.00  0.00    -0.198 NA
ATOM      4  C   UNL     1      -0.732   2.269   1.258  0.00  0.00    +0.146 A 
ATOM      5  N   UNL     1      -0.040   2.505   2.360  0.00  0.00    -0.199 NA
ATOM      6  C   UNL     1      -0.657   2.951   3.451  0.00  0.00    +0.217 A 
ATOM      7  N   UNL     1      -1.969   3.159   3.433  0.00  0.00    -0.181 NA
ATOM      8  N   UNL     1       0.066   3.197   4.601  0.00  0.00    -0.327 N 
ATOM      9  H   UNL     1      -4.516   3.041   1.470  0.00  0.00    +0.155 HD
ATOM     10  H   UNL     1       1.024   3.045   4.614  0.00  0.00    +0.145 HD
ATOM     11  H   UNL     1      -0.384   3.522   5.397  0.00  0.00    +0.145 HD
ENDROOT
BRANCH   1  17
ATOM     12  C   UNL     1      -5.899   4.178   3.409  0.00  0.00    -0.026 A 
ATOM     13  C   UNL     1      -6.562   4.521   4.571  0.00  0.00    +0.005 A 
ATOM     14  C   UNL     1      -6.032   4.173   5.800  0.00  0.00    +0.000 A 
ATOM     15  C   UNL     1      -4.837   3.480   5.870  0.00  0.00    +0.002 A 
ATOM     16  C   UNL     1      -4.171   3.131   4.712  0.00  0.00    +0.023 A 
ATOM     17  C   UNL     1      -4.699   3.483   3.476  0.00  0.00    +0.037 A 
BRANCH  12  19
ATOM     18  C   UNL     1      -7.294   3.388   1.517  0.00  0.00    +0.009 C 
ATOM     19  C   UNL     1      -6.478   4.558   2.071  0.00  0.00    +0.033 C 
ENDBRANCH  12  19
ENDBRANCH   1  17
BRANCH   4  20
ATOM     20  C   UNL     1      -0.030   1.764   0.024  0.00  0.00    +0.155 C 
BRANCH  20  21
ATOM     21  S   UNL     1      -0.010  -0.046   0.039  0.00  0.00    -0.058 S 
BRANCH  21  22
ATOM     22  C   UNL     1       0.844  -0.355  -1.471  0.00  0.00    +0.278 A 
ATOM     23  N   UNL     1       1.300   0.548  -2.306  0.00  0.00    -0.101 NA
ATOM     24  N   UNL     1       1.868  -0.040  -3.299  0.00  0.00    -0.111 NA
ATOM     25  C   UNL     1       1.798  -1.329  -3.141  0.00  0.00    +0.221 A 
ATOM     26  O   UNL     1       1.155  -1.562  -1.980  0.00  0.00    -0.415 OA
BRANCH  25  27
ATOM     27  C   UNL     1       2.343  -2.372  -4.082  0.00  0.00    +0.077 C 
ATOM     28  C   UNL     1       3.855  -2.189  -4.227  0.00  0.00    +0.013 C 
ATOM     29  C   UNL     1       4.408  -3.248  -5.182  0.00  0.00    +0.001 C 
ATOM     30  C   UNL     1       3.743  -3.097  -6.552  0.00  0.00    +0.000 C 
ATOM     31  C   UNL     1       2.231  -3.280  -6.407  0.00  0.00    +0.001 C 
ATOM     32  C   UNL     1       1.677  -2.221  -5.451  0.00  0.00    +0.013 C 
ENDBRANCH  25  27
ENDBRANCH  21  22
ENDBRANCH  20  21
ENDBRANCH   4  20
TORSDOF 6
