REMARK  Name = ZINC15735291
REMARK  6 active torsions:
REMARK  status: ('A' for Active; 'I' for Inactive)
REMARK    1  A    between atoms: C_1  and  C_2
REMARK    2  A    between atoms: C_2  and  C_3
REMARK    3  A    between atoms: C_3  and  N_4
REMARK    4  A    between atoms: C_19  and  C_21
REMARK    5  A    between atoms: C_24  and  S_27
REMARK    6  A    between atoms: S_27  and  C_28
REMARK                            x       y       z     vdW  Elec       q    Type
REMARK                         _______ _______ _______ _____ _____    ______ ____
ROOT
ATOM      1  N   UNL     1      -2.379   2.638   0.018  0.00  0.00    -0.299 N 
ATOM      2  C   UNL     1      -1.059   2.905  -0.036  0.00  0.00    +0.303 C 
ATOM      3  O   UNL     1      -0.676   4.051  -0.173  0.00  0.00    -0.253 OA
ATOM      4  N   UNL     1      -0.163   1.903   0.062  0.00  0.00    -0.269 N 
ATOM      5  C   UNL     1      -0.588   0.501   0.229  0.00  0.00    +0.148 C 
ATOM      6  C   UNL     1       0.292  -0.265   1.191  0.00  0.00    +0.005 A 
ATOM      7  C   UNL     1      -0.149  -0.697   2.459  0.00  0.00    -0.030 A 
ATOM      8  C   UNL     1       0.726  -1.398   3.227  0.00  0.00    -0.005 A 
ATOM      9  S   UNL     1       2.194  -1.479   2.232  0.00  0.00    -0.075 S 
ATOM     10  C   UNL     1       1.573  -0.571   0.850  0.00  0.00    +0.090 A 
ATOM     11  N   UNL     1       2.175  -0.183  -0.340  0.00  0.00    -0.312 N 
ATOM     12  C   UNL     1       2.931  -0.870  -1.228  0.00  0.00    +0.092 A 
ATOM     13  C   UNL     1       3.212  -0.046  -2.264  0.00  0.00    +0.020 A 
ATOM     14  C   UNL     1       2.619   1.204  -1.986  0.00  0.00    +0.025 A 
ATOM     15  C   UNL     1       2.013   1.106  -0.794  0.00  0.00    +0.049 A 
ATOM     16  C   UNL     1       1.296   2.156   0.001  0.00  0.00    +0.155 C 
ATOM     17  C   UNL     1       0.495  -1.961   4.591  0.00  0.00    +0.043 C 
ATOM     18  C   UNL     1      -0.772  -1.313   5.172  0.00  0.00    +0.005 C 
ATOM     19  C   UNL     1      -1.878  -1.362   4.114  0.00  0.00    +0.005 C 
ATOM     20  C   UNL     1      -1.555  -0.399   2.972  0.00  0.00    +0.036 C 
ATOM     21  H   UNL     1      -2.684   1.724   0.127  0.00  0.00    +0.150 HD
ENDROOT
BRANCH  16  22
ATOM     22  C   UNL     1       1.850   2.174   1.403  0.00  0.00    -0.021 A 
ATOM     23  C   UNL     1       1.009   2.415   2.474  0.00  0.00    +0.007 A 
ATOM     24  C   UNL     1       1.512   2.427   3.760  0.00  0.00    +0.015 A 
ATOM     25  C   UNL     1       2.867   2.207   3.976  0.00  0.00    +0.008 A 
ATOM     26  C   UNL     1       3.710   1.970   2.897  0.00  0.00    +0.015 A 
ATOM     27  C   UNL     1       3.199   1.954   1.614  0.00  0.00    +0.007 A 
BRANCH  25  28
ATOM     28  S   UNL     1       3.515   2.229   5.614  0.00  0.00    -0.129 S 
ATOM     29  C   UNL     1       2.068   2.568   6.654  0.00  0.00    +0.090 C 
ENDBRANCH  25  28
ENDBRANCH  16  22
BRANCH   1  30
ATOM     30  C   UNL     1      -3.352   3.727  -0.089  0.00  0.00    +0.105 C 
BRANCH  30  32
ATOM     31  C   UNL     1      -5.785   4.295  -0.110  0.00  0.00    +0.005 C 
ATOM     32  C   UNL     1      -4.769   3.156   0.001  0.00  0.00    +0.015 C 
ENDBRANCH  30  32
ENDBRANCH   1  30
TORSDOF 4
