REMARK  Name = ZINC36500583
REMARK  12 active torsions:
REMARK  status: ('A' for Active; 'I' for Inactive)
REMARK    1  A    between atoms: C_1  and  C_2
REMARK    2  A    between atoms: C_2  and  C_3
REMARK    3  A    between atoms: C_2  and  C_4
REMARK    4  A    between atoms: C_2  and  N_5
REMARK    5  A    between atoms: C_6  and  C_8
REMARK    6  A    between atoms: C_8  and  C_10
REMARK    7  A    between atoms: C_8  and  N_15
REMARK    8  A    between atoms: N_15  and  C_16
REMARK    9  A    between atoms: C_16  and  C_17
REMARK   10  A    between atoms: C_22  and  C_24
REMARK   11  A    between atoms: C_25  and  O_31
REMARK   12  A    between atoms: C_29  and  O_30
REMARK                            x       y       z     vdW  Elec       q    Type
REMARK                         _______ _______ _______ _____ _____    ______ ____
ROOT
ATOM      1  N   UNL     1       4.042   0.002  -2.453  0.00  0.00    -0.272 N 
ATOM      2  C   UNL     1       4.157   0.936  -3.417  0.00  0.00    +0.255 C 
ATOM      3  O   UNL     1       3.257   1.095  -4.220  0.00  0.00    -0.270 OA
ENDROOT
BRANCH   2   4
ATOM      4  C   UNL     1       5.371   1.766  -3.499  0.00  0.00    +0.119 A 
ATOM      5  C   UNL     1       6.461   1.347  -4.276  0.00  0.00    +0.133 A 
ATOM      6  C   UNL     1       7.598   2.135  -4.346  0.00  0.00    +0.046 A 
ATOM      7  C   UNL     1       7.661   3.330  -3.653  0.00  0.00    +0.007 A 
ATOM      8  C   UNL     1       6.592   3.752  -2.884  0.00  0.00    +0.046 A 
ATOM      9  C   UNL     1       5.443   2.982  -2.804  0.00  0.00    +0.133 A 
BRANCH   9  10
ATOM     10  O   UNL     1       4.393   3.401  -2.054  0.00  0.00    -0.506 OA
ATOM     11  H   UNL     1       4.423   3.102  -1.135  0.00  0.00    +0.292 HD
ENDBRANCH   9  10
BRANCH   5  12
ATOM     12  O   UNL     1       6.402   0.175  -4.956  0.00  0.00    -0.506 OA
ATOM     13  H   UNL     1       6.049   0.258  -5.852  0.00  0.00    +0.292 HD
ENDBRANCH   5  12
ENDBRANCH   2   4
BRANCH   1  14
ATOM     14  C   UNL     1       2.834  -0.823  -2.372  0.00  0.00    +0.229 C 
BRANCH  14  15
ATOM     15  C   UNL     1       1.643   0.057  -2.094  0.00  0.00    +0.134 A 
ATOM     16  C   UNL     1       0.583  -0.272  -1.334  0.00  0.00    +0.047 A 
ATOM     17  C   UNL     1      -0.290   0.840  -1.345  0.00  0.00    +0.041 A 
ATOM     18  C   UNL     1       0.289   1.782  -2.111  0.00  0.00    +0.195 A 
ATOM     19  O   UNL     1       1.462   1.304  -2.557  0.00  0.00    -0.465 OA
ENDBRANCH  14  15
BRANCH  14  21
ATOM     20  N   UNL     1       1.575  -2.368  -3.837  0.00  0.00    -0.309 N 
ATOM     21  C   UNL     1       2.631  -1.546  -3.679  0.00  0.00    +0.242 C 
ATOM     22  O   UNL     1       3.417  -1.387  -4.588  0.00  0.00    -0.273 OA
ATOM     23  H   UNL     1       0.946  -2.495  -3.110  0.00  0.00    +0.149 HD
BRANCH  20  25
ATOM     24  C   UNL     1       2.587  -3.963  -5.390  0.00  0.00    +0.031 C 
ATOM     25  C   UNL     1       1.377  -3.070  -5.107  0.00  0.00    +0.026 C 
ATOM     26  C   UNL     1       1.222  -2.049  -6.236  0.00  0.00    +0.031 C 
ATOM     27  C   UNL     1       0.116  -3.932  -5.023  0.00  0.00    +0.031 C 
ENDBRANCH  20  25
ENDBRANCH  14  21
ENDBRANCH   1  14
BRANCH   1  28
ATOM     28  C   UNL     1       5.126  -0.189  -1.486  0.00  0.00    +0.183 C 
BRANCH  28  29
ATOM     29  C   UNL     1       6.011  -1.321  -1.940  0.00  0.00    +0.122 A 
ATOM     30  C   UNL     1       7.157  -1.195  -2.632  0.00  0.00    +0.046 A 
ATOM     31  C   UNL     1       7.655  -2.501  -2.843  0.00  0.00    +0.041 A 
ATOM     32  C   UNL     1       6.782  -3.348  -2.268  0.00  0.00    +0.195 A 
ATOM     33  O   UNL     1       5.791  -2.627  -1.717  0.00  0.00    -0.466 OA
ENDBRANCH  28  29
ENDBRANCH   1  28
TORSDOF 9
