REMARK  Name = ZINC20701612
REMARK  7 active torsions:
REMARK  status: ('A' for Active; 'I' for Inactive)
REMARK    1  A    between atoms: C_1  and  C_2
REMARK    2  A    between atoms: C_2  and  O_3
REMARK    3  A    between atoms: O_3  and  C_4
REMARK    4  A    between atoms: C_7  and  N_10
REMARK    5  A    between atoms: C_11  and  C_13
REMARK    6  A    between atoms: C_20  and  C_29
REMARK    7  A    between atoms: C_34  and  O_35
REMARK                            x       y       z     vdW  Elec       q    Type
REMARK                         _______ _______ _______ _____ _____    ______ ____
ROOT
ATOM      1  C   UNL     1      -2.427   3.250  -0.510  0.00  0.00    +0.058 A 
ATOM      2  C   UNL     1      -3.595   3.040   0.225  0.00  0.00    +0.015 A 
ATOM      3  C   UNL     1      -3.513   2.795   1.578  0.00  0.00    +0.001 A 
ATOM      4  C   UNL     1      -2.281   2.755   2.206  0.00  0.00    +0.006 A 
ATOM      5  C   UNL     1      -1.109   2.960   1.492  0.00  0.00    -0.019 A 
ATOM      6  C   UNL     1      -1.175   3.210   0.134  0.00  0.00    +0.044 A 
ATOM      7  N   UNL     1      -0.041   3.426  -0.634  0.00  0.00    -0.336 N 
ATOM      8  C   UNL     1       1.127   2.739  -0.080  0.00  0.00    +0.109 C 
ATOM      9  C   UNL     1       1.389   3.223   1.337  0.00  0.00    +0.029 C 
ATOM     10  C   UNL     1       0.190   2.894   2.251  0.00  0.00    +0.049 C 
ATOM     11  C   UNL     1       0.202   4.028   3.263  0.00  0.00    -0.023 C 
ATOM     12  C   UNL     1       0.850   5.061   2.787  0.00  0.00    -0.030 C 
ATOM     13  C   UNL     1       1.364   4.770   1.390  0.00  0.00    +0.033 C 
ATOM     14  H   UNL     1       0.057   4.022  -1.554  0.00  0.00    +0.147 HD
ENDROOT
BRANCH   8  15
ATOM     15  C   UNL     1       0.872   1.253  -0.063  0.00  0.00    +0.017 A 
ATOM     16  C   UNL     1       1.189   0.511   1.059  0.00  0.00    +0.029 A 
ATOM     17  C   UNL     1       0.956  -0.853   1.076  0.00  0.00    +0.043 A 
ATOM     18  C   UNL     1       0.404  -1.476  -0.029  0.00  0.00    +0.043 A 
ATOM     19  C   UNL     1       0.085  -0.737  -1.153  0.00  0.00    +0.084 A 
ATOM     20  C   UNL     1       0.319   0.631  -1.172  0.00  0.00    +0.140 A 
ATOM     21 CL   UNL     1      -0.607  -1.519  -2.540  0.00  0.00    -0.080 Cl
ATOM     22 CL   UNL     1       1.354  -1.783   2.487  0.00  0.00    -0.083 Cl
BRANCH  20  23
ATOM     23  O   UNL     1       0.007   1.360  -2.276  0.00  0.00    -0.505 OA
ATOM     24  H   UNL     1      -0.432   0.866  -3.155  0.00  0.00    +0.292 HD
ENDBRANCH  20  23
ENDBRANCH   8  15
BRANCH   1  26
ATOM     25  N   UNL     1      -3.702   3.552  -2.574  0.00  0.00    -0.281 N 
ATOM     26  C   UNL     1      -2.504   3.514  -1.958  0.00  0.00    +0.250 C 
ATOM     27  O   UNL     1      -1.486   3.697  -2.598  0.00  0.00    -0.270 OA
ATOM     28  H   UNL     1      -4.626   3.462  -1.984  0.00  0.00    +0.155 HD
BRANCH  25  32
ATOM     29  C   UNL     1      -3.906   4.012  -6.712  0.00  0.00    +0.121 A 
ATOM     30  C   UNL     1      -4.832   3.213  -6.057  0.00  0.00    +0.047 A 
ATOM     31  C   UNL     1      -4.765   3.060  -4.686  0.00  0.00    +0.027 A 
ATOM     32  C   UNL     1      -3.771   3.707  -3.964  0.00  0.00    +0.034 A 
ATOM     33  C   UNL     1      -2.848   4.511  -4.620  0.00  0.00    +0.027 A 
ATOM     34  C   UNL     1      -2.913   4.658  -5.991  0.00  0.00    +0.047 A 
BRANCH  29  35
ATOM     35  O   UNL     1      -3.973   4.162  -8.062  0.00  0.00    -0.492 OA
BRANCH  35  37
ATOM     36  C   UNL     1      -3.222   5.046 -10.182  0.00  0.00    +0.048 C 
ATOM     37  C   UNL     1      -2.988   4.999  -8.671  0.00  0.00    +0.225 C 
ENDBRANCH  35  37
ENDBRANCH  29  35
ENDBRANCH  25  32
ENDBRANCH   1  26
TORSDOF 6
