REMARK  Name = ZINC23339559
REMARK  8 active torsions:
REMARK  status: ('A' for Active; 'I' for Inactive)
REMARK    1  A    between atoms: C_1  and  O_2
REMARK    2  A    between atoms: O_2  and  C_3
REMARK    3  A    between atoms: C_6  and  N_9
REMARK    4  A    between atoms: C_11  and  C_21
REMARK    5  A    between atoms: C_12  and  C_14
REMARK    6  A    between atoms: C_21  and  N_22
REMARK    7  A    between atoms: N_22  and  C_23
REMARK    8  A    between atoms: C_23  and  C_24
REMARK                            x       y       z     vdW  Elec       q    Type
REMARK                         _______ _______ _______ _____ _____    ______ ____
ROOT
ATOM      1  N   UNL     1       2.517  -2.495   4.251  0.00  0.00    -0.239 N 
ATOM      2  C   UNL     1       2.673  -3.837   4.394  0.00  0.00    +0.116 A 
ATOM      3  C   UNL     1       3.375  -4.054   5.527  0.00  0.00    -0.019 A 
ATOM      4  C   UNL     1       3.663  -2.803   6.105  0.00  0.00    +0.096 A 
ATOM      5  N   UNL     1       3.150  -1.868   5.332  0.00  0.00    -0.166 NA
ENDROOT
BRANCH   4   6
ATOM      6  C   UNL     1       4.418  -2.576   7.362  0.00  0.00    +0.021 A 
ATOM      7  C   UNL     1       5.638  -3.216   7.571  0.00  0.00    +0.011 A 
ATOM      8  C   UNL     1       6.336  -3.002   8.742  0.00  0.00    +0.001 A 
ATOM      9  C   UNL     1       5.827  -2.153   9.709  0.00  0.00    +0.001 A 
ATOM     10  C   UNL     1       4.617  -1.515   9.508  0.00  0.00    +0.020 A 
ATOM     11  C   UNL     1       3.912  -1.718   8.338  0.00  0.00    +0.050 A 
ATOM     12 CL   UNL     1       2.396  -0.911   8.084  0.00  0.00    -0.083 Cl
ENDBRANCH   4   6
BRANCH   1  16
ATOM     13  C   UNL     1       0.518  -0.577   1.133  0.00  0.00    +0.120 A 
ATOM     14  C   UNL     1       1.103   0.170   2.146  0.00  0.00    +0.048 A 
ATOM     15  C   UNL     1       1.764  -0.464   3.178  0.00  0.00    +0.031 A 
ATOM     16  C   UNL     1       1.845  -1.850   3.203  0.00  0.00    +0.066 A 
ATOM     17  C   UNL     1       1.259  -2.598   2.190  0.00  0.00    +0.031 A 
ATOM     18  C   UNL     1       0.593  -1.962   1.161  0.00  0.00    +0.048 A 
BRANCH  13  20
ATOM     19  C   UNL     1      -0.172   1.476   0.153  0.00  0.00    +0.277 C 
ATOM     20  O   UNL     1      -0.134   0.048   0.117  0.00  0.00    -0.495 OA
ENDBRANCH  13  20
ENDBRANCH   1  16
BRANCH   3  21
ATOM     21  C   UNL     1       3.779  -5.399   6.076  0.00  0.00    -0.042 C 
BRANCH  21  22
ATOM     22  N   UNL     1       2.914  -5.743   7.213  0.00  0.00    +0.387 N 
ATOM     23  H   UNL     1       3.011  -5.043   7.933  0.00  0.00    -0.085 HD
ATOM     24  H   UNL     1       1.954  -5.779   6.906  0.00  0.00    -0.085 HD
BRANCH  22  25
ATOM     25  C   UNL     1       3.308  -7.053   7.748  0.00  0.00    -0.003 C 
BRANCH  25  26
ATOM     26  C   UNL     1       2.421  -7.406   8.914  0.00  0.00    +0.138 A 
ATOM     27  N   UNL     1       1.269  -8.073   8.836  0.00  0.00    -0.177 NA
ATOM     28  C   UNL     1       0.754  -8.211  10.037  0.00  0.00    +0.364 A 
ATOM     29  O   UNL     1      -0.410  -8.835  10.339  0.00  0.00    -0.243 OA
ATOM     30  N   UNL     1       1.588  -7.620  10.916  0.00  0.00    -0.225 N 
ATOM     31  N   UNL     1       2.660  -7.113  10.164  0.00  0.00    -0.157 NA
ATOM     32  H   UNL     1       1.473  -7.561  11.877  0.00  0.00    +0.194 HD
ENDBRANCH  25  26
ENDBRANCH  22  25
ENDBRANCH  21  22
ENDBRANCH   3  21
TORSDOF 7
