REMARK  Name = ZINC01287020
REMARK  8 active torsions:
REMARK  status: ('A' for Active; 'I' for Inactive)
REMARK    1  A    between atoms: C_1  and  C_2
REMARK    2  A    between atoms: C_2  and  C_3
REMARK    3  A    between atoms: C_2  and  C_4
REMARK    4  A    between atoms: C_4  and  N_5
REMARK    5  A    between atoms: C_6  and  N_14
REMARK    6  A    between atoms: C_15  and  C_17
REMARK    7  A    between atoms: C_17  and  S_18
REMARK    8  A    between atoms: S_18  and  C_19
REMARK                            x       y       z     vdW  Elec       q    Type
REMARK                         _______ _______ _______ _____ _____    ______ ____
ROOT
ATOM      1  N   UNL     1       5.246   8.671  -0.174  0.00  0.00    -0.271 N 
ATOM      2  C   UNL     1       4.644   7.481  -0.368  0.00  0.00    +0.229 C 
ATOM      3  O   UNL     1       5.308   6.468  -0.431  0.00  0.00    -0.275 OA
ATOM      4  H   UNL     1       4.723   9.488  -0.194  0.00  0.00    +0.156 HD
ENDROOT
BRANCH   1   6
ATOM      5  N   UNL     1       7.473   8.935  -0.989  0.00  0.00    -0.281 N 
ATOM      6  C   UNL     1       6.604   8.727   0.054  0.00  0.00    +0.114 A 
ATOM      7  C   UNL     1       7.097   8.570   1.317  0.00  0.00    +0.112 A 
ATOM      8  C   UNL     1       8.487   8.631   1.520  0.00  0.00    +0.256 A 
ATOM      9  O   UNL     1       8.950   8.494   2.639  0.00  0.00    -0.268 OA
ATOM     10  N   UNL     1       9.304   8.842   0.469  0.00  0.00    -0.275 N 
ATOM     11  H   UNL     1      10.293   8.886   0.611  0.00  0.00    +0.173 HD
ATOM     12  C   UNL     1       8.799   8.995  -0.769  0.00  0.00    +0.331 A 
ATOM     13  O   UNL     1       9.553   9.184  -1.704  0.00  0.00    -0.246 OA
BRANCH   5  14
ATOM     14  C   UNL     1       6.953   9.098  -2.349  0.00  0.00    +0.131 C 
BRANCH  14  16
ATOM     15  C   UNL     1       6.383  10.759  -4.125  0.00  0.00    +0.009 C 
ATOM     16  C   UNL     1       6.825  10.588  -2.671  0.00  0.00    +0.003 C 
ATOM     17  C   UNL     1       5.787  11.223  -1.744  0.00  0.00    +0.009 C 
ENDBRANCH  14  16
ENDBRANCH   5  14
ENDBRANCH   1   6
BRANCH   2  18
ATOM     18  C   UNL     1       3.145   7.409  -0.506  0.00  0.00    +0.173 C 
BRANCH  18  19
ATOM     19  S   UNL     1       2.644   5.687  -0.755  0.00  0.00    -0.076 S 
BRANCH  19  20
ATOM     20  C   UNL     1       0.898   5.892  -0.882  0.00  0.00    +0.197 A 
ATOM     21  N   UNL     1       0.238   7.026  -0.804  0.00  0.00    -0.122 NA
ATOM     22  N   UNL     1      -1.023   6.816  -0.939  0.00  0.00    -0.129 NA
ATOM     23  C   UNL     1      -1.247   5.527  -1.112  0.00  0.00    +0.162 A 
ATOM     24  N   UNL     1      -0.020   4.903  -1.079  0.00  0.00    -0.270 N 
ATOM     25  C   UNL     1       0.082   3.531  -1.234  0.00  0.00    +0.058 A 
ATOM     26  C   UNL     1       1.319   2.900  -1.203  0.00  0.00    +0.027 A 
ATOM     27  C   UNL     1       1.398   1.532  -1.360  0.00  0.00    +0.002 A 
ATOM     28  C   UNL     1       0.251   0.775  -1.550  0.00  0.00    +0.001 A 
ATOM     29  C   UNL     1      -0.985   1.381  -1.591  0.00  0.00    +0.010 A 
ATOM     30  C   UNL     1      -1.082   2.767  -1.427  0.00  0.00    -0.001 A 
ATOM     31  C   UNL     1      -2.384   3.440  -1.458  0.00  0.00    +0.013 A 
ATOM     32  C   UNL     1      -2.435   4.782  -1.303  0.00  0.00    +0.049 A 
ENDBRANCH  19  20
ENDBRANCH  18  19
ENDBRANCH   2  18
TORSDOF 6
