REMARK  Name = ZINC39662453
REMARK  8 active torsions:
REMARK  status: ('A' for Active; 'I' for Inactive)
REMARK    1  A    between atoms: C_1  and  C_2
REMARK    2  A    between atoms: C_2  and  C_3
REMARK    3  A    between atoms: C_3  and  C_5
REMARK    4  A    between atoms: C_3  and  C_11
REMARK    5  A    between atoms: C_15  and  C_24
REMARK    6  A    between atoms: N_26  and  C_27
REMARK    7  A    between atoms: C_27  and  C_29
REMARK    8  A    between atoms: C_27  and  C_31
REMARK                            x       y       z     vdW  Elec       q    Type
REMARK                         _______ _______ _______ _____ _____    ______ ____
ROOT
ATOM      1  C   UNL     1      -2.169  -0.073  -1.345  0.00  0.00    +0.223 C 
ATOM      2  O   UNL     1      -2.773  -0.822  -2.083  0.00  0.00    -0.275 OA
ATOM      3  N   UNL     1      -2.170   1.254  -1.585  0.00  0.00    -0.300 N 
ATOM      4  C   UNL     1      -1.572   2.327  -0.755  0.00  0.00    +0.121 C 
ATOM      5  C   UNL     1      -0.963   3.315  -1.775  0.00  0.00    +0.100 C 
ATOM      6  C   UNL     1      -1.753   3.076  -3.073  0.00  0.00    -0.004 C 
ATOM      7  C   UNL     1      -2.763   1.968  -2.740  0.00  0.00    +0.115 C 
ATOM      8  C   UNL     1      -0.817   2.612  -4.184  0.00  0.00    -0.010 C 
ATOM      9  C   UNL     1      -1.616   2.437  -5.479  0.00  0.00    -0.082 C 
ATOM     10  N   UNL     1      -2.247   3.712  -5.843  0.00  0.00    +0.379 N 
ATOM     11  C   UNL     1      -3.215   4.104  -4.811  0.00  0.00    -0.082 C 
ATOM     12  C   UNL     1      -2.483   4.350  -3.489  0.00  0.00    -0.010 C 
ATOM     13  H   UNL     1      -1.537   4.425  -5.925  0.00  0.00    -0.086 HD
ATOM     14  H   UNL     1      -2.722   3.610  -6.727  0.00  0.00    -0.086 HD
ENDROOT
BRANCH   5  15
ATOM     15  C   UNL     1       0.499   3.016  -1.986  0.00  0.00    +0.219 C 
ATOM     16  O   UNL     1       0.906   1.878  -1.887  0.00  0.00    -0.275 OA
ATOM     17  N   UNL     1       1.355   4.014  -2.285  0.00  0.00    -0.296 N 
ATOM     18  H   UNL     1       1.029   4.924  -2.364  0.00  0.00    +0.150 HD
BRANCH  17  19
ATOM     19  C   UNL     1       2.776   3.724  -2.490  0.00  0.00    +0.207 C 
BRANCH  19  20
ATOM     20  C   UNL     1       3.588   4.960  -2.201  0.00  0.00    -0.013 A 
ATOM     21  C   UNL     1       3.126   6.200  -2.602  0.00  0.00    +0.006 A 
ATOM     22  C   UNL     1       3.870   7.334  -2.336  0.00  0.00    +0.000 A 
ATOM     23  C   UNL     1       5.077   7.228  -1.670  0.00  0.00    +0.000 A 
ATOM     24  C   UNL     1       5.539   5.988  -1.269  0.00  0.00    +0.000 A 
ATOM     25  C   UNL     1       4.792   4.855  -1.530  0.00  0.00    +0.006 A 
ENDBRANCH  19  20
BRANCH  19  26
ATOM     26  C   UNL     1       2.995   3.308  -3.885  0.00  0.00    +0.090 C 
ATOM     27  N   UNL     1       3.165   2.987  -4.961  0.00  0.00    -0.194 NA
ENDBRANCH  19  26
ENDBRANCH  17  19
ENDBRANCH   5  15
BRANCH   1  28
ATOM     28  C   UNL     1      -1.417  -0.624  -0.161  0.00  0.00    +0.105 C 
BRANCH  28  29
ATOM     29  C   UNL     1      -2.348  -0.729   1.020  0.00  0.00    -0.036 A 
ATOM     30  C   UNL     1      -3.474  -1.527   0.943  0.00  0.00    +0.004 A 
ATOM     31  C   UNL     1      -4.328  -1.624   2.026  0.00  0.00    +0.000 A 
ATOM     32  C   UNL     1      -4.055  -0.922   3.186  0.00  0.00    +0.000 A 
ATOM     33  C   UNL     1      -2.928  -0.125   3.263  0.00  0.00    +0.000 A 
ATOM     34  C   UNL     1      -2.072  -0.032   2.181  0.00  0.00    +0.004 A 
ENDBRANCH  28  29
BRANCH  28  36
ATOM     35  C   UNL     1       0.180  -1.886  -1.609  0.00  0.00    +0.005 C 
ATOM     36  C   UNL     1      -0.871  -2.011  -0.505  0.00  0.00    +0.014 C 
ENDBRANCH  28  36
ENDBRANCH   1  28
TORSDOF 7
