REMARK  Name = ZINC67159150
REMARK  7 active torsions:
REMARK  status: ('A' for Active; 'I' for Inactive)
REMARK    1  A    between atoms: C_1  and  C_2
REMARK    2  A    between atoms: C_2  and  C_4
REMARK    3  A    between atoms: C_2  and  N_21
REMARK    4  A    between atoms: C_4  and  C_5
REMARK    5  A    between atoms: N_7  and  C_8
REMARK    6  A    between atoms: N_12  and  C_14
REMARK    7  A    between atoms: C_22  and  C_24
REMARK                            x       y       z     vdW  Elec       q    Type
REMARK                         _______ _______ _______ _____ _____    ______ ____
ROOT
ATOM      1  C   UNL     1      -1.414  -2.036   0.129  0.00  0.00    +0.215 C 
ATOM      2  O   UNL     1      -0.356  -2.625   0.196  0.00  0.00    -0.276 OA
ATOM      3  N   UNL     1      -2.572  -2.725   0.157  0.00  0.00    -0.314 N 
ATOM      4  H   UNL     1      -3.418  -2.254   0.104  0.00  0.00    +0.149 HD
ENDROOT
BRANCH   3   5
ATOM      5  C   UNL     1      -2.552  -4.186   0.270  0.00  0.00    +0.055 C 
ATOM      6  C   UNL     1      -2.519  -4.609   1.756  0.00  0.00    +0.002 C 
ATOM      7  C   UNL     1      -4.010  -4.897   2.067  0.00  0.00    -0.077 C 
ATOM      8  N   UNL     1      -4.503  -5.524   0.815  0.00  0.00    +0.383 N 
ATOM      9  C   UNL     1      -3.856  -4.782  -0.292  0.00  0.00    -0.056 C 
ATOM     10  H   UNL     1      -4.236  -6.497   0.783  0.00  0.00    -0.081 HD
BRANCH   8  11
ATOM     11  C   UNL     1      -5.964  -5.396   0.725  0.00  0.00    -0.069 C 
ATOM     12  C   UNL     1      -6.601  -6.070   1.958  0.00  0.00    -0.015 C 
ATOM     13  C   UNL     1      -7.989  -5.518   2.140  0.00  0.00    -0.002 C 
ATOM     14  C   UNL     1      -9.064  -6.390   1.464  0.00  0.00    -0.000 C 
ATOM     15  C   UNL     1      -8.635  -6.897   0.074  0.00  0.00    -0.000 C 
ATOM     16  C   UNL     1      -7.934  -5.838  -0.734  0.00  0.00    -0.002 C 
ATOM     17  C   UNL     1      -6.413  -5.988  -0.526  0.00  0.00    -0.015 C 
ENDBRANCH   8  11
ENDBRANCH   3   5
BRANCH   1  18
ATOM     18  C   UNL     1      -1.433  -0.534   0.013  0.00  0.00    +0.117 C 
BRANCH  18  20
ATOM     19  C   UNL     1      -0.019   1.526   0.010  0.00  0.00    +0.028 C 
ATOM     20  C   UNL     1       0.002  -0.004   0.002  0.00  0.00    +0.079 C 
BRANCH  20  21
ATOM     21  N   UNL     1       0.688  -0.476  -1.203  0.00  0.00    -0.312 N 
ATOM     22  C   UNL     1       2.031  -0.587  -1.215  0.00  0.00    +0.216 C 
ATOM     23  O   UNL     1       2.672  -0.295  -0.228  0.00  0.00    -0.276 OA
ATOM     24  H   UNL     1       0.175  -0.710  -1.993  0.00  0.00    +0.149 HD
BRANCH  22  25
ATOM     25  C   UNL     1       2.736  -1.073  -2.455  0.00  0.00    +0.075 C 
ATOM     26  C   UNL     1       2.433  -0.127  -3.618  0.00  0.00    +0.013 C 
ATOM     27  C   UNL     1       3.149  -0.620  -4.877  0.00  0.00    +0.001 C 
ATOM     28  C   UNL     1       4.658  -0.652  -4.626  0.00  0.00    +0.000 C 
ATOM     29  C   UNL     1       4.961  -1.599  -3.462  0.00  0.00    +0.001 C 
ATOM     30  C   UNL     1       4.245  -1.105  -2.204  0.00  0.00    +0.013 C 
ENDBRANCH  22  25
ENDBRANCH  20  21
ENDBRANCH  18  20
ENDBRANCH   1  18
TORSDOF 6
