REMARK  Name = ZINC05095406
REMARK  11 active torsions:
REMARK  status: ('A' for Active; 'I' for Inactive)
REMARK    1  A    between atoms: C_1  and  C_2
REMARK    2  A    between atoms: C_2  and  O_3
REMARK    3  A    between atoms: O_3  and  C_4
REMARK    4  A    between atoms: C_7  and  C_13
REMARK    5  A    between atoms: C_8  and  O_10
REMARK    6  A    between atoms: O_10  and  C_11
REMARK    7  A    between atoms: C_11  and  C_12
REMARK    8  A    between atoms: C_20  and  N_33
REMARK    9  A    between atoms: C_21  and  C_31
REMARK   10  A    between atoms: C_22  and  C_24
REMARK   11  A    between atoms: C_27  and  O_30
REMARK                            x       y       z     vdW  Elec       q    Type
REMARK                         _______ _______ _______ _____ _____    ______ ____
ROOT
ATOM      1  C   UNL     1       1.303  -6.387   1.731  0.00  0.00    +0.104 A 
ATOM      2  C   UNL     1       0.584  -7.206   0.855  0.00  0.00    +0.054 A 
ATOM      3  C   UNL     1       0.801  -8.504   1.216  0.00  0.00    +0.223 A 
ATOM      4  N   UNL     1       1.630  -8.501   2.280  0.00  0.00    -0.246 N 
ATOM      5  H   UNL     1       1.959  -9.284   2.750  0.00  0.00    +0.192 HD
ATOM      6  N   UNL     1       1.938  -7.166   2.586  0.00  0.00    -0.170 NA
ATOM      7  O   UNL     1       0.238  -9.550   0.561  0.00  0.00    -0.423 OA
ATOM      8  C   UNL     1      -0.768  -9.283  -0.295  0.00  0.00    +0.200 C 
ATOM      9  C   UNL     1      -1.072  -8.041  -0.734  0.00  0.00    +0.098 C 
ATOM     10  C   UNL     1      -0.298  -6.820  -0.304  0.00  0.00    +0.102 C 
ENDROOT
BRANCH   1  14
ATOM     11  C   UNL     1       1.435  -2.133   1.644  0.00  0.00    +0.124 A 
ATOM     12  C   UNL     1       0.215  -2.793   1.564  0.00  0.00    +0.046 A 
ATOM     13  C   UNL     1       0.170  -4.171   1.592  0.00  0.00    +0.017 A 
ATOM     14  C   UNL     1       1.349  -4.904   1.700  0.00  0.00    +0.044 A 
ATOM     15  C   UNL     1       2.576  -4.239   1.780  0.00  0.00    +0.133 A 
ATOM     16  C   UNL     1       2.614  -2.856   1.746  0.00  0.00    +0.092 A 
BRANCH  11  17
ATOM     17  O   UNL     1       1.473  -0.775   1.616  0.00  0.00    -0.492 OA
BRANCH  17  19
ATOM     18  C   UNL     1       0.464   1.418   1.494  0.00  0.00    +0.048 C 
ATOM     19  C   UNL     1       0.222  -0.092   1.510  0.00  0.00    +0.225 C 
ENDBRANCH  17  19
ENDBRANCH  11  17
BRANCH  15  20
ATOM     20  O   UNL     1       3.730  -4.949   1.886  0.00  0.00    -0.491 OA
BRANCH  20  21
ATOM     21  C   UNL     1       4.946  -4.203   1.963  0.00  0.00    +0.226 C 
ATOM     22  C   UNL     1       6.129  -5.166   2.077  0.00  0.00    +0.048 C 
ENDBRANCH  20  21
ENDBRANCH  15  20
ENDBRANCH   1  14
BRANCH  10  23
ATOM     23  C   UNL     1       0.552  -6.328  -1.447  0.00  0.00    -0.034 A 
ATOM     24  C   UNL     1       1.542  -7.139  -1.970  0.00  0.00    +0.008 A 
ATOM     25  C   UNL     1       2.323  -6.691  -3.017  0.00  0.00    +0.046 A 
ATOM     26  C   UNL     1       2.112  -5.425  -3.546  0.00  0.00    +0.117 A 
ATOM     27  C   UNL     1       1.118  -4.613  -3.020  0.00  0.00    +0.046 A 
ATOM     28  C   UNL     1       0.336  -5.069  -1.976  0.00  0.00    +0.008 A 
BRANCH  26  29
ATOM     29  O   UNL     1       2.879  -4.981  -4.576  0.00  0.00    -0.507 OA
ATOM     30  H   UNL     1       2.522  -5.190  -5.450  0.00  0.00    +0.292 HD
ENDBRANCH  26  29
ENDBRANCH  10  23
BRANCH   8  31
ATOM     31  N   UNL     1      -1.529 -10.332  -0.746  0.00  0.00    -0.328 N 
ATOM     32  H   UNL     1      -1.335 -11.235  -0.449  0.00  0.00    +0.145 HD
ATOM     33  H   UNL     1      -2.260 -10.171  -1.363  0.00  0.00    +0.145 HD
ENDBRANCH   8  31
BRANCH   9  34
ATOM     34  C   UNL     1      -2.168  -7.879  -1.642  0.00  0.00    +0.101 C 
ATOM     35  N   UNL     1      -3.037  -7.751  -2.361  0.00  0.00    -0.191 NA
ENDBRANCH   9  34
TORSDOF 9
