REMARK  Name = ZINC36205422
REMARK  12 active torsions:
REMARK  status: ('A' for Active; 'I' for Inactive)
REMARK    1  A    between atoms: C_1  and  C_2
REMARK    2  A    between atoms: C_2  and  C_3
REMARK    3  A    between atoms: C_3  and  C_5
REMARK    4  A    between atoms: C_3  and  O_30
REMARK    5  A    between atoms: C_5  and  N_6
REMARK    6  A    between atoms: N_6  and  C_7
REMARK    7  A    between atoms: N_6  and  C_26
REMARK    8  A    between atoms: C_7  and  C_8
REMARK    9  A    between atoms: C_14  and  C_19
REMARK   10  A    between atoms: C_26  and  C_27
REMARK   11  A    between atoms: C_27  and  C_28
REMARK   12  A    between atoms: C_27  and  C_29
REMARK                            x       y       z     vdW  Elec       q    Type
REMARK                         _______ _______ _______ _____ _____    ______ ____
ROOT
ATOM      1  C   UNL     1      -4.667  -4.099  -0.762  0.00  0.00    +0.094 A 
ATOM      2  N   UNL     1      -5.106  -5.361  -1.003  0.00  0.00    -0.312 N 
ATOM      3  H   UNL     1      -4.463  -6.084  -1.067  0.00  0.00    +0.170 HD
ATOM      4  C   UNL     1      -6.416  -5.628  -1.156  0.00  0.00    +0.260 A 
ATOM      5  O   UNL     1      -6.795  -6.767  -1.372  0.00  0.00    -0.267 OA
ATOM      6  C   UNL     1      -7.359  -4.555  -1.060  0.00  0.00    +0.080 A 
ATOM      7  C   UNL     1      -8.811  -4.589  -1.185  0.00  0.00    +0.005 A 
ATOM      8  C   UNL     1      -9.503  -3.431  -1.054  0.00  0.00    +0.056 A 
ATOM      9  S   UNL     1      -8.230  -2.221  -0.752  0.00  0.00    -0.076 S 
ATOM     10  C   UNL     1      -6.812  -3.286  -0.808  0.00  0.00    +0.116 A 
ATOM     11  N   UNL     1      -5.503  -3.100  -0.664  0.00  0.00    -0.229 NA
ENDROOT
BRANCH   7  12
ATOM     12  C   UNL     1      -9.517  -5.865  -1.452  0.00  0.00    +0.002 A 
ATOM     13  C   UNL     1     -10.203  -6.048  -2.651  0.00  0.00    +0.010 A 
ATOM     14  C   UNL     1     -10.857  -7.238  -2.894  0.00  0.00    +0.001 A 
ATOM     15  C   UNL     1     -10.835  -8.249  -1.950  0.00  0.00    +0.001 A 
ATOM     16  C   UNL     1     -10.157  -8.074  -0.757  0.00  0.00    +0.020 A 
ATOM     17  C   UNL     1      -9.493  -6.889  -0.505  0.00  0.00    +0.049 A 
ATOM     18 CL   UNL     1      -8.636  -6.673   0.990  0.00  0.00    -0.083 Cl
ENDBRANCH   7  12
BRANCH   1  19
ATOM     19  C   UNL     1      -3.190  -3.848  -0.598  0.00  0.00    -0.003 C 
BRANCH  19  20
ATOM     20  N   UNL     1      -2.962  -2.420  -0.341  0.00  0.00    +0.386 N 
ATOM     21  H   UNL     1      -3.384  -1.873  -1.077  0.00  0.00    -0.081 HD
BRANCH  20  22
ATOM     22  C   UNL     1      -1.518  -2.154  -0.299  0.00  0.00    -0.047 C 
BRANCH  22  23
ATOM     23  C   UNL     1      -0.914  -2.402  -1.683  0.00  0.00    +0.098 C 
BRANCH  23  25
ATOM     24  C   UNL     1       1.215  -2.500  -2.987  0.00  0.00    +0.006 C 
ATOM     25  C   UNL     1       0.591  -2.132  -1.639  0.00  0.00    +0.026 C 
ENDBRANCH  23  25
BRANCH  23  26
ATOM     26  O   UNL     1      -1.527  -1.528  -2.634  0.00  0.00    -0.394 OA
ATOM     27  H   UNL     1      -1.348  -0.591  -2.479  0.00  0.00    +0.210 HD
ENDBRANCH  23  26
ENDBRANCH  22  23
ENDBRANCH  20  22
BRANCH  20  28
ATOM     28  C   UNL     1      -3.565  -2.052   0.948  0.00  0.00    -0.075 C 
BRANCH  28  29
ATOM     29  C   UNL     1      -3.463  -0.538   1.145  0.00  0.00    -0.034 C 
ATOM     30  C   UNL     1      -4.280   0.172   0.064  0.00  0.00    +0.005 C 
ATOM     31  C   UNL     1      -4.011  -0.166   2.524  0.00  0.00    +0.005 C 
ENDBRANCH  28  29
ENDBRANCH  20  28
ENDBRANCH  19  20
ENDBRANCH   1  19
TORSDOF 9
