REMARK  Name = ZINC43736808
REMARK  10 active torsions:
REMARK  status: ('A' for Active; 'I' for Inactive)
REMARK    1  A    between atoms: C_1  and  C_2
REMARK    2  A    between atoms: C_2  and  O_3
REMARK    3  A    between atoms: O_3  and  C_4
REMARK    4  A    between atoms: C_4  and  C_6
REMARK    5  A    between atoms: C_6  and  C_35
REMARK    6  A    between atoms: C_13  and  C_34
REMARK    7  A    between atoms: C_23  and  C_33
REMARK    8  A    between atoms: C_26  and  O_29
REMARK    9  A    between atoms: O_29  and  C_30
REMARK   10  A    between atoms: C_30  and  C_32
REMARK                            x       y       z     vdW  Elec       q    Type
REMARK                         _______ _______ _______ _____ _____    ______ ____
ROOT
ATOM      1  C   UNL     1       1.436  -3.113  -3.258  0.00  0.00    +0.271 C 
ATOM      2  C   UNL     1       2.293  -4.181  -2.589  0.00  0.00    +0.125 C 
ATOM      3  O   UNL     1       2.856  -2.995  -3.134  0.00  0.00    -0.341 OA
ATOM      4  C   UNL     1       2.518  -5.550  -3.264  0.00  0.00    +0.040 C 
ATOM      5  C   UNL     1       2.666  -6.581  -2.110  0.00  0.00    +0.007 C 
ATOM      6  C   UNL     1       3.128  -5.715  -0.932  0.00  0.00    +0.002 C 
ATOM      7  C   UNL     1       2.237  -4.453  -1.096  0.00  0.00    +0.004 C 
ATOM      8  C   UNL     1       2.805  -3.387  -0.180  0.00  0.00    +0.010 C 
ATOM      9  C   UNL     1       2.631  -3.889   1.262  0.00  0.00    +0.005 C 
ATOM     10  C   UNL     1       3.311  -5.238   1.479  0.00  0.00    +0.003 C 
ATOM     11  C   UNL     1       2.871  -6.289   0.449  0.00  0.00    +0.000 C 
ATOM     12  C   UNL     1       3.716  -7.552   0.645  0.00  0.00    +0.031 C 
ATOM     13  C   UNL     1       3.580  -8.020   2.065  0.00  0.00    -0.027 C 
ATOM     14  C   UNL     1       3.297  -7.220   3.050  0.00  0.00    -0.064 C 
ATOM     15  C   UNL     1       3.035  -5.730   2.890  0.00  0.00    -0.008 C 
ATOM     16  C   UNL     1       3.910  -4.971   3.892  0.00  0.00    +0.015 C 
ATOM     17  C   UNL     1       3.630  -5.489   5.304  0.00  0.00    +0.046 C 
ATOM     18  C   UNL     1       4.016  -6.966   5.398  0.00  0.00    +0.180 C 
ATOM     19  C   UNL     1       3.192  -7.807   4.447  0.00  0.00    +0.075 C 
ATOM     20  C   UNL     1       1.575  -5.422   3.227  0.00  0.00    +0.016 C 
ATOM     21  C   UNL     1       0.800  -4.778  -0.683  0.00  0.00    +0.014 C 
ENDROOT
BRANCH   1  22
ATOM     22  C   UNL     1       0.873  -3.416  -4.623  0.00  0.00    +0.257 C 
ATOM     23  O   UNL     1       0.674  -4.565  -4.956  0.00  0.00    -0.272 OA
ATOM     24  N   UNL     1       0.590  -2.410  -5.474  0.00  0.00    -0.326 N 
ATOM     25  H   UNL     1       0.748  -1.490  -5.208  0.00  0.00    +0.145 HD
ATOM     26  H   UNL     1       0.227  -2.605  -6.352  0.00  0.00    +0.145 HD
ENDBRANCH   1  22
BRANCH   1  27
ATOM     27  C   UNL     1       0.578  -2.244  -2.375  0.00  0.00    +0.352 C 
ATOM     28  O   UNL     1       1.087  -1.383  -1.697  0.00  0.00    -0.247 OA
BRANCH  27  29
ATOM     29  O   UNL     1      -0.751  -2.427  -2.341  0.00  0.00    -0.462 OA
BRANCH  29  31
ATOM     30  C   UNL     1      -2.988  -1.923  -1.576  0.00  0.00    +0.048 C 
ATOM     31  C   UNL     1      -1.503  -1.568  -1.481  0.00  0.00    +0.229 C 
ENDBRANCH  29  31
ENDBRANCH  27  29
ENDBRANCH   1  27
BRANCH  18  32
ATOM     32  O   UNL     1       5.385  -7.126   5.023  0.00  0.00    -0.461 OA
BRANCH  32  33
ATOM     33  C   UNL     1       6.060  -8.135   5.596  0.00  0.00    +0.304 C 
ATOM     34  O   UNL     1       5.507  -8.858   6.390  0.00  0.00    -0.251 OA
ATOM     35  C   UNL     1       7.509  -8.365   5.249  0.00  0.00    +0.136 C 
ENDBRANCH  32  33
ENDBRANCH  18  32
TORSDOF 6
