REMARK  Name = ZINC27496799
REMARK  13 active torsions:
REMARK  status: ('A' for Active; 'I' for Inactive)
REMARK    1  A    between atoms: C_1  and  C_2
REMARK    2  A    between atoms: C_5  and  S_8
REMARK    3  A    between atoms: S_8  and  N_11
REMARK    4  A    between atoms: N_11  and  C_12
REMARK    5  A    between atoms: C_12  and  C_14
REMARK    6  A    between atoms: C_12  and  C_18
REMARK    7  A    between atoms: C_14  and  C_15
REMARK    8  A    between atoms: C_15  and  C_16
REMARK    9  A    between atoms: C_15  and  C_17
REMARK   10  A    between atoms: N_20  and  C_21
REMARK   11  A    between atoms: C_21  and  C_22
REMARK   12  A    between atoms: C_22  and  C_24
REMARK   13  A    between atoms: C_22  and  N_29
REMARK                            x       y       z     vdW  Elec       q    Type
REMARK                         _______ _______ _______ _____ _____    ______ ____
ROOT
ATOM      1  C   UNL     1       2.945  -5.240   1.171  0.00  0.00    +0.232 C 
ATOM      2  O   UNL     1       2.920  -6.179   0.403  0.00  0.00    -0.274 OA
ATOM      3  N   UNL     1       3.900  -5.172   2.120  0.00  0.00    -0.315 N 
ATOM      4  H   UNL     1       3.920  -4.421   2.734  0.00  0.00    +0.149 HD
ENDROOT
BRANCH   1   5
ATOM      5  C   UNL     1       1.910  -4.151   1.064  0.00  0.00    +0.162 C 
BRANCH   5   6
ATOM      6  N   UNL     1       0.993  -4.455  -0.037  0.00  0.00    -0.178 NA
ATOM      7  H   UNL     1       1.217  -4.189  -0.943  0.00  0.00    +0.149 HD
BRANCH   6   8
ATOM      8  S   UNL     1      -0.427  -5.252   0.265  0.00  0.00    +0.059 S 
ATOM      9  O   UNL     1      -0.097  -6.383   1.059  0.00  0.00    -0.153 OA
ATOM     10  O   UNL     1      -1.101  -5.367  -0.981  0.00  0.00    -0.153 OA
BRANCH   8  15
ATOM     11  C   UNL     1      -3.804  -1.642   3.725  0.00  0.00    +0.044 C 
ATOM     12  C   UNL     1      -2.960  -2.544   2.861  0.00  0.00    -0.050 A 
ATOM     13  C   UNL     1      -2.968  -2.389   1.487  0.00  0.00    +0.005 A 
ATOM     14  C   UNL     1      -2.194  -3.216   0.694  0.00  0.00    +0.029 A 
ATOM     15  C   UNL     1      -1.413  -4.197   1.275  0.00  0.00    +0.105 A 
ATOM     16  C   UNL     1      -1.404  -4.351   2.649  0.00  0.00    +0.029 A 
ATOM     17  C   UNL     1      -2.174  -3.521   3.442  0.00  0.00    +0.005 A 
ENDBRANCH   8  15
ENDBRANCH   6   8
ENDBRANCH   5   6
BRANCH   5  18
ATOM     18  C   UNL     1       2.603  -2.813   0.796  0.00  0.00    +0.032 C 
BRANCH  18  19
ATOM     19  C   UNL     1       1.564  -1.690   0.803  0.00  0.00    -0.015 C 
ATOM     20  C   UNL     1       0.977  -1.546   2.208  0.00  0.00    +0.007 C 
ATOM     21  C   UNL     1       2.231  -0.376   0.392  0.00  0.00    +0.007 C 
ENDBRANCH  18  19
ENDBRANCH   5  18
ENDBRANCH   1   5
BRANCH   3  22
ATOM     22  C   UNL     1       4.907  -6.231   2.224  0.00  0.00    +0.096 C 
BRANCH  22  23
ATOM     23  C   UNL     1       5.792  -5.975   3.445  0.00  0.00    +0.016 C 
BRANCH  23  24
ATOM     24  N   UNL     1       6.359  -4.622   3.364  0.00  0.00    +0.387 N 
ATOM     25  C   UNL     1       7.094  -4.476   2.101  0.00  0.00    -0.078 C 
ATOM     26  C   UNL     1       7.617  -3.044   1.974  0.00  0.00    -0.019 C 
ATOM     27  C   UNL     1       8.553  -2.742   3.149  0.00  0.00    -0.004 C 
ATOM     28  C   UNL     1       7.797  -2.970   4.461  0.00  0.00    -0.019 C 
ATOM     29  C   UNL     1       7.267  -4.404   4.496  0.00  0.00    -0.078 C 
ATOM     30  H   UNL     1       5.613  -3.943   3.397  0.00  0.00    -0.081 HD
ENDBRANCH  23  24
BRANCH  23  31
ATOM     31  C   UNL     1       4.967  -6.099   4.700  0.00  0.00    +0.093 A 
ATOM     32  C   UNL     1       4.926  -7.170   5.512  0.00  0.00    +0.043 A 
ATOM     33  C   UNL     1       4.029  -6.857   6.559  0.00  0.00    +0.041 A 
ATOM     34  C   UNL     1       3.575  -5.613   6.324  0.00  0.00    +0.195 A 
ATOM     35  O   UNL     1       4.150  -5.157   5.199  0.00  0.00    -0.469 OA
ENDBRANCH  23  31
ENDBRANCH  22  23
ENDBRANCH   3  22
TORSDOF 10
