REMARK  Name = ZINC39695062
REMARK  9 active torsions:
REMARK  status: ('A' for Active; 'I' for Inactive)
REMARK    1  A    between atoms: C_1  and  C_2
REMARK    2  A    between atoms: C_3  and  C_9
REMARK    3  A    between atoms: C_9  and  N_10
REMARK    4  A    between atoms: C_11  and  C_13
REMARK    5  A    between atoms: C_24  and  C_26
REMARK    6  A    between atoms: C_30  and  O_33
REMARK    7  A    between atoms: C_31  and  C_32
REMARK    8  A    between atoms: O_33  and  C_34
REMARK    9  A    between atoms: C_34  and  C_36
REMARK                            x       y       z     vdW  Elec       q    Type
REMARK                         _______ _______ _______ _____ _____    ______ ____
ROOT
ATOM      1  C   UNL     1       3.334   1.789  -4.673  0.00  0.00    +0.100 C 
ATOM      2  C   UNL     1       3.637   2.841  -3.583  0.00  0.00    +0.121 C 
ATOM      3  N   UNL     1       4.464   3.862  -4.267  0.00  0.00    -0.296 N 
ATOM      4  C   UNL     1       3.853   3.990  -5.612  0.00  0.00    +0.115 C 
ATOM      5  C   UNL     1       3.475   2.548  -6.004  0.00  0.00    -0.004 C 
ATOM      6  C   UNL     1       2.152   2.536  -6.762  0.00  0.00    -0.010 C 
ATOM      7  C   UNL     1       2.333   3.246  -8.107  0.00  0.00    -0.082 C 
ATOM      8  N   UNL     1       3.372   2.562  -8.886  0.00  0.00    +0.379 N 
ATOM      9  C   UNL     1       4.662   2.659  -8.193  0.00  0.00    -0.082 C 
ATOM     10  C   UNL     1       4.580   1.925  -6.852  0.00  0.00    -0.010 C 
ATOM     11  C   UNL     1       5.530   4.526  -3.778  0.00  0.00    +0.247 C 
ATOM     12  O   UNL     1       6.050   5.408  -4.433  0.00  0.00    -0.270 OA
ATOM     13  H   UNL     1       3.123   1.591  -8.998  0.00  0.00    -0.086 HD
ATOM     14  H   UNL     1       3.447   2.994  -9.796  0.00  0.00    -0.086 HD
ENDROOT
BRANCH  11  15
ATOM     15  C   UNL     1       6.068   4.179  -2.445  0.00  0.00    +0.043 A 
ATOM     16  C   UNL     1       5.203   3.802  -1.417  0.00  0.00    +0.013 A 
ATOM     17  C   UNL     1       5.708   3.480  -0.174  0.00  0.00    +0.004 A 
ATOM     18  C   UNL     1       7.071   3.529   0.057  0.00  0.00    +0.047 A 
ATOM     19  C   UNL     1       7.939   3.902  -0.960  0.00  0.00    +0.135 A 
ATOM     20  C   UNL     1       7.443   4.223  -2.212  0.00  0.00    +0.004 A 
ATOM     21  C   UNL     1       8.384   4.624  -3.318  0.00  0.00    +0.048 C 
BRANCH  19  22
ATOM     22  O   UNL     1       9.277   3.949  -0.727  0.00  0.00    -0.426 OA
BRANCH  22  23
ATOM     23  C   UNL     1       9.812   5.122  -0.354  0.00  0.00    +0.309 C 
ATOM     24  O   UNL     1       9.096   6.073  -0.143  0.00  0.00    -0.251 OA
ATOM     25  C   UNL     1      11.305   5.255  -0.197  0.00  0.00    +0.136 C 
ENDBRANCH  22  23
ENDBRANCH  19  22
ENDBRANCH  11  15
BRANCH   1  27
ATOM     26  N   UNL     1       1.625   0.022  -4.952  0.00  0.00    -0.311 N 
ATOM     27  C   UNL     1       1.931   1.261  -4.517  0.00  0.00    +0.218 C 
ATOM     28  O   UNL     1       1.077   1.950  -4.001  0.00  0.00    -0.275 OA
ATOM     29  H   UNL     1       2.308  -0.530  -5.364  0.00  0.00    +0.149 HD
BRANCH  26  30
ATOM     30  C   UNL     1       0.262  -0.492  -4.800  0.00  0.00    +0.139 C 
BRANCH  30  33
ATOM     31  C   UNL     1       1.203  -2.731  -3.235  0.00  0.00    +0.045 C 
ATOM     32  C   UNL     1       0.635  -2.959  -4.612  0.00  0.00    -0.027 A 
ATOM     33  C   UNL     1       0.186  -1.888  -5.361  0.00  0.00    -0.026 A 
ATOM     34  C   UNL     1      -0.335  -2.097  -6.625  0.00  0.00    +0.005 A 
ATOM     35  C   UNL     1      -0.405  -3.378  -7.140  0.00  0.00    +0.002 A 
ATOM     36  C   UNL     1       0.044  -4.450  -6.393  0.00  0.00    +0.020 A 
ATOM     37  C   UNL     1       0.570  -4.241  -5.130  0.00  0.00    +0.044 A 
ATOM     38 CL   UNL     1       1.141  -5.586  -4.193  0.00  0.00    -0.083 Cl
ENDBRANCH  30  33
ENDBRANCH  26  30
ENDBRANCH   1  27
TORSDOF 6
