REMARK  Name = ZINC27833482
REMARK  7 active torsions:
REMARK  status: ('A' for Active; 'I' for Inactive)
REMARK    1  A    between atoms: C_2  and  C_3
REMARK    2  A    between atoms: C_3  and  C_4
REMARK    3  A    between atoms: C_9  and  O_29
REMARK    4  A    between atoms: C_10  and  C_16
REMARK    5  A    between atoms: N_18  and  C_19
REMARK    6  A    between atoms: C_24  and  S_25
REMARK    7  A    between atoms: S_25  and  N_28
REMARK                            x       y       z     vdW  Elec       q    Type
REMARK                         _______ _______ _______ _____ _____    ______ ____
ROOT
ATOM      1  C   UNL     1       1.332  -1.673   1.148  0.00  0.00    -0.022 A 
ATOM      2  C   UNL     1       1.920  -1.297   2.319  0.00  0.00    +0.006 A 
ATOM      3  C   UNL     1       1.998  -2.158   3.409  0.00  0.00    +0.001 A 
ATOM      4  C   UNL     1       1.487  -3.418   3.353  0.00  0.00    +0.013 A 
ATOM      5  C   UNL     1       0.866  -3.865   2.169  0.00  0.00    +0.035 A 
ATOM      6  C   UNL     1       0.334  -5.153   2.084  0.00  0.00    +0.124 C 
ATOM      7  C   UNL     1      -0.315  -5.546   0.771  0.00  0.00    +0.226 C 
ATOM      8  C   UNL     1      -0.330  -4.513  -0.332  0.00  0.00    +0.237 C 
ATOM      9  O   UNL     1      -0.839  -4.777  -1.406  0.00  0.00    -0.274 OA
ATOM     10  N   UNL     1       0.206  -3.326  -0.132  0.00  0.00    -0.284 N 
ATOM     11  C   UNL     1       0.778  -2.958   1.021  0.00  0.00    +0.047 A 
ATOM     12  H   UNL     1       0.181  -2.683  -0.858  0.00  0.00    +0.155 HD
ENDROOT
BRANCH   7  13
ATOM     13  C   UNL     1      -1.742  -5.936   1.058  0.00  0.00    +0.237 C 
ATOM     14  O   UNL     1      -2.165  -5.895   2.194  0.00  0.00    -0.274 OA
ATOM     15  N   UNL     1      -2.548  -6.331   0.053  0.00  0.00    -0.283 N 
ATOM     16  H   UNL     1      -2.231  -6.303  -0.863  0.00  0.00    +0.155 HD
BRANCH  15  17
ATOM     17  C   UNL     1      -3.844  -6.781   0.331  0.00  0.00    +0.060 A 
ATOM     18  C   UNL     1      -4.570  -6.214   1.370  0.00  0.00    +0.025 A 
ATOM     19  C   UNL     1      -5.848  -6.660   1.642  0.00  0.00    +0.002 A 
ATOM     20  C   UNL     1      -6.405  -7.671   0.880  0.00  0.00    +0.002 A 
ATOM     21  C   UNL     1      -5.685  -8.238  -0.155  0.00  0.00    +0.030 A 
ATOM     22  C   UNL     1      -4.408  -7.792  -0.436  0.00  0.00    +0.126 A 
BRANCH  22  23
ATOM     23  S   UNL     1      -3.495  -8.509  -1.761  0.00  0.00    +0.058 S 
ATOM     24  O   UNL     1      -2.212  -8.833  -1.241  0.00  0.00    -0.153 OA
ATOM     25  O   UNL     1      -4.342  -9.480  -2.360  0.00  0.00    -0.153 OA
BRANCH  23  26
ATOM     26  N   UNL     1      -3.260  -7.323  -2.892  0.00  0.00    -0.203 NA
ATOM     27  H   UNL     1      -2.470  -7.338  -3.454  0.00  0.00    +0.144 HD
ATOM     28  H   UNL     1      -3.914  -6.613  -2.994  0.00  0.00    +0.144 HD
ENDBRANCH  23  26
ENDBRANCH  22  23
ENDBRANCH  15  17
ENDBRANCH   7  13
BRANCH   6  29
ATOM     29  O   UNL     1       0.394  -6.003   3.115  0.00  0.00    -0.509 OA
ATOM     30  H   UNL     1       0.831  -5.641   3.898  0.00  0.00    +0.292 HD
ENDBRANCH   6  29
BRANCH   1  31
ATOM     31  C   UNL     1       1.271  -0.708  -0.008  0.00  0.00    +0.063 C 
BRANCH  31  33
ATOM     32  C   UNL     1      -0.079   1.327   0.022  0.00  0.00    +0.004 C 
ATOM     33  C   UNL     1      -0.050   0.017   0.012  0.00  0.00    -0.030 C 
ENDBRANCH  31  33
ENDBRANCH   1  31
TORSDOF 7
