REMARK  Name = ZINC39673939
REMARK  10 active torsions:
REMARK  status: ('A' for Active; 'I' for Inactive)
REMARK    1  A    between atoms: C_1  and  C_2
REMARK    2  A    between atoms: C_2  and  C_3
REMARK    3  A    between atoms: C_3  and  C_4
REMARK    4  A    between atoms: C_4  and  C_6
REMARK    5  A    between atoms: C_4  and  C_7
REMARK    6  A    between atoms: C_11  and  C_20
REMARK    7  A    between atoms: N_22  and  C_23
REMARK    8  A    between atoms: C_23  and  C_24
REMARK    9  A    between atoms: C_24  and  C_25
REMARK   10  A    between atoms: C_33  and  C_35
REMARK                            x       y       z     vdW  Elec       q    Type
REMARK                         _______ _______ _______ _____ _____    ______ ____
ROOT
ATOM      1  C   UNL     1      -2.982  -2.607   0.120  0.00  0.00    +0.218 C 
ATOM      2  O   UNL     1      -3.923  -1.857   0.269  0.00  0.00    -0.275 OA
ATOM      3  N   UNL     1      -3.170  -3.941   0.168  0.00  0.00    -0.300 N 
ATOM      4  C   UNL     1      -2.152  -5.007   0.015  0.00  0.00    +0.121 C 
ATOM      5  C   UNL     1      -2.552  -6.079   1.054  0.00  0.00    +0.100 C 
ATOM      6  C   UNL     1      -4.055  -5.856   1.290  0.00  0.00    -0.004 C 
ATOM      7  C   UNL     1      -4.440  -4.673   0.391  0.00  0.00    +0.115 C 
ATOM      8  C   UNL     1      -4.314  -5.504   2.752  0.00  0.00    -0.010 C 
ATOM      9  C   UNL     1      -5.820  -5.343   2.975  0.00  0.00    -0.082 C 
ATOM     10  N   UNL     1      -6.505  -6.592   2.622  0.00  0.00    +0.379 N 
ATOM     11  C   UNL     1      -6.328  -6.874   1.192  0.00  0.00    -0.082 C 
ATOM     12  C   UNL     1      -4.843  -7.100   0.895  0.00  0.00    -0.010 C 
ATOM     13  H   UNL     1      -6.119  -7.351   3.163  0.00  0.00    -0.086 HD
ATOM     14  H   UNL     1      -7.489  -6.504   2.827  0.00  0.00    -0.086 HD
ENDROOT
BRANCH   5  15
ATOM     15  C   UNL     1      -2.305  -7.460   0.504  0.00  0.00    +0.218 C 
ATOM     16  O   UNL     1      -2.396  -7.664  -0.688  0.00  0.00    -0.275 OA
ATOM     17  N   UNL     1      -1.982  -8.469   1.338  0.00  0.00    -0.315 N 
ATOM     18  H   UNL     1      -1.908  -8.306   2.291  0.00  0.00    +0.149 HD
BRANCH  17  19
ATOM     19  C   UNL     1      -1.741  -9.812   0.803  0.00  0.00    +0.109 C 
BRANCH  19  20
ATOM     20  C   UNL     1      -1.395 -10.763   1.951  0.00  0.00    +0.056 C 
BRANCH  20  21
ATOM     21  C   UNL     1      -1.147 -12.144   1.401  0.00  0.00    -0.018 A 
ATOM     22  C   UNL     1       0.137 -12.686   0.952  0.00  0.00    +0.003 A 
ATOM     23  C   UNL     1       1.435 -12.176   0.881  0.00  0.00    +0.010 A 
ATOM     24  C   UNL     1       2.446 -12.957   0.399  0.00  0.00    +0.001 A 
ATOM     25  C   UNL     1       2.194 -14.256  -0.022  0.00  0.00    +0.002 A 
ATOM     26  C   UNL     1       0.921 -14.780   0.038  0.00  0.00    +0.026 A 
ATOM     27  C   UNL     1      -0.123 -14.002   0.526  0.00  0.00    +0.047 A 
ATOM     28  N   UNL     1      -1.469 -14.229   0.709  0.00  0.00    -0.358 N 
ATOM     29  C   UNL     1      -2.061 -13.114   1.236  0.00  0.00    +0.017 A 
ATOM     30  H   UNL     1      -1.928 -15.057   0.498  0.00  0.00    +0.166 HD
ATOM     31  C   UNL     1      -3.524 -12.990   1.577  0.00  0.00    +0.063 C 
ENDBRANCH  20  21
ENDBRANCH  19  20
ENDBRANCH  17  19
ENDBRANCH   5  15
BRANCH   1  32
ATOM     32  C   UNL     1      -1.603  -2.048  -0.120  0.00  0.00    +0.072 C 
ATOM     33  C   UNL     1      -1.079  -2.544  -1.469  0.00  0.00    +0.017 C 
BRANCH  32  34
ATOM     34  C   UNL     1      -1.667  -0.520  -0.128  0.00  0.00    +0.012 C 
BRANCH  34  36
ATOM     35  C   UNL     1      -0.315   1.578  -0.253  0.00  0.00    +0.004 C 
ATOM     36  C   UNL     1      -0.251   0.049  -0.245  0.00  0.00    -0.003 C 
ENDBRANCH  34  36
ENDBRANCH  32  34
ENDBRANCH   1  32
TORSDOF 7
