REMARK  Name = ZINC12880066
REMARK  6 active torsions:
REMARK  status: ('A' for Active; 'I' for Inactive)
REMARK    1  A    between atoms: C_1  and  C_2
REMARK    2  A    between atoms: C_16  and  C_18
REMARK    3  A    between atoms: C_18  and  C_19
REMARK    4  A    between atoms: C_19  and  C_20
REMARK    5  A    between atoms: N_25  and  C_28
REMARK    6  A    between atoms: C_31  and  C_34
REMARK                            x       y       z     vdW  Elec       q    Type
REMARK                         _______ _______ _______ _____ _____    ______ ____
ROOT
ATOM      1  C   UNL     1      -3.928   6.633   3.675  0.00  0.00    +0.047 C 
ATOM      2  C   UNL     1      -3.704   5.176   3.366  0.00  0.00    -0.011 A 
ATOM      3  C   UNL     1      -4.767   4.294   3.396  0.00  0.00    +0.046 A 
ATOM      4  C   UNL     1      -4.570   2.954   3.112  0.00  0.00    +0.020 A 
ATOM      5  C   UNL     1      -3.303   2.495   2.800  0.00  0.00    +0.006 A 
ATOM      6  C   UNL     1      -2.241   3.370   2.771  0.00  0.00    -0.027 A 
ATOM      7  C   UNL     1      -2.426   4.721   3.051  0.00  0.00    +0.040 A 
ATOM      8  N   UNL     1      -1.212   5.405   2.957  0.00  0.00    -0.286 N 
ATOM      9  C   UNL     1      -0.193   4.588   2.624  0.00  0.00    +0.211 C 
ATOM     10  O   UNL     1       0.967   4.904   2.470  0.00  0.00    -0.277 OA
ATOM     11  C   UNL     1      -0.775   3.209   2.480  0.00  0.00    +0.050 C 
ATOM     12  C   UNL     1      -0.116   2.219   3.447  0.00  0.00    +0.088 C 
ATOM     13  C   UNL     1      -0.069   0.878   2.662  0.00  0.00    +0.073 C 
ATOM     14  C   UNL     1      -0.714   1.196   1.296  0.00  0.00    -0.057 C 
ATOM     15  C   UNL     1       1.408   0.621   2.468  0.00  0.00    +0.228 C 
ATOM     16  O   UNL     1       1.884  -0.334   1.893  0.00  0.00    -0.275 OA
ATOM     17  N   UNL     1       2.101   1.634   3.039  0.00  0.00    -0.210 N 
ATOM     18  C   UNL     1       1.344   2.573   3.619  0.00  0.00    +0.229 C 
ATOM     19  O   UNL     1       1.764   3.555   4.191  0.00  0.00    -0.275 OA
ATOM     20 CL   UNL     1      -6.356   4.870   3.790  0.00  0.00    -0.083 Cl
ATOM     21  H   UNL     1      -1.113   6.357   3.112  0.00  0.00    +0.155 HD
ATOM     22  N   UNL     1      -0.557   2.646   1.159  0.00  0.00    +0.394 N 
ATOM     23  H   UNL     1       0.389   2.872   0.829  0.00  0.00    -0.083 HD
ATOM     24  H   UNL     1      -1.248   3.017   0.496  0.00  0.00    -0.083 HD
ENDROOT
BRANCH  17  25
ATOM     25  C   UNL     1       3.498   1.688   3.029  0.00  0.00    +0.044 A 
ATOM     26  C   UNL     1       4.176   1.876   1.829  0.00  0.00    +0.025 A 
ATOM     27  C   UNL     1       5.551   1.935   1.816  0.00  0.00    +0.015 A 
ATOM     28  C   UNL     1       6.266   1.796   3.008  0.00  0.00    +0.037 A 
ATOM     29  C   UNL     1       5.582   1.602   4.211  0.00  0.00    +0.015 A 
ATOM     30  C   UNL     1       4.206   1.549   4.217  0.00  0.00    +0.025 A 
BRANCH  28  31
ATOM     31  C   UNL     1       7.742   1.853   2.997  0.00  0.00    +0.242 C 
ATOM     32  O   UNL     1       8.363   1.732   4.035  0.00  0.00    -0.270 OA
ATOM     33  N   UNL     1       8.400   2.041   1.836  0.00  0.00    -0.325 N 
ATOM     34  H   UNL     1       7.905   2.137   1.008  0.00  0.00    +0.145 HD
ATOM     35  H   UNL     1       9.370   2.078   1.829  0.00  0.00    +0.145 HD
ENDBRANCH  28  31
ENDBRANCH  17  25
BRANCH  14  36
ATOM     36  C   UNL     1       0.013   0.448   0.177  0.00  0.00    -0.006 C 
BRANCH  36  37
ATOM     37  C   UNL     1      -0.716   0.678  -1.148  0.00  0.00    +0.094 C 
BRANCH  37  38
ATOM     38  C   UNL     1      -0.000  -0.059  -2.250  0.00  0.00    +0.210 C 
ATOM     39  O   UNL     1       0.996  -0.705  -2.001  0.00  0.00    -0.276 OA
ATOM     40  N   UNL     1      -0.466  -0.001  -3.514  0.00  0.00    -0.329 N 
ATOM     41  H   UNL     1      -1.263   0.515  -3.713  0.00  0.00    +0.145 HD
ATOM     42  H   UNL     1      -0.005  -0.475  -4.223  0.00  0.00    +0.145 HD
ENDBRANCH  37  38
ENDBRANCH  36  37
ENDBRANCH  14  36
TORSDOF 5
