REMARK  Name = ZINC38776559
REMARK  6 active torsions:
REMARK  status: ('A' for Active; 'I' for Inactive)
REMARK    1  A    between atoms: C_1  and  C_2
REMARK    2  A    between atoms: C_2  and  C_4
REMARK    3  A    between atoms: C_2  and  N_21
REMARK    4  A    between atoms: C_22  and  C_24
REMARK    5  A    between atoms: C_24  and  O_25
REMARK    6  A    between atoms: O_25  and  C_26
REMARK                            x       y       z     vdW  Elec       q    Type
REMARK                         _______ _______ _______ _____ _____    ______ ____
ROOT
ATOM      1  C   UNL     1      -1.420  -0.486   0.130  0.00  0.00    +0.236 C 
ATOM      2  O   UNL     1      -1.880  -1.245  -0.697  0.00  0.00    -0.274 OA
ATOM      3  N   UNL     1      -2.181  -0.075   1.163  0.00  0.00    -0.300 N 
ATOM      4  C   UNL     1      -1.679   0.932   2.108  0.00  0.00    +0.106 C 
ATOM      5  C   UNL     1      -2.694   2.076   2.195  0.00  0.00    +0.009 C 
ATOM      6  C   UNL     1      -4.068   1.508   2.550  0.00  0.00    -0.037 C 
ATOM      7  C   UNL     1      -4.524   0.536   1.462  0.00  0.00    +0.009 C 
ATOM      8  C   UNL     1      -3.531  -0.619   1.363  0.00  0.00    +0.106 C 
ATOM      9  C   UNL     1      -5.078   2.649   2.679  0.00  0.00    +0.140 C 
ATOM     10  C   UNL     1      -4.610   3.482   3.869  0.00  0.00    +0.042 C 
ATOM     11  N   UNL     1      -4.465   4.672   3.432  0.00  0.00    -0.243 NA
ATOM     12  C   UNL     1      -4.679   4.745   2.095  0.00  0.00    +0.216 C 
ATOM     13  N   UNL     1      -5.023   3.592   1.561  0.00  0.00    -0.264 NA
ATOM     14  C   UNL     1      -4.295   2.846   5.199  0.00  0.00    +0.034 C 
ATOM     15  C   UNL     1      -3.393   1.637   4.887  0.00  0.00    -0.076 C 
ATOM     16  N   UNL     1      -3.994   0.807   3.840  0.00  0.00    +0.385 N 
ATOM     17  H   UNL     1      -4.925   0.545   4.125  0.00  0.00    -0.085 HD
ATOM     18  H   UNL     1      -3.440  -0.029   3.727  0.00  0.00    -0.085 HD
ENDROOT
BRANCH   1  20
ATOM     19  C   UNL     1       0.023   1.329  -0.748  0.00  0.00    +0.038 C 
ATOM     20  C   UNL     1       0.002  -0.004   0.002  0.00  0.00    +0.156 C 
BRANCH  20  21
ATOM     21  N   UNL     1       0.789  -0.994  -0.738  0.00  0.00    -0.301 N 
ATOM     22  C   UNL     1       2.123  -1.063  -0.562  0.00  0.00    +0.251 C 
ATOM     23  O   UNL     1       2.673  -0.306   0.210  0.00  0.00    -0.272 OA
ATOM     24  H   UNL     1       0.349  -1.599  -1.356  0.00  0.00    +0.150 HD
BRANCH  22  25
ATOM     25  C   UNL     1       2.932  -2.081  -1.324  0.00  0.00    +0.324 C 
BRANCH  25  26
ATOM     26  O   UNL     1       4.310  -1.957  -0.967  0.00  0.00    -0.483 OA
BRANCH  26  27
ATOM     27  C   UNL     1       5.182  -2.809  -1.570  0.00  0.00    +0.121 A 
ATOM     28  C   UNL     1       4.721  -3.740  -2.489  0.00  0.00    +0.047 A 
ATOM     29  C   UNL     1       5.608  -4.604  -3.100  0.00  0.00    +0.023 A 
ATOM     30  C   UNL     1       6.957  -4.542  -2.795  0.00  0.00    +0.041 A 
ATOM     31  C   UNL     1       7.419  -3.614  -1.879  0.00  0.00    +0.023 A 
ATOM     32  C   UNL     1       6.535  -2.744  -1.270  0.00  0.00    +0.047 A 
ATOM     33 CL   UNL     1       8.070  -5.630  -3.564  0.00  0.00    -0.084 Cl
ENDBRANCH  26  27
ENDBRANCH  25  26
ENDBRANCH  22  25
ENDBRANCH  20  21
ENDBRANCH   1  20
TORSDOF 5
