REMARK  Name = ZINC39752902
REMARK  10 active torsions:
REMARK  status: ('A' for Active; 'I' for Inactive)
REMARK    1  A    between atoms: C_1  and  C_2
REMARK    2  A    between atoms: C_5  and  C_12
REMARK    3  A    between atoms: C_6  and  C_7
REMARK    4  A    between atoms: C_6  and  C_8
REMARK    5  A    between atoms: N_14  and  C_15
REMARK    6  A    between atoms: C_24  and  N_25
REMARK    7  A    between atoms: C_26  and  C_28
REMARK    8  A    between atoms: C_31  and  C_38
REMARK    9  A    between atoms: C_32  and  C_33
REMARK   10  A    between atoms: C_32  and  C_34
REMARK                            x       y       z     vdW  Elec       q    Type
REMARK                         _______ _______ _______ _____ _____    ______ ____
ROOT
ATOM      1  C   UNL     1       1.385  -5.604   1.983  0.00  0.00    +0.041 A 
ATOM      2  C   UNL     1       2.077  -5.344   3.146  0.00  0.00    +0.024 A 
ATOM      3  C   UNL     1       2.633  -6.380   3.891  0.00  0.00    +0.002 A 
ATOM      4  C   UNL     1       2.508  -7.677   3.492  0.00  0.00    +0.010 A 
ATOM      5  C   UNL     1       1.810  -7.984   2.313  0.00  0.00    +0.005 A 
ATOM      6  C   UNL     1       1.236  -6.938   1.550  0.00  0.00    +0.005 A 
ATOM      7  C   UNL     1       0.534  -7.245   0.373  0.00  0.00    +0.010 A 
ATOM      8  C   UNL     1       0.405  -8.542  -0.023  0.00  0.00    +0.002 A 
ATOM      9  C   UNL     1       0.960  -9.579   0.722  0.00  0.00    +0.024 A 
ATOM     10  C   UNL     1       1.666  -9.318   1.876  0.00  0.00    +0.041 A 
ENDROOT
BRANCH   1  13
ATOM     11  C   UNL     1       1.467  -3.369   1.177  0.00  0.00    +0.224 C 
ATOM     12  O   UNL     1       2.473  -3.183   1.829  0.00  0.00    -0.275 OA
ATOM     13  N   UNL     1       0.832  -4.556   1.244  0.00  0.00    -0.284 N 
ATOM     14  H   UNL     1      -0.009  -4.683   0.777  0.00  0.00    +0.155 HD
BRANCH  11  19
ATOM     15  C   UNL     1       1.168   1.252  -1.081  0.00  0.00    +0.019 C 
ATOM     16  C   UNL     1       0.790  -0.190  -0.735  0.00  0.00    +0.032 C 
ATOM     17  C   UNL     1      -0.600  -0.385  -0.057  0.00  0.00    +0.016 C 
ATOM     18  C   UNL     1      -0.508  -1.766   0.631  0.00  0.00    +0.018 C 
ATOM     19  C   UNL     1       0.927  -2.274   0.294  0.00  0.00    +0.060 C 
ATOM     20  C   UNL     1       1.722  -0.920   0.296  0.00  0.00    -0.009 C 
ATOM     21  C   UNL     1       1.702  -0.244   1.668  0.00  0.00    +0.013 C 
ATOM     22  C   UNL     1       3.147  -1.088  -0.235  0.00  0.00    +0.013 C 
ATOM     23  C   UNL     1       0.883  -2.567  -1.238  0.00  0.00    +0.091 C 
ATOM     24  C   UNL     1       0.814  -1.187  -1.902  0.00  0.00    +0.141 C 
ATOM     25  O   UNL     1       0.769  -0.934  -3.082  0.00  0.00    -0.297 OA
ENDBRANCH  11  19
ENDBRANCH   1  13
BRANCH  10  26
ATOM     26  N   UNL     1       2.219 -10.365   2.615  0.00  0.00    -0.284 N 
ATOM     27  C   UNL     1       1.689 -11.601   2.533  0.00  0.00    +0.224 C 
ATOM     28  O   UNL     1       0.672 -11.784   1.898  0.00  0.00    -0.275 OA
ATOM     29  H   UNL     1       2.985 -10.203   3.188  0.00  0.00    +0.155 HD
BRANCH  27  30
ATOM     30  C   UNL     1       2.360 -12.757   3.231  0.00  0.00    +0.060 C 
ATOM     31  C   UNL     1       2.462 -12.653   4.784  0.00  0.00    +0.018 C 
ATOM     32  C   UNL     1       2.709 -14.106   5.252  0.00  0.00    +0.016 C 
ATOM     33  C   UNL     1       2.723 -14.945   3.938  0.00  0.00    +0.032 C 
ATOM     34  C   UNL     1       1.670 -14.159   3.080  0.00  0.00    -0.009 C 
ATOM     35  C   UNL     1       0.285 -14.193   3.729  0.00  0.00    +0.013 C 
ATOM     36  C   UNL     1       1.627 -14.625   1.623  0.00  0.00    +0.013 C 
ATOM     37  C   UNL     1       4.027 -14.541   3.236  0.00  0.00    +0.141 C 
ATOM     38  O   UNL     1       5.017 -15.217   3.085  0.00  0.00    -0.297 OA
ATOM     39  C   UNL     1       3.803 -13.104   2.752  0.00  0.00    +0.091 C 
ATOM     40  C   UNL     1       2.474 -16.446   4.102  0.00  0.00    +0.019 C 
ENDBRANCH  27  30
ENDBRANCH  10  26
TORSDOF 4
