REMARK  Name = ZINC34793020
REMARK  7 active torsions:
REMARK  status: ('A' for Active; 'I' for Inactive)
REMARK    1  A    between atoms: C_1  and  C_2
REMARK    2  A    between atoms: C_2  and  C_4
REMARK    3  A    between atoms: C_2  and  N_15
REMARK    4  A    between atoms: N_6  and  C_7
REMARK    5  A    between atoms: C_7  and  C_8
REMARK    6  A    between atoms: C_21  and  C_28
REMARK    7  A    between atoms: N_26  and  C_27
REMARK                            x       y       z     vdW  Elec       q    Type
REMARK                         _______ _______ _______ _____ _____    ______ ____
ROOT
ATOM      1  N   UNL     1       0.864  -0.006  -1.119  0.00  0.00    -0.281 N 
ATOM      2  C   UNL     1       0.166  -0.901  -2.053  0.00  0.00    +0.160 C 
ATOM      3  C   UNL     1       1.209  -1.280  -3.081  0.00  0.00    +0.042 C 
ATOM      4  C   UNL     1       2.343  -0.645  -2.722  0.00  0.00    +0.058 C 
ATOM      5  C   UNL     1       2.131   0.117  -1.555  0.00  0.00    +0.247 C 
ATOM      6  O   UNL     1       2.983   0.794  -1.011  0.00  0.00    -0.270 OA
ATOM      7  C   UNL     1       3.569  -0.849  -3.589  0.00  0.00    +0.143 C 
ATOM      8  N   UNL     1       3.419  -1.730  -4.760  0.00  0.00    -0.288 N 
ATOM      9  C   UNL     1       2.216  -2.294  -4.988  0.00  0.00    +0.307 C 
ATOM     10  O   UNL     1       2.083  -3.023  -5.952  0.00  0.00    -0.252 OA
ATOM     11  N   UNL     1       1.165  -2.079  -4.187  0.00  0.00    -0.260 N 
ATOM     12  C   UNL     1      -0.102  -2.737  -4.516  0.00  0.00    +0.139 C 
ATOM     13  H   UNL     1       4.167  -1.899  -5.353  0.00  0.00    +0.151 HD
ENDROOT
BRANCH   7  14
ATOM     14  C   UNL     1       4.664  -1.415  -2.721  0.00  0.00    -0.004 A 
ATOM     15  C   UNL     1       4.352  -1.994  -1.505  0.00  0.00    +0.007 A 
ATOM     16  C   UNL     1       5.355  -2.513  -0.709  0.00  0.00    +0.000 A 
ATOM     17  C   UNL     1       6.672  -2.453  -1.127  0.00  0.00    +0.001 A 
ATOM     18  C   UNL     1       6.985  -1.874  -2.342  0.00  0.00    +0.020 A 
ATOM     19  C   UNL     1       5.980  -1.359  -3.143  0.00  0.00    +0.046 A 
ATOM     20 CL   UNL     1       6.372  -0.638  -4.672  0.00  0.00    -0.083 Cl
ENDBRANCH   7  14
BRANCH   1  22
ATOM     21  C   UNL     1       0.384   2.158  -0.085  0.00  0.00    +0.038 C 
ATOM     22  C   UNL     1       0.286   0.639   0.063  0.00  0.00    +0.159 C 
BRANCH  22  23
ATOM     23  C   UNL     1       1.041   0.204   1.293  0.00  0.00    +0.234 C 
ATOM     24  O   UNL     1       1.971  -0.568   1.192  0.00  0.00    -0.274 OA
ATOM     25  N   UNL     1       0.683   0.673   2.504  0.00  0.00    -0.310 N 
ATOM     26  H   UNL     1      -0.060   1.291   2.585  0.00  0.00    +0.149 HD
BRANCH  25  27
ATOM     27  C   UNL     1       1.418   0.251   3.700  0.00  0.00    +0.139 C 
BRANCH  27  28
ATOM     28  C   UNL     1       0.823   0.913   4.915  0.00  0.00    -0.030 A 
ATOM     29  C   UNL     1       1.298   2.143   5.333  0.00  0.00    +0.008 A 
ATOM     30  C   UNL     1       0.753   2.751   6.448  0.00  0.00    +0.038 A 
ATOM     31  C   UNL     1      -0.269   2.130   7.146  0.00  0.00    +0.123 A 
ATOM     32  C   UNL     1      -0.744   0.899   6.726  0.00  0.00    +0.038 A 
ATOM     33  C   UNL     1      -0.201   0.294   5.608  0.00  0.00    +0.008 A 
ATOM     34  F   UNL     1      -0.802   2.724   8.235  0.00  0.00    -0.205 F 
ENDBRANCH  27  28
ENDBRANCH  25  27
ENDBRANCH  22  23
ENDBRANCH   1  22
TORSDOF 5
