REMARK  Name = ZINC14159316
REMARK  6 active torsions:
REMARK  status: ('A' for Active; 'I' for Inactive)
REMARK    1  A    between atoms: C_1  and  C_2
REMARK    2  A    between atoms: C_4  and  C_32
REMARK    3  A    between atoms: N_10  and  C_11
REMARK    4  A    between atoms: C_11  and  N_13
REMARK    5  A    between atoms: N_13  and  C_14
REMARK    6  A    between atoms: N_21  and  C_22
REMARK                            x       y       z     vdW  Elec       q    Type
REMARK                         _______ _______ _______ _____ _____    ______ ____
ROOT
ATOM      1  C   UNL     1      -2.848   6.870   1.939  0.00  0.00    +0.066 C 
ATOM      2  C   UNL     1      -1.521   6.612   1.273  0.00  0.00    +0.044 A 
ATOM      3  C   UNL     1      -0.521   7.571   1.305  0.00  0.00    +0.046 A 
ATOM      4  C   UNL     1       0.685   7.292   0.681  0.00  0.00    +0.044 A 
ATOM      5  N   UNL     1       0.844   6.126   0.077  0.00  0.00    -0.217 NA
ATOM      6  C   UNL     1      -0.132   5.231   0.065  0.00  0.00    +0.231 A 
ATOM      7  N   UNL     1      -1.297   5.468   0.647  0.00  0.00    -0.217 NA
ATOM      8  N   UNL     1       0.070   4.018  -0.579  0.00  0.00    -0.297 N 
ATOM      9  C   UNL     1      -0.970   3.139  -0.726  0.00  0.00    +0.200 C 
ATOM     10  N   UNL     1      -0.747   1.923  -1.192  0.00  0.00    -0.159 NA
ATOM     11  N   UNL     1      -2.239   3.520  -0.389  0.00  0.00    -0.326 N 
ATOM     12  C   UNL     1       1.801   8.305   0.691  0.00  0.00    +0.066 C 
ATOM     13  H   UNL     1       0.948   3.792  -0.925  0.00  0.00    +0.172 HD
ATOM     14  H   UNL     1      -2.422   4.444  -0.156  0.00  0.00    +0.169 HD
ENDROOT
BRANCH  11  15
ATOM     15  C   UNL     1      -3.273   2.578  -0.381  0.00  0.00    +0.061 A 
ATOM     16  C   UNL     1      -4.565   2.963  -0.683  0.00  0.00    +0.037 A 
ATOM     17  C   UNL     1      -5.569   1.978  -0.660  0.00  0.00    +0.002 A 
ATOM     18  C   UNL     1      -6.907   2.293  -0.956  0.00  0.00    +0.010 A 
ATOM     19  C   UNL     1      -7.851   1.314  -0.924  0.00  0.00    +0.001 A 
ATOM     20  C   UNL     1      -7.510   0.002  -0.602  0.00  0.00    +0.002 A 
ATOM     21  C   UNL     1      -6.225  -0.339  -0.311  0.00  0.00    +0.028 A 
ATOM     22  C   UNL     1      -5.220   0.645  -0.333  0.00  0.00    +0.071 A 
ATOM     23  N   UNL     1      -3.950   0.336  -0.049  0.00  0.00    -0.253 NA
ATOM     24  C   UNL     1      -3.003   1.240  -0.072  0.00  0.00    +0.137 A 
ENDBRANCH  11  15
BRANCH  10  25
ATOM     25  C   UNL     1       0.485   1.571  -1.585  0.00  0.00    +0.162 C 
ATOM     26  S   UNL     1       1.758   1.490  -0.443  0.00  0.00    -0.016 S 
BRANCH  25  27
ATOM     27  N   UNL     1       0.724   1.287  -2.881  0.00  0.00    -0.294 N 
ATOM     28  H   UNL     1       1.148   1.947  -3.452  0.00  0.00    +0.154 HD
BRANCH  27  29
ATOM     29  C   UNL     1       0.361   0.040  -3.402  0.00  0.00    +0.051 A 
ATOM     30  C   UNL     1      -0.331  -0.869  -2.613  0.00  0.00    +0.025 A 
ATOM     31  C   UNL     1      -0.692  -2.097  -3.132  0.00  0.00    +0.002 A 
ATOM     32  C   UNL     1      -0.355  -2.427  -4.432  0.00  0.00    +0.002 A 
ATOM     33  C   UNL     1       0.339  -1.526  -5.219  0.00  0.00    +0.022 A 
ATOM     34  C   UNL     1       0.699  -0.293  -4.708  0.00  0.00    +0.062 A 
ATOM     35 CL   UNL     1       1.571   0.836  -5.697  0.00  0.00    -0.082 Cl
ENDBRANCH  27  29
ENDBRANCH  25  27
ENDBRANCH  10  25
TORSDOF 4
