REMARK  Name = ZINC12530498
REMARK  8 active torsions:
REMARK  status: ('A' for Active; 'I' for Inactive)
REMARK    1  A    between atoms: C_3  and  C_6
REMARK    2  A    between atoms: C_6  and  N_7
REMARK    3  A    between atoms: C_8  and  C_10
REMARK    4  A    between atoms: C_10  and  C_11
REMARK    5  A    between atoms: C_11  and  C_12
REMARK    6  A    between atoms: C_21  and  N_24
REMARK    7  A    between atoms: N_24  and  S_25
REMARK    8  A    between atoms: S_25  and  C_28
REMARK                            x       y       z     vdW  Elec       q    Type
REMARK                         _______ _______ _______ _____ _____    ______ ____
ROOT
ATOM      1  C   UNL     1      -1.809   2.689   5.788  0.00  0.00    -0.050 C 
ATOM      2  C   UNL     1      -2.276   2.184   7.162  0.00  0.00    +0.089 C 
ATOM      3  N   UNL     1      -3.719   1.991   7.212  0.00  0.00    -0.318 N 
ATOM      4  C   UNL     1      -4.536   2.030   6.143  0.00  0.00    +0.200 C 
ATOM      5  O   UNL     1      -5.711   1.749   6.257  0.00  0.00    -0.278 OA
ATOM      6  C   UNL     1      -3.980   2.424   4.812  0.00  0.00    +0.021 C 
ATOM      7  C   UNL     1      -2.166   2.100   3.361  0.00  0.00    -0.057 C 
ATOM      8  C   UNL     1      -3.457   1.829   2.547  0.00  0.00    +0.059 C 
ATOM      9  C   UNL     1      -4.581   1.679   3.611  0.00  0.00    +0.012 C 
ATOM     10  H   UNL     1      -4.121   1.821   8.079  0.00  0.00    +0.149 HD
ATOM     11  N   UNL     1      -2.627   1.943   4.762  0.00  0.00    +0.391 N 
ATOM     12  H   UNL     1      -2.606   0.944   5.001  0.00  0.00    -0.080 HD
ENDROOT
BRANCH   8  13
ATOM     13  N   UNL     1      -3.321   0.593   1.772  0.00  0.00    -0.188 NA
ATOM     14  H   UNL     1      -3.480  -0.265   2.196  0.00  0.00    +0.148 HD
BRANCH  13  15
ATOM     15  S   UNL     1      -2.894   0.660   0.174  0.00  0.00    +0.065 S 
ATOM     16  O   UNL     1      -3.743   1.625  -0.433  0.00  0.00    -0.153 OA
ATOM     17  O   UNL     1      -2.820  -0.683  -0.283  0.00  0.00    -0.153 OA
BRANCH  15  18
ATOM     18  C   UNL     1      -1.258   1.309   0.098  0.00  0.00    +0.142 A 
ATOM     19  C   UNL     1      -0.075   0.648   0.125  0.00  0.00    +0.036 A 
ATOM     20  C   UNL     1       1.100   1.372   0.045  0.00  0.00    +0.010 A 
ATOM     21  C   UNL     1       1.034   2.723  -0.051  0.00  0.00    +0.047 A 
ATOM     22  S   UNL     1      -0.728   3.009  -0.031  0.00  0.00    -0.077 S 
ENDBRANCH  15  18
ENDBRANCH  13  15
ENDBRANCH   8  13
BRANCH   1  23
ATOM     23  C   UNL     1      -0.314   2.416   5.615  0.00  0.00    -0.005 C 
BRANCH  23  24
ATOM     24  C   UNL     1       0.477   3.248   6.626  0.00  0.00    +0.094 C 
BRANCH  24  26
ATOM     25  N   UNL     1       2.849   3.718   7.148  0.00  0.00    -0.311 N 
ATOM     26  C   UNL     1       1.953   3.075   6.374  0.00  0.00    +0.213 C 
ATOM     27  O   UNL     1       2.334   2.356   5.475  0.00  0.00    -0.276 OA
ATOM     28  H   UNL     1       2.544   4.293   7.868  0.00  0.00    +0.149 HD
BRANCH  25  29
ATOM     29  C   UNL     1       4.283   3.550   6.904  0.00  0.00    +0.146 C 
BRANCH  29  32
ATOM     30  C   UNL     1       6.221   4.942   9.873  0.00  0.00    +0.008 A 
ATOM     31  C   UNL     1       5.521   4.015   9.125  0.00  0.00    +0.013 A 
ATOM     32  C   UNL     1       5.063   4.370   7.899  0.00  0.00    +0.007 A 
ATOM     33  S   UNL     1       5.629   6.057   7.768  0.00  0.00    -0.100 S 
ATOM     34  C   UNL     1       6.430   6.179   9.359  0.00  0.00    +0.045 A 
ENDBRANCH  29  32
ENDBRANCH  25  29
ENDBRANCH  24  26
ENDBRANCH  23  24
ENDBRANCH   1  23
TORSDOF 8
