REMARK  Name = ZINC66699066
REMARK  9 active torsions:
REMARK  status: ('A' for Active; 'I' for Inactive)
REMARK    1  A    between atoms: C_1  and  C_2
REMARK    2  A    between atoms: C_2  and  C_3
REMARK    3  A    between atoms: C_3  and  N_4
REMARK    4  A    between atoms: N_4  and  C_5
REMARK    5  A    between atoms: C_5  and  C_6
REMARK    6  A    between atoms: C_11  and  O_12
REMARK    7  A    between atoms: N_15  and  C_16
REMARK    8  A    between atoms: C_16  and  C_17
REMARK    9  A    between atoms: C_26  and  C_29
REMARK                            x       y       z     vdW  Elec       q    Type
REMARK                         _______ _______ _______ _____ _____    ______ ____
ROOT
ATOM      1  N   UNL     1       0.708  -1.969  -1.209  0.00  0.00    -0.281 N 
ATOM      2  C   UNL     1       1.747  -2.630  -0.663  0.00  0.00    +0.303 C 
ATOM      3  O   UNL     1       1.775  -3.845  -0.687  0.00  0.00    -0.253 OA
ATOM      4  N   UNL     1       2.756  -1.944  -0.090  0.00  0.00    -0.295 N 
ATOM      5  H   UNL     1       2.735  -0.975  -0.071  0.00  0.00    +0.151 HD
ENDROOT
BRANCH   1   6
ATOM      6  C   UNL     1       0.675  -0.504  -1.180  0.00  0.00    +0.109 C 
BRANCH   6   8
ATOM      7  C   UNL     1      -0.062   1.494   0.126  0.00  0.00    +0.005 C 
ATOM      8  C   UNL     1      -0.027  -0.035   0.096  0.00  0.00    +0.016 C 
ENDBRANCH   6   8
ENDBRANCH   1   6
BRANCH   1   9
ATOM      9  C   UNL     1      -0.389  -2.714  -1.831  0.00  0.00    +0.148 C 
BRANCH   9  10
ATOM     10  C   UNL     1      -0.085  -2.929  -3.291  0.00  0.00    +0.011 A 
ATOM     11  C   UNL     1      -0.660  -2.113  -4.246  0.00  0.00    +0.009 A 
ATOM     12  C   UNL     1      -0.382  -2.310  -5.585  0.00  0.00    +0.001 A 
ATOM     13  C   UNL     1       0.473  -3.325  -5.974  0.00  0.00    +0.004 A 
ATOM     14  C   UNL     1       1.051  -4.144  -5.024  0.00  0.00    +0.046 A 
ATOM     15  C   UNL     1       0.778  -3.945  -3.678  0.00  0.00    +0.122 A 
BRANCH  15  16
ATOM     16  O   UNL     1       1.350  -4.745  -2.741  0.00  0.00    -0.506 OA
ATOM     17  H   UNL     1       0.833  -5.535  -2.530  0.00  0.00    +0.292 HD
ENDBRANCH  15  16
ENDBRANCH   9  10
ENDBRANCH   1   9
BRANCH   4  18
ATOM     18  C   UNL     1       3.886  -2.664   0.504  0.00  0.00    +0.142 C 
BRANCH  18  19
ATOM     19  C   UNL     1       4.870  -1.673   1.072  0.00  0.00    -0.014 A 
ATOM     20  C   UNL     1       5.898  -1.174   0.283  0.00  0.00    +0.010 A 
ATOM     21  C   UNL     1       6.779  -0.267   0.843  0.00  0.00    +0.042 A 
ATOM     22  C   UNL     1       6.606   0.113   2.170  0.00  0.00    +0.099 A 
ATOM     23  N   UNL     1       5.613  -0.385   2.890  0.00  0.00    -0.349 N 
ATOM     24  C   UNL     1       4.754  -1.248   2.380  0.00  0.00    +0.089 A 
ATOM     25  N   UNL     1       7.484   1.024   2.746  0.00  0.00    -0.317 N 
ATOM     26  C   UNL     1       8.668   1.490   2.011  0.00  0.00    +0.107 C 
ATOM     27  C   UNL     1       9.909   1.259   2.878  0.00  0.00    +0.022 C 
ATOM     28  C   UNL     1       9.709   1.931   4.238  0.00  0.00    -0.011 C 
ATOM     29  C   UNL     1       8.504   1.308   4.945  0.00  0.00    +0.022 C 
ATOM     30  C   UNL     1       7.243   1.544   4.099  0.00  0.00    +0.107 C 
ATOM     31  C   UNL     1      10.961   1.732   5.094  0.00  0.00    +0.007 C 
ATOM     32  H   UNL     1       5.511  -0.107   3.813  0.00  0.00    +0.167 HD
ENDBRANCH  18  19
ENDBRANCH   4  18
TORSDOF 7
