REMARK  Name = ZINC35700236
REMARK  15 active torsions:
REMARK  status: ('A' for Active; 'I' for Inactive)
REMARK    1  A    between atoms: C_1  and  C_2
REMARK    2  A    between atoms: C_5  and  N_9
REMARK    3  A    between atoms: C_6  and  C_8
REMARK    4  A    between atoms: C_10  and  N_18
REMARK    5  A    between atoms: C_12  and  C_14
REMARK    6  A    between atoms: C_14  and  C_15
REMARK    7  A    between atoms: C_14  and  C_16
REMARK    8  A    between atoms: C_14  and  C_17
REMARK    9  A    between atoms: C_19  and  C_21
REMARK   10  A    between atoms: C_21  and  N_22
REMARK   11  A    between atoms: N_22  and  C_23
REMARK   12  A    between atoms: C_23  and  C_24
REMARK   13  A    between atoms: C_24  and  O_25
REMARK   14  A    between atoms: O_25  and  C_26
REMARK   15  A    between atoms: N_29  and  C_30
REMARK                            x       y       z     vdW  Elec       q    Type
REMARK                         _______ _______ _______ _____ _____    ______ ____
ROOT
ATOM      1  N   UNL     1      -0.013  -4.745  -1.981  0.00  0.00    -0.269 N 
ATOM      2  C   UNL     1      -0.121  -5.481  -3.105  0.00  0.00    +0.236 C 
ATOM      3  O   UNL     1      -0.223  -6.687  -3.033  0.00  0.00    -0.274 OA
ATOM      4  H   UNL     1       0.068  -3.780  -2.039  0.00  0.00    +0.156 HD
ENDROOT
BRANCH   1   6
ATOM      5  N   UNL     1      -0.036  -4.752   0.477  0.00  0.00    -0.218 N 
ATOM      6  C   UNL     1      -0.019  -5.371  -0.735  0.00  0.00    +0.129 A 
ATOM      7  C   UNL     1      -0.009  -6.713  -0.508  0.00  0.00    +0.069 A 
ATOM      8  C   UNL     1      -0.020  -6.914   0.875  0.00  0.00    +0.071 A 
ATOM      9  N   UNL     1      -0.030  -5.745   1.464  0.00  0.00    -0.169 NA
BRANCH   5  14
ATOM     10  C   UNL     1      -0.098   0.852   1.369  0.00  0.00    +0.044 C 
ATOM     11  C   UNL     1      -0.082  -0.636   1.132  0.00  0.00    -0.050 A 
ATOM     12  C   UNL     1       0.825  -1.183   0.243  0.00  0.00    +0.005 A 
ATOM     13  C   UNL     1       0.843  -2.546   0.024  0.00  0.00    +0.028 A 
ATOM     14  C   UNL     1      -0.051  -3.368   0.697  0.00  0.00    +0.070 A 
ATOM     15  C   UNL     1      -0.960  -2.816   1.589  0.00  0.00    -0.025 A 
ATOM     16  C   UNL     1      -0.970  -1.452   1.808  0.00  0.00    +0.008 A 
ATOM     17  C   UNL     1      -1.932  -3.704   2.323  0.00  0.00    +0.046 C 
ENDBRANCH   5  14
BRANCH   8  18
ATOM     18  C   UNL     1      -0.015  -8.251   1.571  0.00  0.00    +0.006 C 
ATOM     19  C   UNL     1       1.385  -8.863   1.489  0.00  0.00    +0.017 C 
ATOM     20  C   UNL     1      -0.404  -8.063   3.039  0.00  0.00    +0.017 C 
ATOM     21  C   UNL     1      -1.020  -9.183   0.892  0.00  0.00    +0.017 C 
ENDBRANCH   8  18
ENDBRANCH   1   6
BRANCH   2  22
ATOM     22  C   UNL     1      -0.115  -4.805  -4.452  0.00  0.00    +0.205 C 
BRANCH  22  23
ATOM     23  N   UNL     1      -0.244  -5.814  -5.506  0.00  0.00    -0.274 N 
ATOM     24  C   UNL     1       0.858  -6.379  -6.036  0.00  0.00    +0.307 C 
ATOM     25  O   UNL     1       1.960  -6.051  -5.640  0.00  0.00    -0.252 OA
ATOM     26  N   UNL     1       0.740  -7.308  -7.006  0.00  0.00    -0.269 N 
ATOM     27  H   UNL     1      -0.138  -7.625  -7.269  0.00  0.00    +0.156 HD
BRANCH  26  28
ATOM     28  C   UNL     1       1.885  -7.815  -7.633  0.00  0.00    +0.038 A 
ATOM     29  C   UNL     1       1.909  -9.132  -8.074  0.00  0.00    +0.026 A 
ATOM     30  C   UNL     1       3.039  -9.632  -8.693  0.00  0.00    +0.043 A 
ATOM     31  C   UNL     1       4.146  -8.821  -8.874  0.00  0.00    +0.159 A 
ATOM     32  C   UNL     1       4.125  -7.506  -8.435  0.00  0.00    +0.160 A 
ATOM     33  C   UNL     1       2.993  -7.001  -7.819  0.00  0.00    +0.064 A 
ATOM     34  F   UNL     1       5.207  -6.717  -8.612  0.00  0.00    -0.202 F 
ATOM     35  F   UNL     1       5.250  -9.312  -9.480  0.00  0.00    -0.202 F 
ENDBRANCH  26  28
BRANCH  23  36
ATOM     36  C   UNL     1      -1.572  -6.209  -5.984  0.00  0.00    +0.138 C 
BRANCH  36  37
ATOM     37  C   UNL     1      -1.983  -5.308  -7.150  0.00  0.00    +0.178 C 
BRANCH  37  38
ATOM     38  O   UNL     1      -1.103  -5.528  -8.254  0.00  0.00    -0.381 OA
ATOM     39  C   UNL     1      -1.401  -4.731  -9.403  0.00  0.00    +0.194 C 
ENDBRANCH  37  38
ENDBRANCH  36  37
ENDBRANCH  23  36
ENDBRANCH  22  23
ENDBRANCH   2  22
TORSDOF 9
