REMARK  Name = ZINC40710868
REMARK  5 active torsions:
REMARK  status: ('A' for Active; 'I' for Inactive)
REMARK    1  A    between atoms: C_3  and  O_9
REMARK    2  A    between atoms: C_6  and  C_7
REMARK    3  A    between atoms: C_7  and  O_8
REMARK    4  A    between atoms: O_9  and  C_10
REMARK    5  A    between atoms: C_15  and  N_16
REMARK                            x       y       z     vdW  Elec       q    Type
REMARK                         _______ _______ _______ _____ _____    ______ ____
ROOT
ATOM      1  C   UNL     1       4.707   1.401   0.069  0.00  0.00    +0.151 A 
ATOM      2  C   UNL     1       4.674   0.020   0.054  0.00  0.00    +0.076 A 
ATOM      3  C   UNL     1       5.863  -0.702   0.145  0.00  0.00    +0.081 A 
ATOM      4  C   UNL     1       7.091  -0.011   0.253  0.00  0.00    +0.067 A 
ATOM      5  C   UNL     1       7.113   1.384   0.267  0.00  0.00    +0.041 A 
ATOM      6  C   UNL     1       5.926   2.084   0.170  0.00  0.00    +0.068 A 
ATOM      7  C   UNL     1       8.323  -0.805   0.347  0.00  0.00    +0.259 A 
ATOM      8  O   UNL     1       9.414  -0.271   0.442  0.00  0.00    -0.267 OA
ATOM      9  N   UNL     1       8.201  -2.152   0.326  0.00  0.00    -0.313 N 
ATOM     10  H   UNL     1       8.993  -2.708   0.387  0.00  0.00    +0.170 HD
ATOM     11  C   UNL     1       6.977  -2.734   0.220  0.00  0.00    +0.199 A 
ATOM     12  N   UNL     1       5.871  -2.060   0.134  0.00  0.00    -0.237 NA
ENDROOT
BRANCH   6  13
ATOM     13  N   UNL     1       5.941   3.483   0.178  0.00  0.00    -0.355 N 
ATOM     14  H   UNL     1       5.109   3.978   0.114  0.00  0.00    +0.142 HD
ATOM     15  H   UNL     1       6.783   3.959   0.248  0.00  0.00    +0.142 HD
ENDBRANCH   6  13
BRANCH   1  16
ATOM     16  O   UNL     1       3.548   2.103  -0.021  0.00  0.00    -0.454 OA
BRANCH  16  19
ATOM     17  C   UNL     1       0.797   0.056   1.192  0.00  0.00    +0.009 A 
ATOM     18  C   UNL     1       1.986   0.758   1.166  0.00  0.00    +0.046 A 
ATOM     19  C   UNL     1       2.379   1.411   0.007  0.00  0.00    +0.129 A 
ATOM     20  C   UNL     1       1.577   1.356  -1.124  0.00  0.00    +0.046 A 
ATOM     21  C   UNL     1       0.389   0.652  -1.093  0.00  0.00    +0.009 A 
ATOM     22  C   UNL     1      -0.001   0.003   0.064  0.00  0.00    -0.022 A 
BRANCH  22  23
ATOM     23  C   UNL     1      -1.297  -0.765   0.095  0.00  0.00    +0.191 C 
BRANCH  23  24
ATOM     24  O   UNL     1      -2.355   0.102   0.510  0.00  0.00    -0.390 OA
ATOM     25  H   UNL     1      -3.221  -0.326   0.553  0.00  0.00    +0.210 HD
ENDBRANCH  23  24
ENDBRANCH  22  23
ENDBRANCH  16  19
ENDBRANCH   1  16
TORSDOF 5
