REMARK  Name = ZINC39659759
REMARK  3 active torsions:
REMARK  status: ('A' for Active; 'I' for Inactive)
REMARK    1  A    between atoms: C_3  and  C_8
REMARK    2  A    between atoms: C_12  and  C_21
REMARK    3  A    between atoms: N_23  and  C_24
REMARK                            x       y       z     vdW  Elec       q    Type
REMARK                         _______ _______ _______ _____ _____    ______ ____
ROOT
ATOM      1  C   UNL     1       3.655   2.160  -0.022  0.00  0.00    +0.247 C 
ATOM      2  O   UNL     1       3.642   3.371  -0.124  0.00  0.00    -0.270 OA
ATOM      3  N   UNL     1       4.829   1.504   0.065  0.00  0.00    -0.296 N 
ATOM      4  C   UNL     1       5.052   0.039   0.066  0.00  0.00    +0.121 C 
ATOM      5  C   UNL     1       6.327  -0.162  -0.783  0.00  0.00    +0.100 C 
ATOM      6  C   UNL     1       7.069   1.183  -0.702  0.00  0.00    -0.004 C 
ATOM      7  C   UNL     1       6.189   2.084   0.176  0.00  0.00    +0.115 C 
ATOM      8  C   UNL     1       8.439   0.992  -0.058  0.00  0.00    -0.010 C 
ATOM      9  C   UNL     1       9.180   2.332  -0.040  0.00  0.00    -0.082 C 
ATOM     10  N   UNL     1       9.328   2.830  -1.413  0.00  0.00    +0.379 N 
ATOM     11  C   UNL     1       8.006   3.098  -1.993  0.00  0.00    -0.082 C 
ATOM     12  C   UNL     1       7.215   1.791  -2.093  0.00  0.00    -0.010 C 
ATOM     13  H   UNL     1       9.869   3.681  -1.405  0.00  0.00    -0.086 HD
ATOM     14  H   UNL     1       9.804   2.137  -1.971  0.00  0.00    -0.086 HD
ENDROOT
BRANCH   1  17
ATOM     15  C   UNL     1       0.051   1.240  -0.547  0.00  0.00    +0.002 A 
ATOM     16  C   UNL     1       1.235   1.948  -0.576  0.00  0.00    +0.013 A 
ATOM     17  C   UNL     1       2.383   1.407   0.005  0.00  0.00    +0.038 A 
ATOM     18  C   UNL     1       2.325   0.151   0.613  0.00  0.00    +0.028 A 
ATOM     19  C   UNL     1       1.134  -0.547   0.635  0.00  0.00    +0.019 A 
ATOM     20  C   UNL     1      -0.000  -0.004   0.056  0.00  0.00    +0.015 A 
ATOM     21 BR   UNL     1       1.053  -2.248   1.457  0.00  0.00    -0.050 Br
ENDBRANCH   1  17
BRANCH   5  22
ATOM     22  C   UNL     1       7.174  -1.267  -0.206  0.00  0.00    +0.218 C 
ATOM     23  O   UNL     1       7.091  -1.542   0.973  0.00  0.00    -0.275 OA
ATOM     24  N   UNL     1       8.024  -1.949  -0.999  0.00  0.00    -0.312 N 
ATOM     25  H   UNL     1       8.090  -1.729  -1.941  0.00  0.00    +0.149 HD
BRANCH  24  26
ATOM     26  C   UNL     1       8.847  -3.023  -0.437  0.00  0.00    +0.073 C 
ATOM     27  C   UNL     1      10.120  -2.428   0.166  0.00  0.00    +0.022 C 
ATOM     28  C   UNL     1      10.779  -3.458   1.086  0.00  0.00    +0.002 C 
ATOM     29  C   UNL     1       9.710  -4.125   1.954  0.00  0.00    +0.000 C 
ATOM     30  C   UNL     1       9.581  -5.598   1.561  0.00  0.00    +0.000 C 
ATOM     31  C   UNL     1       8.810  -5.708   0.243  0.00  0.00    +0.000 C 
ATOM     32  C   UNL     1       9.725  -5.312  -0.917  0.00  0.00    +0.002 C 
ATOM     33  C   UNL     1       9.221  -4.011  -1.544  0.00  0.00    +0.022 C 
ENDBRANCH  24  26
ENDBRANCH   5  22
TORSDOF 3
