REMARK  Name = ZINC21263187
REMARK  14 active torsions:
REMARK  status: ('A' for Active; 'I' for Inactive)
REMARK    1  A    between atoms: C_1  and  C_2
REMARK    2  A    between atoms: C_2  and  C_31
REMARK    3  A    between atoms: C_4  and  N_10
REMARK    4  A    between atoms: C_6  and  C_8
REMARK    5  A    between atoms: C_6  and  C_9
REMARK    6  A    between atoms: N_10  and  C_11
REMARK    7  A    between atoms: C_11  and  N_13
REMARK    8  A    between atoms: N_13  and  C_14
REMARK    9  A    between atoms: N_13  and  C_24
REMARK   10  A    between atoms: C_14  and  C_15
REMARK   11  A    between atoms: C_18  and  N_21
REMARK   12  A    between atoms: N_21  and  C_22
REMARK   13  A    between atoms: N_21  and  C_23
REMARK   14  A    between atoms: C_24  and  C_25
REMARK                            x       y       z     vdW  Elec       q    Type
REMARK                         _______ _______ _______ _____ _____    ______ ____
ROOT
ATOM      1  N   UNL     1       2.902   0.812  -1.402  0.00  0.00    -0.306 N 
ENDROOT
BRANCH   1   2
ATOM      2  C   UNL     1       2.521  -0.312  -2.039  0.00  0.00    +0.133 C 
ATOM      3  S   UNL     1       1.553  -1.469  -1.229  0.00  0.00    -0.019 S 
BRANCH   2   4
ATOM      4  N   UNL     1       2.900  -0.526  -3.315  0.00  0.00    -0.324 N 
ATOM      5  H   UNL     1       3.522   0.217  -3.836  0.00  0.00    +0.148 HD
BRANCH   4   9
ATOM      6  C   UNL     1       0.573  -2.973  -6.145  0.00  0.00    -0.010 C 
ATOM      7  C   UNL     1       2.088  -2.769  -6.268  0.00  0.00    -0.072 C 
ATOM      8  C   UNL     1       2.495  -1.503  -5.517  0.00  0.00    +0.009 C 
ATOM      9  C   UNL     1       2.484  -1.751  -4.009  0.00  0.00    +0.069 C 
ATOM     10  C   UNL     1       3.476  -2.870  -3.694  0.00  0.00    +0.009 C 
ATOM     11  C   UNL     1       3.079  -4.152  -4.421  0.00  0.00    -0.072 C 
ATOM     12  N   UNL     1       2.811  -3.944  -5.829  0.00  0.00    +0.386 N 
ATOM     13  C   UNL     1       1.875  -4.789  -3.716  0.00  0.00    -0.010 C 
ATOM     14  C   UNL     1       4.258  -5.143  -4.296  0.00  0.00    -0.010 C 
ATOM     15  C   UNL     1       2.399  -2.542  -7.764  0.00  0.00    -0.010 C 
ATOM     16  H   UNL     1       2.260  -4.847  -6.128  0.00  0.00    -0.084 HD
ATOM     17  H   UNL     1       3.810  -3.954  -6.290  0.00  0.00    -0.084 HD
ENDBRANCH   4   9
ENDBRANCH   2   4
ENDBRANCH   1   2
BRANCH   1  18
ATOM     18  C   UNL     1       2.490   1.044  -0.016  0.00  0.00    +0.142 C 
BRANCH  18  19
ATOM     19  C   UNL     1       1.176   1.783   0.000  0.00  0.00    -0.030 A 
ATOM     20  C   UNL     1      -0.013   1.076   0.008  0.00  0.00    +0.007 A 
ATOM     21  C   UNL     1      -1.218   1.749   0.017  0.00  0.00    +0.023 A 
ATOM     22  C   UNL     1      -1.236   3.138   0.031  0.00  0.00    +0.029 A 
ATOM     23  C   UNL     1      -0.040   3.845   0.023  0.00  0.00    +0.023 A 
ATOM     24  C   UNL     1       1.162   3.166   0.008  0.00  0.00    +0.007 A 
BRANCH  22  25
ATOM     25  N   UNL     1      -2.454   3.822   0.046  0.00  0.00    -0.336 N 
ATOM     26  C   UNL     1      -2.471   5.287   0.055  0.00  0.00    +0.129 C 
ATOM     27  C   UNL     1      -3.714   3.075   0.054  0.00  0.00    +0.129 C 
ENDBRANCH  22  25
ENDBRANCH  18  19
ENDBRANCH   1  18
BRANCH   1  28
ATOM     28  C   UNL     1       3.730   1.802  -2.095  0.00  0.00    +0.138 C 
BRANCH  28  29
ATOM     29  C   UNL     1       5.209   1.478  -1.870  0.00  0.00    +0.136 C 
ATOM     30  C   UNL     1       6.088   2.519  -2.590  0.00  0.00    +0.035 C 
ATOM     31  C   UNL     1       6.948   3.136  -1.459  0.00  0.00    +0.031 C 
ATOM     32  C   UNL     1       6.871   2.045  -0.361  0.00  0.00    +0.160 C 
ATOM     33  O   UNL     1       5.517   1.550  -0.468  0.00  0.00    -0.375 OA
ENDBRANCH  28  29
ENDBRANCH   1  28
TORSDOF 8
