REMARK  Name = ZINC12309363
REMARK  10 active torsions:
REMARK  status: ('A' for Active; 'I' for Inactive)
REMARK    1  A    between atoms: C_1  and  C_2
REMARK    2  A    between atoms: C_8  and  N_9
REMARK    3  A    between atoms: N_9  and  O_10
REMARK    4  A    between atoms: O_10  and  C_11
REMARK    5  A    between atoms: C_11  and  C_12
REMARK    6  A    between atoms: N_14  and  C_15
REMARK    7  A    between atoms: C_18  and  N_21
REMARK    8  A    between atoms: C_22  and  C_24
REMARK    9  A    between atoms: N_27  and  C_32
REMARK   10  A    between atoms: N_30  and  C_31
REMARK                            x       y       z     vdW  Elec       q    Type
REMARK                         _______ _______ _______ _____ _____    ______ ____
ROOT
ATOM      1  N   UNL     1       8.703  -0.408   0.163  0.00  0.00    -0.264 N 
ATOM      2  H   UNL     1       8.757  -1.506   0.129  0.00  0.00    +0.194 HD
ENDROOT
BRANCH   1  10
ATOM      3  C   UNL     1      11.105  -1.766   1.216  0.00  0.00    +0.047 C 
ATOM      4  C   UNL     1      10.990  -0.280   0.997  0.00  0.00    -0.008 A 
ATOM      5  C   UNL     1      11.973   0.549   1.384  0.00  0.00    +0.089 A 
ATOM      6  N   UNL     1      11.890   1.903   1.202  0.00  0.00    -0.347 N 
ATOM      7  H   UNL     1      12.587   2.573   1.727  0.00  0.00    +0.167 HD
ATOM      8  C   UNL     1      10.964   2.466   0.381  0.00  0.00    +0.129 A 
ATOM      9  C   UNL     1       9.890   1.706  -0.077  0.00  0.00    +0.106 A 
ATOM     10  C   UNL     1       9.794   0.298   0.351  0.00  0.00    +0.081 A 
ATOM     11  C   UNL     1       8.925   2.303  -0.920  0.00  0.00    +0.268 A 
ATOM     12  O   UNL     1       7.974   1.660  -1.327  0.00  0.00    -0.267 OA
ATOM     13  N   UNL     1       9.080   3.598  -1.270  0.00  0.00    -0.263 N 
ATOM     14  C   UNL     1      10.129   4.311  -0.824  0.00  0.00    +0.333 A 
ATOM     15  O   UNL     1      10.238   5.474  -1.161  0.00  0.00    -0.246 OA
ATOM     16  N   UNL     1      11.062   3.775  -0.015  0.00  0.00    -0.282 N 
ATOM     17  C   UNL     1      12.186   4.595   0.444  0.00  0.00    +0.155 C 
ATOM     18  C   UNL     1       8.094   4.234  -2.147  0.00  0.00    +0.157 C 
ENDBRANCH   1  10
BRANCH   1  19
ATOM     19  O   UNL     1       7.456   0.245   0.005  0.00  0.00    -0.265 OA
BRANCH  19  20
ATOM     20  C   UNL     1       6.355  -0.645  -0.192  0.00  0.00    +0.288 C 
BRANCH  20  21
ATOM     21  C   UNL     1       5.086   0.153  -0.348  0.00  0.00    +0.246 C 
ATOM     22  O   UNL     1       5.121   1.364  -0.296  0.00  0.00    -0.273 OA
ATOM     23  N   UNL     1       3.913  -0.480  -0.545  0.00  0.00    -0.284 N 
ATOM     24  H   UNL     1       3.866  -1.578  -0.505  0.00  0.00    +0.155 HD
BRANCH  23  25
ATOM     25  C   UNL     1       2.752   0.262  -0.801  0.00  0.00    +0.034 A 
ATOM     26  C   UNL     1       2.827   1.438  -1.535  0.00  0.00    +0.025 A 
ATOM     27  C   UNL     1       1.684   2.169  -1.787  0.00  0.00    +0.025 A 
ATOM     28  C   UNL     1       0.458   1.727  -1.308  0.00  0.00    +0.033 A 
ATOM     29  C   UNL     1       0.382   0.550  -0.575  0.00  0.00    +0.025 A 
ATOM     30  C   UNL     1       1.526  -0.180  -0.322  0.00  0.00    +0.025 A 
BRANCH  28  31
ATOM     31  N   UNL     1      -0.702   2.472  -1.559  0.00  0.00    -0.286 N 
ATOM     32  C   UNL     1      -0.773   3.261  -2.649  0.00  0.00    +0.214 C 
ATOM     33  O   UNL     1       0.126   3.253  -3.463  0.00  0.00    -0.276 OA
ATOM     34  C   UNL     1      -1.970   4.152  -2.857  0.00  0.00    +0.109 C 
ATOM     35  H   UNL     1      -1.554   2.412  -0.866  0.00  0.00    +0.155 HD
ENDBRANCH  28  31
ENDBRANCH  23  25
ENDBRANCH  20  21
ENDBRANCH  19  20
ENDBRANCH   1  19
TORSDOF 6
