REMARK  Name = ZINC04516003
REMARK  4 active torsions:
REMARK  status: ('A' for Active; 'I' for Inactive)
REMARK    1  A    between atoms: C_1  and  C_2
REMARK    2  A    between atoms: N_11  and  C_15
REMARK    3  A    between atoms: C_15  and  C_16
REMARK    4  A    between atoms: C_21  and  C_22
REMARK                            x       y       z     vdW  Elec       q    Type
REMARK                         _______ _______ _______ _____ _____    ______ ____
ROOT
ATOM      1  C   UNL     1      -1.163   1.136   4.042  0.00  0.00    +0.010 C 
ATOM      2  C   UNL     1      -1.976  -0.155   4.161  0.00  0.00    +0.018 C 
ATOM      3  C   UNL     1      -2.659  -0.203   5.530  0.00  0.00    +0.006 C 
ATOM      4  C   UNL     1      -3.487  -1.485   5.640  0.00  0.00    +0.000 C 
ATOM      5  C   UNL     1      -4.557  -1.499   4.546  0.00  0.00    +0.003 C 
ATOM      6  C   UNL     1      -3.881  -1.455   3.173  0.00  0.00    +0.035 C 
ATOM      7  C   UNL     1      -3.033  -0.193   3.063  0.00  0.00    +0.115 C 
ATOM      8  C   UNL     1      -2.386  -0.113   1.699  0.00  0.00    +0.247 C 
ATOM      9  O   UNL     1      -1.603  -0.900   1.212  0.00  0.00    -0.273 OA
ATOM     10  N   UNL     1      -2.862   1.018   1.140  0.00  0.00    -0.220 N 
ATOM     11  C   UNL     1      -3.716   1.650   1.955  0.00  0.00    +0.310 C 
ATOM     12  O   UNL     1      -4.278   2.689   1.671  0.00  0.00    -0.252 OA
ATOM     13  N   UNL     1      -3.882   1.004   3.125  0.00  0.00    -0.285 N 
ATOM     14  H   UNL     1      -4.450   1.275   3.863  0.00  0.00    +0.151 HD
ENDROOT
BRANCH  10  15
ATOM     15  C   UNL     1      -2.495   1.494  -0.196  0.00  0.00    +0.153 C 
BRANCH  15  16
ATOM     16  C   UNL     1      -1.375   2.496  -0.082  0.00  0.00    -0.018 A 
ATOM     17  C   UNL     1      -0.954   2.924   1.164  0.00  0.00    +0.006 A 
ATOM     18  C   UNL     1       0.069   3.847   1.268  0.00  0.00    +0.000 A 
ATOM     19  C   UNL     1       0.676   4.338   0.127  0.00  0.00    +0.001 A 
ATOM     20  C   UNL     1       0.259   3.906  -1.118  0.00  0.00    +0.013 A 
ATOM     21  C   UNL     1      -0.764   2.983  -1.222  0.00  0.00    +0.059 A 
BRANCH  21  22
ATOM     22  C   UNL     1      -1.219   2.512  -2.580  0.00  0.00    +0.418 C 
ATOM     23  F   UNL     1      -0.500   3.187  -3.572  0.00  0.00    -0.166 F 
ATOM     24  F   UNL     1      -0.995   1.136  -2.696  0.00  0.00    -0.166 F 
ATOM     25  F   UNL     1      -2.584   2.777  -2.732  0.00  0.00    -0.166 F 
ENDBRANCH  21  22
ENDBRANCH  15  16
ENDBRANCH  10  15
TORSDOF 3
