REMARK  Name = ZINC43219060
REMARK  6 active torsions:
REMARK  status: ('A' for Active; 'I' for Inactive)
REMARK    1  A    between atoms: C_1  and  C_2
REMARK    2  A    between atoms: C_2  and  C_4
REMARK    3  A    between atoms: C_7  and  N_10
REMARK    4  A    between atoms: C_15  and  C_32
REMARK    5  A    between atoms: C_18  and  C_23
REMARK    6  A    between atoms: C_18  and  C_29
REMARK                            x       y       z     vdW  Elec       q    Type
REMARK                         _______ _______ _______ _____ _____    ______ ____
ROOT
ATOM      1  N   UNL     1      -5.196  -2.625   0.175  0.00  0.00    -0.210 N 
ATOM      2  C   UNL     1      -6.497  -2.187   0.193  0.00  0.00    +0.229 C 
ATOM      3  O   UNL     1      -6.901  -1.057   0.020  0.00  0.00    -0.275 OA
ATOM      4  C   UNL     1      -7.277  -3.372   0.463  0.00  0.00    +0.078 C 
ATOM      5  C   UNL     1      -8.657  -3.864   0.350  0.00  0.00    -0.019 C 
ATOM      6  N   UNL     1      -8.525  -5.357   0.421  0.00  0.00    +0.399 N 
ATOM      7  C   UNL     1      -7.062  -5.680   0.447  0.00  0.00    +0.074 C 
ATOM      8  C   UNL     1      -6.453  -4.479  -0.308  0.00  0.00    +0.091 C 
ATOM      9  C   UNL     1      -5.097  -3.986   0.116  0.00  0.00    +0.229 C 
ATOM     10  O   UNL     1      -4.118  -4.659   0.357  0.00  0.00    -0.275 OA
ATOM     11  H   UNL     1      -8.967  -5.700   1.261  0.00  0.00    -0.083 HD
ATOM     12  H   UNL     1      -8.954  -5.777  -0.390  0.00  0.00    -0.083 HD
ENDROOT
BRANCH   1  16
ATOM     13  C   UNL     1      -1.900  -0.074   0.276  0.00  0.00    +0.017 A 
ATOM     14  C   UNL     1      -3.197   0.453   0.303  0.00  0.00    +0.013 A 
ATOM     15  C   UNL     1      -4.282  -0.393   0.269  0.00  0.00    +0.024 A 
ATOM     16  C   UNL     1      -4.091  -1.770   0.208  0.00  0.00    +0.044 A 
ATOM     17  C   UNL     1      -2.804  -2.298   0.181  0.00  0.00    +0.024 A 
ATOM     18  C   UNL     1      -1.714  -1.460   0.209  0.00  0.00    +0.013 A 
BRANCH  13  20
ATOM     19  C   UNL     1      -0.943   2.316   0.385  0.00  0.00    +0.091 C 
ATOM     20  C   UNL     1      -0.739   0.825   0.312  0.00  0.00    +0.160 C 
ATOM     21  O   UNL     1       0.384   0.367   0.284  0.00  0.00    -0.292 OA
ENDBRANCH  13  20
ENDBRANCH   1  16
BRANCH   7  22
ATOM     22  C   UNL     1      -6.558  -5.761   1.865  0.00  0.00    -0.047 A 
ATOM     23  C   UNL     1      -7.346  -5.306   2.906  0.00  0.00    +0.003 A 
ATOM     24  C   UNL     1      -6.885  -5.380   4.207  0.00  0.00    +0.000 A 
ATOM     25  C   UNL     1      -5.634  -5.909   4.467  0.00  0.00    +0.000 A 
ATOM     26  C   UNL     1      -4.846  -6.365   3.427  0.00  0.00    +0.000 A 
ATOM     27  C   UNL     1      -5.310  -6.295   2.126  0.00  0.00    +0.003 A 
ENDBRANCH   7  22
BRANCH   5  28
ATOM     28  C   UNL     1      -9.259  -3.447  -0.967  0.00  0.00    -0.022 A 
ATOM     29  C   UNL     1     -10.099  -2.418  -1.233  0.00  0.00    +0.011 A 
ATOM     30  C   UNL     1     -10.529  -2.222  -2.533  0.00  0.00    +0.028 A 
ATOM     31  C   UNL     1     -10.097  -3.067  -3.502  0.00  0.00    +0.078 A 
ATOM     32  S   UNL     1      -9.044  -4.177  -2.582  0.00  0.00    -0.083 S 
ATOM     33 CL   UNL     1     -10.466  -3.065  -5.198  0.00  0.00    -0.076 Cl
ENDBRANCH   5  28
BRANCH   7  34
ATOM     34  C   UNL     1      -6.785  -6.963  -0.293  0.00  0.00    +0.350 C 
ATOM     35  O   UNL     1      -7.704  -7.593  -0.787  0.00  0.00    -0.248 OA
ATOM     36  O   UNL     1      -5.640  -7.371  -0.399  0.00  0.00    -0.248 OA
ENDBRANCH   7  34
TORSDOF 5
