REMARK  Name = ZINC20413042
REMARK  7 active torsions:
REMARK  status: ('A' for Active; 'I' for Inactive)
REMARK    1  A    between atoms: C_1  and  C_2
REMARK    2  A    between atoms: C_10  and  O_35
REMARK    3  A    between atoms: C_21  and  C_22
REMARK    4  A    between atoms: C_25  and  O_28
REMARK    5  A    between atoms: O_28  and  C_29
REMARK    6  A    between atoms: C_32  and  O_34
REMARK    7  A    between atoms: O_35  and  C_36
REMARK                            x       y       z     vdW  Elec       q    Type
REMARK                         _______ _______ _______ _____ _____    ______ ____
ROOT
ATOM      1  C   UNL     1      -0.752   8.586   1.527  0.00  0.00    +0.014 C 
ATOM      2  C   UNL     1      -0.597   8.372   0.020  0.00  0.00    +0.001 C 
ATOM      3  C   UNL     1       0.633   7.560  -0.293  0.00  0.00    +0.010 C 
ATOM      4  C   UNL     1       0.290   6.064  -0.415  0.00  0.00    +0.009 C 
ATOM      5  C   UNL     1      -0.911   5.729   0.448  0.00  0.00    +0.023 C 
ATOM      6  C   UNL     1      -1.199   4.260   0.586  0.00  0.00    -0.041 A 
ATOM      7  C   UNL     1      -0.170   3.340   0.502  0.00  0.00    +0.008 A 
ATOM      8  C   UNL     1      -0.419   1.992   0.660  0.00  0.00    +0.046 A 
ATOM      9  C   UNL     1      -1.717   1.559   0.890  0.00  0.00    +0.120 A 
ATOM     10  C   UNL     1      -2.748   2.478   0.957  0.00  0.00    +0.049 A 
ATOM     11  C   UNL     1      -2.498   3.837   0.809  0.00  0.00    -0.040 A 
ATOM     12  C   UNL     1      -3.679   4.764   0.914  0.00  0.00    +0.036 C 
ATOM     13  C   UNL     1      -3.287   6.244   0.878  0.00  0.00    +0.009 C 
ATOM     14  C   UNL     1      -2.164   6.391  -0.138  0.00  0.00    +0.001 C 
ATOM     15  C   UNL     1      -1.861   7.763  -0.627  0.00  0.00    +0.005 C 
ATOM     16  C   UNL     1      -2.900   8.866  -0.409  0.00  0.00    +0.037 C 
ATOM     17  C   UNL     1      -2.100  10.165  -0.479  0.00  0.00    -0.040 C 
ATOM     18  C   UNL     1      -2.587  11.395  -0.414  0.00  0.00    +0.009 C 
ATOM     19  C   UNL     1      -0.632   9.770  -0.645  0.00  0.00    +0.147 C 
ENDROOT
BRANCH  18  20
ATOM     20  C   UNL     1      -1.668  12.550  -0.346  0.00  0.00    -0.025 A 
ATOM     21  C   UNL     1      -2.058  13.716   0.315  0.00  0.00    +0.011 A 
ATOM     22  C   UNL     1      -1.196  14.790   0.381  0.00  0.00    +0.046 A 
ATOM     23  C   UNL     1       0.054  14.717  -0.219  0.00  0.00    +0.127 A 
ATOM     24  C   UNL     1       0.444  13.561  -0.882  0.00  0.00    +0.046 A 
ATOM     25  C   UNL     1      -0.410  12.481  -0.947  0.00  0.00    +0.011 A 
BRANCH  23  26
ATOM     26  O   UNL     1       0.899  15.780  -0.157  0.00  0.00    -0.434 OA
BRANCH  26  27
ATOM     27  C   UNL     1       0.434  16.937   0.541  0.00  0.00    +0.541 C 
ATOM     28  F   UNL     1      -0.728  17.416  -0.072  0.00  0.00    -0.166 F 
ATOM     29  F   UNL     1       0.156  16.601   1.870  0.00  0.00    -0.166 F 
ENDBRANCH  26  27
ENDBRANCH  23  26
ENDBRANCH  18  20
BRANCH  19  30
ATOM     30  O   UNL     1      -0.283   9.677  -2.023  0.00  0.00    -0.387 OA
ATOM     31  H   UNL     1      -0.259  10.583  -2.646  0.00  0.00    +0.210 HD
ENDBRANCH  19  30
BRANCH   9  32
ATOM     32  O   UNL     1      -1.974   0.233   1.043  0.00  0.00    -0.495 OA
ATOM     33  C   UNL     1      -0.860  -0.658   0.956  0.00  0.00    +0.277 C 
ENDBRANCH   9  32
TORSDOF 5
