REMARK  Name = ZINC39681261
REMARK  6 active torsions:
REMARK  status: ('A' for Active; 'I' for Inactive)
REMARK    1  A    between atoms: C_5  and  O_7
REMARK    2  A    between atoms: O_7  and  C_8
REMARK    3  A    between atoms: C_8  and  C_9
REMARK    4  A    between atoms: C_9  and  N_10
REMARK    5  A    between atoms: C_11  and  C_13
REMARK    6  A    between atoms: C_24  and  C_26
REMARK                            x       y       z     vdW  Elec       q    Type
REMARK                         _______ _______ _______ _____ _____    ______ ____
ROOT
ATOM      1  C   UNL     1       2.208  -6.295   2.118  0.00  0.00    +0.100 C 
ATOM      2  C   UNL     1       3.575  -5.698   2.517  0.00  0.00    +0.121 C 
ATOM      3  N   UNL     1       4.283  -6.806   3.200  0.00  0.00    -0.296 N 
ATOM      4  C   UNL     1       3.929  -8.011   2.410  0.00  0.00    +0.115 C 
ATOM      5  C   UNL     1       2.444  -7.813   2.048  0.00  0.00    -0.004 C 
ATOM      6  C   UNL     1       2.174  -8.325   0.636  0.00  0.00    -0.010 C 
ATOM      7  C   UNL     1       2.359  -9.845   0.606  0.00  0.00    -0.082 C 
ATOM      8  N   UNL     1       1.437 -10.472   1.561  0.00  0.00    +0.379 N 
ATOM      9  C   UNL     1       1.764 -10.044   2.927  0.00  0.00    -0.082 C 
ATOM     10  C   UNL     1       1.554  -8.533   3.055  0.00  0.00    -0.010 C 
ATOM     11  C   UNL     1       5.069  -6.736   4.292  0.00  0.00    +0.247 C 
ATOM     12  O   UNL     1       5.162  -5.693   4.908  0.00  0.00    -0.270 OA
ATOM     13  H   UNL     1       0.491 -10.198   1.342  0.00  0.00    -0.086 HD
ATOM     14  H   UNL     1       1.517 -11.475   1.495  0.00  0.00    -0.086 HD
ENDROOT
BRANCH  11  15
ATOM     15  C   UNL     1       5.819  -7.929   4.741  0.00  0.00    +0.040 A 
ATOM     16  C   UNL     1       6.074  -8.973   3.850  0.00  0.00    +0.033 A 
ATOM     17  C   UNL     1       6.775 -10.084   4.275  0.00  0.00    +0.043 A 
ATOM     18  C   UNL     1       7.225 -10.164   5.582  0.00  0.00    +0.040 A 
ATOM     19  C   UNL     1       6.975  -9.132   6.470  0.00  0.00    +0.043 A 
ATOM     20  C   UNL     1       6.281  -8.013   6.055  0.00  0.00    +0.033 A 
ATOM     21 CL   UNL     1       7.542  -9.242   8.107  0.00  0.00    -0.083 Cl
ATOM     22 CL   UNL     1       7.092 -11.383   3.168  0.00  0.00    -0.083 Cl
ENDBRANCH  11  15
BRANCH   1  24
ATOM     23  N   UNL     1       0.467  -5.634   0.488  0.00  0.00    -0.312 N 
ATOM     24  C   UNL     1       1.778  -5.768   0.772  0.00  0.00    +0.218 C 
ATOM     25  O   UNL     1       2.612  -5.465  -0.054  0.00  0.00    -0.275 OA
ATOM     26  H   UNL     1      -0.200  -5.877   1.150  0.00  0.00    +0.149 HD
BRANCH  23  27
ATOM     27  C   UNL     1       0.050  -5.122  -0.819  0.00  0.00    +0.145 C 
BRANCH  27  28
ATOM     28  C   UNL     1      -1.478  -5.069  -0.882  0.00  0.00    +0.248 C 
BRANCH  28  29
ATOM     29  O   UNL     1      -1.961  -4.118   0.068  0.00  0.00    -0.489 OA
BRANCH  29  34
ATOM     30  C   UNL     1      -5.515  -4.506  -0.610  0.00  0.00    +0.004 A 
ATOM     31  C   UNL     1      -6.049  -3.601   0.288  0.00  0.00    +0.002 A 
ATOM     32  C   UNL     1      -5.216  -2.868   1.113  0.00  0.00    +0.023 A 
ATOM     33  C   UNL     1      -3.846  -3.039   1.042  0.00  0.00    +0.083 A 
ATOM     34  C   UNL     1      -3.308  -3.948   0.141  0.00  0.00    +0.139 A 
ATOM     35  C   UNL     1      -4.146  -4.681  -0.686  0.00  0.00    +0.047 A 
ATOM     36 CL   UNL     1      -2.800  -2.119   2.078  0.00  0.00    -0.080 Cl
ENDBRANCH  29  34
ENDBRANCH  28  29
ENDBRANCH  27  28
ENDBRANCH  23  27
ENDBRANCH   1  24
TORSDOF 6
