REMARK  Name = ZINC36643173
REMARK  12 active torsions:
REMARK  status: ('A' for Active; 'I' for Inactive)
REMARK    1  A    between atoms: C_1  and  C_2
REMARK    2  A    between atoms: C_2  and  C_3
REMARK    3  A    between atoms: N_9  and  S_10
REMARK    4  A    between atoms: S_10  and  C_13
REMARK    5  A    between atoms: C_16  and  C_19
REMARK    6  A    between atoms: N_21  and  C_22
REMARK    7  A    between atoms: C_22  and  C_23
REMARK    8  A    between atoms: C_23  and  C_24
REMARK    9  A    between atoms: C_24  and  N_25
REMARK   10  A    between atoms: N_25  and  C_26
REMARK   11  A    between atoms: N_25  and  C_27
REMARK   12  A    between atoms: C_33  and  C_37
REMARK                            x       y       z     vdW  Elec       q    Type
REMARK                         _______ _______ _______ _____ _____    ______ ____
ROOT
ATOM      1  C   UNL     1       4.497  -2.849   4.571  0.00  0.00    +0.252 C 
ATOM      2  O   UNL     1       3.696  -3.101   5.449  0.00  0.00    -0.270 OA
ATOM      3  N   UNL     1       5.780  -3.244   4.695  0.00  0.00    -0.246 N 
ATOM      4  C   UNL     1       6.154  -4.059   5.750  0.00  0.00    +0.168 A 
ATOM      5  N   UNL     1       7.342  -4.537   6.039  0.00  0.00    -0.224 NA
ATOM      6  C   UNL     1       7.564  -5.328   7.111  0.00  0.00    +0.080 A 
ATOM      7  C   UNL     1       8.784  -5.905   7.532  0.00  0.00    +0.029 A 
ATOM      8  C   UNL     1       8.837  -6.690   8.654  0.00  0.00    +0.005 A 
ATOM      9  C   UNL     1       7.705  -6.947   9.414  0.00  0.00    -0.049 A 
ATOM     10  C   UNL     1       6.494  -6.398   9.031  0.00  0.00    +0.020 A 
ATOM     11  C   UNL     1       6.432  -5.611   7.909  0.00  0.00    +0.041 A 
ATOM     12  S   UNL     1       5.145  -4.720   7.068  0.00  0.00    -0.052 S 
ATOM     13  C   UNL     1       7.793  -7.814  10.643  0.00  0.00    +0.044 C 
ENDROOT
BRANCH   1  17
ATOM     14  C   UNL     1       3.255  -0.721   1.111  0.00  0.00    +0.106 A 
ATOM     15  C   UNL     1       2.411  -1.654   1.686  0.00  0.00    +0.029 A 
ATOM     16  C   UNL     1       2.808  -2.349   2.809  0.00  0.00    +0.015 A 
ATOM     17  C   UNL     1       4.065  -2.109   3.367  0.00  0.00    +0.037 A 
ATOM     18  C   UNL     1       4.912  -1.165   2.782  0.00  0.00    +0.015 A 
ATOM     19  C   UNL     1       4.505  -0.482   1.655  0.00  0.00    +0.029 A 
BRANCH  14  20
ATOM     20  S   UNL     1       2.740   0.162  -0.324  0.00  0.00    +0.061 S 
ATOM     21  O   UNL     1       3.352   1.443  -0.255  0.00  0.00    -0.153 OA
ATOM     22  O   UNL     1       1.332  -0.005  -0.420  0.00  0.00    -0.153 OA
BRANCH  20  28
ATOM     23  C   UNL     1       2.772  -1.817  -2.185  0.00  0.00    +0.080 C 
ATOM     24  C   UNL     1       3.823  -2.929  -2.261  0.00  0.00    +0.021 C 
ATOM     25  C   UNL     1       5.032  -2.429  -3.055  0.00  0.00    +0.003 C 
ATOM     26  C   UNL     1       5.653  -1.226  -2.341  0.00  0.00    +0.017 C 
ATOM     27  C   UNL     1       4.622  -0.095  -2.267  0.00  0.00    +0.110 C 
ATOM     28  N   UNL     1       3.398  -0.607  -1.635  0.00  0.00    -0.174 NA
BRANCH  23  30
ATOM     29  C   UNL     1       1.042  -3.575  -1.794  0.00  0.00    +0.005 C 
ATOM     30  C   UNL     1       1.623  -2.258  -1.277  0.00  0.00    +0.017 C 
ENDBRANCH  23  30
ENDBRANCH  20  28
ENDBRANCH  14  20
ENDBRANCH   1  17
BRANCH   3  31
ATOM     31  C   UNL     1       6.778  -2.811   3.714  0.00  0.00    +0.114 C 
BRANCH  31  32
ATOM     32  C   UNL     1       7.566  -1.627   4.277  0.00  0.00    +0.001 C 
BRANCH  32  33
ATOM     33  C   UNL     1       8.506  -1.082   3.199  0.00  0.00    -0.078 C 
BRANCH  33  34
ATOM     34  N   UNL     1       9.263   0.055   3.740  0.00  0.00    +0.376 N 
ATOM     35  C   UNL     1      10.249   0.503   2.747  0.00  0.00    -0.097 C 
ATOM     36  C   UNL     1       8.341   1.157   4.045  0.00  0.00    -0.097 C 
ATOM     37  H   UNL     1       9.739  -0.228   4.583  0.00  0.00    -0.083 HD
ENDBRANCH  33  34
ENDBRANCH  32  33
ENDBRANCH  31  32
ENDBRANCH   3  31
TORSDOF 8
