REMARK  Name = ZINC01059279
REMARK  8 active torsions:
REMARK  status: ('A' for Active; 'I' for Inactive)
REMARK    1  A    between atoms: C_1  and  C_2
REMARK    2  A    between atoms: C_2  and  N_3
REMARK    3  A    between atoms: C_4  and  C_21
REMARK    4  A    between atoms: C_7  and  S_8
REMARK    5  A    between atoms: S_8  and  C_9
REMARK    6  A    between atoms: C_9  and  C_10
REMARK    7  A    between atoms: N_12  and  C_13
REMARK    8  A    between atoms: C_26  and  O_27
REMARK                            x       y       z     vdW  Elec       q    Type
REMARK                         _______ _______ _______ _____ _____    ______ ____
ROOT
ATOM      1  N   UNL     1       0.673  -0.590  -0.716  0.00  0.00    -0.302 N 
ATOM      2  C   UNL     1       0.015  -1.033  -1.840  0.00  0.00    +0.168 A 
ATOM      3  N   UNL     1       0.933  -1.423  -2.695  0.00  0.00    -0.128 NA
ATOM      4  N   UNL     1       2.102  -1.256  -2.189  0.00  0.00    -0.122 NA
ATOM      5  C   UNL     1       2.004  -0.744  -0.983  0.00  0.00    +0.192 A 
ENDROOT
BRANCH   2   6
ATOM      6  C   UNL     1      -1.448  -1.066  -2.047  0.00  0.00    +0.062 A 
ATOM      7  C   UNL     1      -2.284  -1.585  -1.058  0.00  0.00    +0.030 A 
ATOM      8  C   UNL     1      -3.650  -1.613  -1.256  0.00  0.00    +0.019 A 
ATOM      9  C   UNL     1      -4.193  -1.126  -2.434  0.00  0.00    +0.019 A 
ATOM     10  C   UNL     1      -3.374  -0.609  -3.420  0.00  0.00    +0.047 A 
ATOM     11  C   UNL     1      -2.002  -0.570  -3.233  0.00  0.00    +0.128 A 
ATOM     12 BR   UNL     1      -4.783  -2.317   0.084  0.00  0.00    -0.050 Br
BRANCH  11  13
ATOM     13  O   UNL     1      -1.197  -0.057  -4.199  0.00  0.00    -0.506 OA
ATOM     14  H   UNL     1      -0.894  -0.709  -4.846  0.00  0.00    +0.292 HD
ENDBRANCH  11  13
ENDBRANCH   2   6
BRANCH   1  16
ATOM     15  C   UNL     1       0.010   1.469   0.425  0.00  0.00    +0.027 C 
ATOM     16  C   UNL     1       0.072  -0.057   0.509  0.00  0.00    +0.122 C 
ENDBRANCH   1  16
BRANCH   5  17
ATOM     17  S   UNL     1       3.340  -0.337   0.092  0.00  0.00    -0.077 S 
BRANCH  17  18
ATOM     18  C   UNL     1       4.819  -0.782  -0.859  0.00  0.00    +0.173 C 
BRANCH  18  19
ATOM     19  C   UNL     1       6.050  -0.480  -0.043  0.00  0.00    +0.228 C 
ATOM     20  O   UNL     1       5.940  -0.011   1.069  0.00  0.00    -0.275 OA
ATOM     21  N   UNL     1       7.273  -0.732  -0.551  0.00  0.00    -0.284 N 
ATOM     22  H   UNL     1       7.365  -1.036  -1.467  0.00  0.00    +0.155 HD
BRANCH  21  23
ATOM     23  C   UNL     1       8.411  -0.555   0.245  0.00  0.00    +0.052 A 
ATOM     24  C   UNL     1       8.295  -0.528   1.629  0.00  0.00    +0.026 A 
ATOM     25  C   UNL     1       9.419  -0.353   2.412  0.00  0.00    +0.022 A 
ATOM     26  C   UNL     1      10.661  -0.204   1.819  0.00  0.00    +0.042 A 
ATOM     27  C   UNL     1      10.780  -0.230   0.441  0.00  0.00    +0.041 A 
ATOM     28  C   UNL     1       9.660  -0.411  -0.347  0.00  0.00    +0.064 A 
ATOM     29 CL   UNL     1       9.810  -0.451  -2.076  0.00  0.00    -0.082 Cl
ATOM     30 CL   UNL     1      12.071   0.017   2.807  0.00  0.00    -0.083 Cl
ENDBRANCH  21  23
ENDBRANCH  18  19
ENDBRANCH  17  18
ENDBRANCH   5  17
TORSDOF 7
