REMARK  Name = ZINC62832167
REMARK  8 active torsions:
REMARK  status: ('A' for Active; 'I' for Inactive)
REMARK    1  A    between atoms: C_1  and  C_2
REMARK    2  A    between atoms: C_2  and  C_4
REMARK    3  A    between atoms: C_2  and  N_10
REMARK    4  A    between atoms: N_6  and  C_7
REMARK    5  A    between atoms: N_10  and  C_11
REMARK    6  A    between atoms: N_10  and  C_12
REMARK    7  A    between atoms: C_15  and  N_21
REMARK    8  A    between atoms: C_17  and  C_18
REMARK                            x       y       z     vdW  Elec       q    Type
REMARK                         _______ _______ _______ _____ _____    ______ ____
ROOT
ATOM      1  C   UNL     1      -1.897  -1.395  -0.800  0.00  0.00    +0.044 A 
ATOM      2  C   UNL     1      -1.838  -2.765  -0.576  0.00  0.00    +0.026 A 
ATOM      3  C   UNL     1      -2.315  -3.644  -1.525  0.00  0.00    +0.024 A 
ATOM      4  C   UNL     1      -2.860  -3.169  -2.715  0.00  0.00    +0.025 A 
ATOM      5  C   UNL     1      -2.927  -1.809  -2.955  0.00  0.00    +0.039 A 
ATOM      6  C   UNL     1      -2.451  -0.908  -1.995  0.00  0.00    +0.086 A 
ENDROOT
BRANCH   6   7
ATOM      7  C   UNL     1      -2.525   0.540  -2.240  0.00  0.00    +0.388 C 
ATOM      8  O   UNL     1      -2.945   0.960  -3.309  0.00  0.00    -0.241 OA
ATOM      9  O   UNL     1      -2.165   1.326  -1.373  0.00  0.00    -0.241 OA
ENDBRANCH   6   7
BRANCH   4  10
ATOM     10  N   UNL     1      -3.340  -4.071  -3.672  0.00  0.00    -0.358 N 
ATOM     11  H   UNL     1      -3.293  -5.025  -3.505  0.00  0.00    +0.142 HD
ATOM     12  H   UNL     1      -3.720  -3.741  -4.501  0.00  0.00    +0.142 HD
ENDBRANCH   4  10
BRANCH   1  13
ATOM     13  N   UNL     1      -1.416  -0.510   0.157  0.00  0.00    -0.321 N 
ATOM     14  C   UNL     1      -2.336   0.094   1.125  0.00  0.00    +0.130 C 
BRANCH  13  16
ATOM     15  C   UNL     1       0.187   1.337   0.115  0.00  0.00    +0.038 C 
ATOM     16  C   UNL     1       0.011  -0.181   0.199  0.00  0.00    +0.156 C 
BRANCH  16  17
ATOM     17  C   UNL     1       0.605  -0.685   1.489  0.00  0.00    +0.233 C 
ATOM     18  O   UNL     1      -0.094  -1.262   2.294  0.00  0.00    -0.274 OA
ATOM     19  N   UNL     1       1.914  -0.494   1.748  0.00  0.00    -0.311 N 
ATOM     20  H   UNL     1       2.473  -0.032   1.104  0.00  0.00    +0.149 HD
BRANCH  19  21
ATOM     21  C   UNL     1       2.492  -0.983   3.002  0.00  0.00    +0.073 C 
ATOM     22  C   UNL     1       3.448  -0.052   3.750  0.00  0.00    +0.024 C 
ATOM     23  C   UNL     1       3.992  -1.281   3.019  0.00  0.00    +0.024 C 
ENDBRANCH  19  21
ENDBRANCH  16  17
ENDBRANCH  13  16
ENDBRANCH   1  13
TORSDOF 6
