REMARK  Name = ZINC35664531
REMARK  14 active torsions:
REMARK  status: ('A' for Active; 'I' for Inactive)
REMARK    1  A    between atoms: C_1  and  C_2
REMARK    2  A    between atoms: C_2  and  N_3
REMARK    3  A    between atoms: C_4  and  C_24
REMARK    4  A    between atoms: C_5  and  C_19
REMARK    5  A    between atoms: C_6  and  C_11
REMARK    6  A    between atoms: C_15  and  O_17
REMARK    7  A    between atoms: O_17  and  C_18
REMARK    8  A    between atoms: C_19  and  O_21
REMARK    9  A    between atoms: O_21  and  C_22
REMARK   10  A    between atoms: C_22  and  C_23
REMARK   11  A    between atoms: C_24  and  N_25
REMARK   12  A    between atoms: C_29  and  C_32
REMARK   13  A    between atoms: C_33  and  C_35
REMARK   14  A    between atoms: C_38  and  C_41
REMARK                            x       y       z     vdW  Elec       q    Type
REMARK                         _______ _______ _______ _____ _____    ______ ____
ROOT
ATOM      1  N   UNL     1       2.816   0.372   1.260  0.00  0.00    -0.258 N 
ATOM      2  C   UNL     1       4.138   0.283   0.930  0.00  0.00    +0.041 C 
ATOM      3  C   UNL     1       5.077   0.046   1.871  0.00  0.00    +0.080 C 
ATOM      4  C   UNL     1       4.613  -0.117   3.304  0.00  0.00    +0.144 C 
ATOM      5  N   UNL     1       3.167  -0.003   3.555  0.00  0.00    -0.288 N 
ATOM      6  C   UNL     1       2.352   0.241   2.510  0.00  0.00    +0.307 C 
ATOM      7  O   UNL     1       1.157   0.341   2.706  0.00  0.00    -0.252 OA
ATOM      8  H   UNL     1       2.809  -0.099   4.452  0.00  0.00    +0.151 HD
ENDROOT
BRANCH   4   9
ATOM      9  C   UNL     1       5.062  -1.473   3.786  0.00  0.00    -0.019 A 
ATOM     10  C   UNL     1       4.345  -2.603   3.436  0.00  0.00    +0.006 A 
ATOM     11  C   UNL     1       4.753  -3.848   3.876  0.00  0.00    +0.004 A 
ATOM     12  C   UNL     1       5.880  -3.967   4.667  0.00  0.00    +0.045 A 
ATOM     13  C   UNL     1       6.600  -2.835   5.020  0.00  0.00    +0.120 A 
ATOM     14  C   UNL     1       6.191  -1.587   4.572  0.00  0.00    +0.051 A 
BRANCH  13  15
ATOM     15  O   UNL     1       7.708  -2.950   5.799  0.00  0.00    -0.495 OA
ATOM     16  C   UNL     1       8.073  -4.266   6.218  0.00  0.00    +0.277 C 
ENDBRANCH  13  15
ENDBRANCH   4   9
BRANCH   1  18
ATOM     17  C   UNL     1       1.669   2.142   0.021  0.00  0.00    +0.025 C 
ATOM     18  C   UNL     1       1.851   0.632   0.189  0.00  0.00    +0.111 C 
ENDBRANCH   1  18
BRANCH   3  19
ATOM     19  C   UNL     1       6.447  -0.047   1.530  0.00  0.00    +0.339 C 
ATOM     20  O   UNL     1       6.962  -1.139   1.377  0.00  0.00    -0.245 OA
BRANCH  19  21
ATOM     21  O   UNL     1       7.181   1.074   1.375  0.00  0.00    -0.462 OA
BRANCH  21  22
ATOM     22  C   UNL     1       8.558   0.905   1.031  0.00  0.00    +0.229 C 
ATOM     23  C   UNL     1       9.222   2.277   0.899  0.00  0.00    +0.048 C 
ENDBRANCH  21  22
ENDBRANCH  19  21
ENDBRANCH   3  19
BRANCH   2  24
ATOM     24  C   UNL     1       4.556   0.453  -0.508  0.00  0.00    +0.136 C 
BRANCH  24  25
ATOM     25  N   UNL     1       4.037  -0.668  -1.304  0.00  0.00    -0.294 NA
ATOM     26  C   UNL     1       4.660  -1.935  -0.898  0.00  0.00    +0.104 C 
ATOM     27  C   UNL     1       3.967  -3.096  -1.619  0.00  0.00    +0.124 C 
ATOM     28  N   UNL     1       3.988  -2.827  -3.065  0.00  0.00    -0.292 N 
ATOM     29  C   UNL     1       3.506  -1.520  -3.537  0.00  0.00    +0.087 C 
ATOM     30  C   UNL     1       4.218  -0.422  -2.740  0.00  0.00    +0.107 C 
ATOM     31  C   UNL     1       3.819  -1.365  -5.027  0.00  0.00    +0.029 C 
ATOM     32  C   UNL     1       4.438  -3.754  -3.934  0.00  0.00    +0.247 C 
ATOM     33  O   UNL     1       4.547  -3.479  -5.113  0.00  0.00    -0.270 OA
BRANCH  32  34
ATOM     34  C   UNL     1       4.799  -5.105  -3.453  0.00  0.00    +0.037 A 
ATOM     35  C   UNL     1       4.179  -5.634  -2.320  0.00  0.00    +0.013 A 
ATOM     36  C   UNL     1       4.520  -6.896  -1.877  0.00  0.00    +0.004 A 
ATOM     37  C   UNL     1       5.475  -7.635  -2.553  0.00  0.00    -0.050 A 
ATOM     38  C   UNL     1       6.094  -7.115  -3.676  0.00  0.00    +0.004 A 
ATOM     39  C   UNL     1       5.757  -5.858  -4.133  0.00  0.00    +0.013 A 
ATOM     40  C   UNL     1       5.842  -9.011  -2.062  0.00  0.00    +0.044 C 
ENDBRANCH  32  34
ENDBRANCH  24  25
ENDBRANCH   2  24
TORSDOF 9
