REMARK  Name = ZINC20806619
REMARK  10 active torsions:
REMARK  status: ('A' for Active; 'I' for Inactive)
REMARK    1  A    between atoms: C_1  and  C_2
REMARK    2  A    between atoms: C_3  and  C_28
REMARK    3  A    between atoms: C_4  and  C_19
REMARK    4  A    between atoms: C_5  and  C_9
REMARK    5  A    between atoms: C_6  and  C_8
REMARK    6  A    between atoms: N_11  and  C_12
REMARK    7  A    between atoms: C_12  and  C_13
REMARK    8  A    between atoms: C_22  and  N_25
REMARK    9  A    between atoms: N_30  and  C_31
REMARK   10  A    between atoms: C_31  and  C_32
REMARK                            x       y       z     vdW  Elec       q    Type
REMARK                         _______ _______ _______ _____ _____    ______ ____
ROOT
ATOM      1  C   UNL     1      -1.116  -1.040   0.024  0.00  0.00    +0.061 C 
ATOM      2  C   UNL     1       0.089  -0.134   0.004  0.00  0.00    +0.014 C 
ATOM      3  C   UNL     1      -0.083   1.198  -0.015  0.00  0.00    +0.043 C 
ATOM      4  C   UNL     1       1.088   2.138  -0.027  0.00  0.00    +0.092 C 
ATOM      5  C   UNL     1       2.349   1.415  -0.405  0.00  0.00    +0.043 C 
ATOM      6  C   UNL     1       2.424   0.074  -0.371  0.00  0.00    +0.014 C 
ATOM      7  N   UNL     1       1.345  -0.679   0.004  0.00  0.00    -0.321 N 
ATOM      8  C   UNL     1       3.713  -0.609  -0.751  0.00  0.00    +0.061 C 
ATOM      9  H   UNL     1       1.490  -1.727   0.308  0.00  0.00    +0.152 HD
ENDROOT
BRANCH   4  10
ATOM     10  C   UNL     1       1.255   2.741   1.344  0.00  0.00    -0.035 A 
ATOM     11  C   UNL     1       1.484   1.923   2.435  0.00  0.00    +0.007 A 
ATOM     12  C   UNL     1       1.641   2.476   3.692  0.00  0.00    +0.033 A 
ATOM     13  C   UNL     1       1.560   3.846   3.860  0.00  0.00    +0.126 A 
ATOM     14  C   UNL     1       1.326   4.663   2.770  0.00  0.00    +0.033 A 
ATOM     15  C   UNL     1       1.173   4.111   1.512  0.00  0.00    +0.007 A 
BRANCH  13  16
ATOM     16  N   UNL     1       1.723   4.437   5.207  0.00  0.00    +0.056 N 
ATOM     17  O   UNL     1       1.651   5.644   5.355  0.00  0.00    -0.126 OA
ATOM     18  O   UNL     1       1.929   3.717   6.168  0.00  0.00    -0.126 OA
ENDBRANCH  13  16
ENDBRANCH   4  10
BRANCH   5  19
ATOM     19  C   UNL     1       3.483   2.162  -0.806  0.00  0.00    +0.243 C 
ATOM     20  O   UNL     1       4.512   1.589  -1.116  0.00  0.00    -0.270 OA
ATOM     21  N   UNL     1       3.424   3.508  -0.845  0.00  0.00    -0.307 N 
ATOM     22  H   UNL     1       2.495   4.026  -0.566  0.00  0.00    +0.149 HD
BRANCH  21  23
ATOM     23  C   UNL     1       4.597   4.281  -1.260  0.00  0.00    +0.139 C 
BRANCH  23  24
ATOM     24  C   UNL     1       4.270   5.752  -1.218  0.00  0.00    -0.030 A 
ATOM     25  C   UNL     1       3.756   6.378  -2.337  0.00  0.00    +0.005 A 
ATOM     26  C   UNL     1       3.451   7.726  -2.297  0.00  0.00    +0.000 A 
ATOM     27  C   UNL     1       3.671   8.450  -1.140  0.00  0.00    +0.000 A 
ATOM     28  C   UNL     1       4.191   7.824  -0.022  0.00  0.00    +0.000 A 
ATOM     29  C   UNL     1       4.490   6.476  -0.061  0.00  0.00    +0.005 A 
ENDBRANCH  23  24
ENDBRANCH  21  23
ENDBRANCH   5  19
BRANCH   3  30
ATOM     30  C   UNL     1      -1.397   1.727  -0.030  0.00  0.00    +0.243 C 
ATOM     31  O   UNL     1      -2.353   0.979  -0.129  0.00  0.00    -0.270 OA
ATOM     32  N   UNL     1      -1.588   3.057   0.066  0.00  0.00    -0.307 N 
ATOM     33  H   UNL     1      -0.725   3.732   0.155  0.00  0.00    +0.149 HD
BRANCH  32  34
ATOM     34  C   UNL     1      -2.947   3.604   0.050  0.00  0.00    +0.139 C 
BRANCH  34  35
ATOM     35  C   UNL     1      -2.886   5.106   0.170  0.00  0.00    -0.030 A 
ATOM     36  C   UNL     1      -2.914   5.701   1.417  0.00  0.00    +0.005 A 
ATOM     37  C   UNL     1      -2.853   7.078   1.527  0.00  0.00    +0.000 A 
ATOM     38  C   UNL     1      -2.773   7.859   0.389  0.00  0.00    +0.000 A 
ATOM     39  C   UNL     1      -2.751   7.264  -0.858  0.00  0.00    +0.000 A 
ATOM     40  C   UNL     1      -2.807   5.887  -0.968  0.00  0.00    +0.005 A 
ENDBRANCH  34  35
ENDBRANCH  32  34
ENDBRANCH   3  30
TORSDOF 8
