REMARK  Name = ZINC09007487
REMARK  19 active torsions:
REMARK  status: ('A' for Active; 'I' for Inactive)
REMARK    1  A    between atoms: C_1  and  C_2
REMARK    2  A    between atoms: C_2  and  C_3
REMARK    3  A    between atoms: C_3  and  O_4
REMARK    4  A    between atoms: O_4  and  C_5
REMARK    5  A    between atoms: C_9  and  C_11
REMARK    6  A    between atoms: C_14  and  C_15
REMARK    7  A    between atoms: C_14  and  O_25
REMARK    8  A    between atoms: C_18  and  O_21
REMARK    9  A    between atoms: O_21  and  C_22
REMARK   10  A    between atoms: C_22  and  C_23
REMARK   11  A    between atoms: C_22  and  C_24
REMARK   12  A    between atoms: N_30  and  C_31
REMARK   13  A    between atoms: C_31  and  C_32
REMARK   14  A    between atoms: C_32  and  C_33
REMARK   15  A    between atoms: C_33  and  N_77
REMARK   16  A    between atoms: C_34  and  C_35
REMARK   17  A    between atoms: C_34  and  N_77
REMARK   18  A    between atoms: C_36  and  C_37
REMARK   19  A    between atoms: C_36  and  N_77
REMARK                            x       y       z     vdW  Elec       q    Type
REMARK                         _______ _______ _______ _____ _____    ______ ____
ROOT
ATOM      1  C   UNL     1       4.905  -0.105  -0.813  0.00  0.00    +0.145 C 
ATOM      2  C   UNL     1       6.291   0.422  -1.106  0.00  0.00    +0.071 C 
ATOM      3  C   UNL     1       7.437  -0.324  -1.306  0.00  0.00    +0.133 C 
ATOM      4  C   UNL     1       6.179   1.820  -1.135  0.00  0.00    +0.249 C 
ATOM      5  O   UNL     1       7.087   2.604  -1.342  0.00  0.00    -0.282 OA
ATOM      6  C   UNL     1       4.759   2.178  -0.873  0.00  0.00    +0.288 C 
ATOM      7  O   UNL     1       4.323   3.310  -0.834  0.00  0.00    -0.266 OA
ATOM      8  N   UNL     1       4.031   1.065  -0.682  0.00  0.00    -0.284 N 
ENDROOT
BRANCH   1  13
ATOM      9  C   UNL     1       4.906  -2.994   1.623  0.00  0.00    +0.121 A 
ATOM     10  C   UNL     1       4.925  -2.327   2.839  0.00  0.00    +0.045 A 
ATOM     11  C   UNL     1       4.937  -0.946   2.869  0.00  0.00    +0.004 A 
ATOM     12  C   UNL     1       4.935  -0.228   1.687  0.00  0.00    +0.006 A 
ATOM     13  C   UNL     1       4.912  -0.890   0.473  0.00  0.00    -0.019 A 
ATOM     14  C   UNL     1       4.900  -2.271   0.438  0.00  0.00    +0.051 A 
BRANCH   9  15
ATOM     15  O   UNL     1       4.895  -4.353   1.591  0.00  0.00    -0.492 OA
BRANCH  15  16
ATOM     16  C   UNL     1       4.902  -5.031   2.849  0.00  0.00    +0.229 C 
BRANCH  16  18
ATOM     17  C   UNL     1       4.896  -7.268   3.960  0.00  0.00    +0.007 C 
ATOM     18  C   UNL     1       4.888  -6.542   2.613  0.00  0.00    +0.038 C 
ENDBRANCH  16  18
ENDBRANCH  15  16
ENDBRANCH   9  15
ENDBRANCH   1  13
BRANCH   3  19
ATOM     19  C   UNL     1       8.679   0.337  -1.734  0.00  0.00    +0.017 A 
ATOM     20  C   UNL     1       8.672   1.197  -2.839  0.00  0.00    +0.015 A 
ATOM     21  C   UNL     1       9.835   1.819  -3.232  0.00  0.00    +0.046 A 
ATOM     22  C   UNL     1      11.020   1.584  -2.541  0.00  0.00    +0.121 A 
ATOM     23  C   UNL     1      11.033   0.726  -1.447  0.00  0.00    +0.046 A 
ATOM     24  C   UNL     1       9.874   0.104  -1.042  0.00  0.00    +0.015 A 
BRANCH  22  25
ATOM     25  O   UNL     1      12.165   2.194  -2.936  0.00  0.00    -0.489 OA
BRANCH  25  26
ATOM     26  C   UNL     1      12.100   2.992  -4.119  0.00  0.00    +0.167 C 
ATOM     27  C   UNL     1      11.608   4.396  -3.761  0.00  0.00    +0.051 C 
ATOM     28  C   UNL     1      13.492   3.085  -4.749  0.00  0.00    +0.051 C 
ENDBRANCH  25  26
ENDBRANCH  22  25
ENDBRANCH   3  19
BRANCH   3  29
ATOM     29  O   UNL     1       7.417  -1.659  -1.107  0.00  0.00    -0.506 OA
ATOM     30  H   UNL     1       8.323  -2.038  -1.296  0.00  0.00    +0.292 HD
ENDBRANCH   3  29
BRANCH   8  31
ATOM     31  C   UNL     1       2.595   1.026  -0.397  0.00  0.00    +0.107 C 
BRANCH  31  32
ATOM     32  C   UNL     1       2.374   1.064   1.117  0.00  0.00    +0.000 C 
BRANCH  32  33
ATOM     33  C   UNL     1       0.874   1.023   1.415  0.00  0.00    -0.077 C 
BRANCH  33  34
ATOM     34  N   UNL     1       0.680   1.060   2.879  0.00  0.00    +0.379 N 
ATOM     35  H   UNL     1       1.291   1.783   3.279  0.00  0.00    -0.082 HD
BRANCH  34  36
ATOM     36  C   UNL     1      -0.725   1.393   3.195  0.00  0.00    -0.082 C 
ATOM     37  C   UNL     1      -0.966   2.869   2.873  0.00  0.00    -0.017 C 
ENDBRANCH  34  36
BRANCH  34  38
ATOM     38  C   UNL     1       1.034  -0.248   3.469  0.00  0.00    -0.082 C 
ATOM     39  C   UNL     1       1.041  -0.116   4.994  0.00  0.00    -0.017 C 
ENDBRANCH  34  38
ENDBRANCH  33  34
ENDBRANCH  32  33
ENDBRANCH  31  32
ENDBRANCH   8  31
TORSDOF 14
