REMARK  Name = ZINC63974575
REMARK  8 active torsions:
REMARK  status: ('A' for Active; 'I' for Inactive)
REMARK    1  A    between atoms: C_1  and  C_2
REMARK    2  A    between atoms: C_2  and  O_3
REMARK    3  A    between atoms: O_3  and  C_4
REMARK    4  A    between atoms: N_6  and  C_7
REMARK    5  A    between atoms: C_7  and  C_9
REMARK    6  A    between atoms: C_7  and  C_19
REMARK    7  A    between atoms: C_9  and  C_10
REMARK    8  A    between atoms: N_21  and  C_22
REMARK                            x       y       z     vdW  Elec       q    Type
REMARK                         _______ _______ _______ _____ _____    ______ ____
ROOT
ATOM      1  C   UNL     1       1.508  -3.746  -2.603  0.00  0.00    +0.166 C 
ENDROOT
BRANCH   1   4
ATOM      2  C   UNL     1       0.778  -1.800  -1.332  0.00  0.00    +0.401 C 
ATOM      3  O   UNL     1       0.322  -2.554  -0.495  0.00  0.00    -0.226 OA
ATOM      4  N   UNL     1       1.392  -2.296  -2.424  0.00  0.00    -0.270 N 
ATOM      5  H   UNL     1       1.756  -1.694  -3.092  0.00  0.00    +0.153 HD
BRANCH   2   6
ATOM      6  O   UNL     1       0.671  -0.468  -1.167  0.00  0.00    -0.451 OA
BRANCH   6   8
ATOM      7  C   UNL     1      -0.016   1.519   0.026  0.00  0.00    +0.048 C 
ATOM      8  C   UNL     1       0.009  -0.011   0.014  0.00  0.00    +0.230 C 
ENDBRANCH   6   8
ENDBRANCH   2   6
ENDBRANCH   1   4
BRANCH   1   9
ATOM      9  C   UNL     1       0.132  -4.359  -2.648  0.00  0.00    +0.238 C 
ATOM     10  O   UNL     1      -0.816  -3.755  -2.192  0.00  0.00    -0.273 OA
ATOM     11  N   UNL     1      -0.045  -5.578  -3.195  0.00  0.00    -0.284 N 
ATOM     12  H   UNL     1       0.700  -6.032  -3.619  0.00  0.00    +0.155 HD
BRANCH  11  13
ATOM     13  C   UNL     1      -1.303  -6.188  -3.150  0.00  0.00    +0.033 A 
ATOM     14  C   UNL     1      -1.403  -7.565  -2.998  0.00  0.00    +0.023 A 
ATOM     15  C   UNL     1      -2.646  -8.165  -2.954  0.00  0.00    +0.002 A 
ATOM     16  C   UNL     1      -3.791  -7.396  -3.061  0.00  0.00    +0.000 A 
ATOM     17  C   UNL     1      -3.695  -6.025  -3.213  0.00  0.00    +0.002 A 
ATOM     18  C   UNL     1      -2.454  -5.418  -3.252  0.00  0.00    +0.023 A 
ENDBRANCH  11  13
ENDBRANCH   1   9
BRANCH   1  19
ATOM     19  C   UNL     1       2.295  -4.342  -1.434  0.00  0.00    +0.065 C 
BRANCH  19  20
ATOM     20  C   UNL     1       3.709  -3.822  -1.462  0.00  0.00    -0.039 C 
ATOM     21  C   UNL     1       4.200  -2.765  -0.776  0.00  0.00    -0.001 A 
ATOM     22  C   UNL     1       3.589  -1.820   0.165  0.00  0.00    +0.010 A 
ATOM     23  C   UNL     1       4.353  -0.842   0.703  0.00  0.00    +0.001 A 
ATOM     24  C   UNL     1       5.712  -0.709   0.384  0.00  0.00    +0.002 A 
ATOM     25  C   UNL     1       6.344  -1.540  -0.472  0.00  0.00    +0.026 A 
ATOM     26  C   UNL     1       5.637  -2.604  -1.096  0.00  0.00    +0.043 A 
ATOM     27  N   UNL     1       6.018  -3.525  -1.947  0.00  0.00    -0.380 N 
ATOM     28  C   UNL     1       4.867  -4.380  -2.259  0.00  0.00    +0.144 C 
ATOM     29  H   UNL     1       6.913  -3.627  -2.307  0.00  0.00    +0.160 HD
ENDBRANCH  19  20
ENDBRANCH   1  19
TORSDOF 7
