REMARK  Name = ZINC22704671
REMARK  10 active torsions:
REMARK  status: ('A' for Active; 'I' for Inactive)
REMARK    1  A    between atoms: C_1  and  C_2
REMARK    2  A    between atoms: C_3  and  C_14
REMARK    3  A    between atoms: C_4  and  C_13
REMARK    4  A    between atoms: N_5  and  C_7
REMARK    5  A    between atoms: N_15  and  N_16
REMARK    6  A    between atoms: C_17  and  C_19
REMARK    7  A    between atoms: C_19  and  C_37
REMARK    8  A    between atoms: C_22  and  C_27
REMARK    9  A    between atoms: C_24  and  C_25
REMARK   10  A    between atoms: C_24  and  C_26
REMARK                            x       y       z     vdW  Elec       q    Type
REMARK                         _______ _______ _______ _____ _____    ______ ____
ROOT
ATOM      1  N   UNL     1       0.015   2.173   0.537  0.00  0.00    -0.207 N 
ATOM      2  C   UNL     1       0.197   1.458  -0.591  0.00  0.00    +0.239 C 
ATOM      3  O   UNL     1       0.495   2.021  -1.624  0.00  0.00    -0.273 OA
ATOM      4  H   UNL     1      -0.251   1.663   1.475  0.00  0.00    +0.177 HD
ENDROOT
BRANCH   2   5
ATOM      5  C   UNL     1       0.037  -0.040  -0.567  0.00  0.00    +0.052 C 
ATOM      6  C   UNL     1       0.381  -0.643  -1.952  0.00  0.00    +0.017 C 
ATOM      7  C   UNL     1      -0.388  -1.988  -1.939  0.00  0.00    +0.013 C 
ATOM      8  C   UNL     1      -1.711  -1.660  -1.216  0.00  0.00    +0.062 C 
ATOM      9  C   UNL     1      -1.440  -0.422  -0.341  0.00  0.00    -0.012 C 
ATOM     10  C   UNL     1      -1.675  -0.757   1.133  0.00  0.00    +0.012 C 
ATOM     11  C   UNL     1      -2.351   0.731  -0.769  0.00  0.00    +0.012 C 
ATOM     12  C   UNL     1       0.921  -0.655   0.519  0.00  0.00    +0.021 C 
BRANCH   8  13
ATOM     13  C   UNL     1      -2.128  -2.821  -0.350  0.00  0.00    +0.112 A 
ATOM     14  N   UNL     1      -1.272  -3.654   0.301  0.00  0.00    -0.342 N 
ATOM     15  H   UNL     1      -0.185  -3.503   0.215  0.00  0.00    +0.167 HD
ATOM     16  C   UNL     1      -2.037  -4.579   0.982  0.00  0.00    +0.066 A 
ATOM     17  C   UNL     1      -1.744  -5.657   1.806  0.00  0.00    +0.028 A 
ATOM     18  C   UNL     1      -2.771  -6.404   2.344  0.00  0.00    +0.002 A 
ATOM     19  C   UNL     1      -4.093  -6.083   2.069  0.00  0.00    +0.002 A 
ATOM     20  C   UNL     1      -4.400  -5.026   1.260  0.00  0.00    +0.030 A 
ATOM     21  C   UNL     1      -3.376  -4.255   0.704  0.00  0.00    +0.089 A 
ATOM     22  N   UNL     1      -3.358  -3.169  -0.112  0.00  0.00    -0.232 NA
ENDBRANCH   8  13
ENDBRANCH   2   5
BRANCH   1  24
ATOM     23  C   UNL     1      -0.012   4.254   1.601  0.00  0.00    +0.142 C 
ATOM     24  N   UNL     1       0.163   3.566   0.515  0.00  0.00    -0.188 NA
BRANCH  23  27
ATOM     25  C   UNL     1       0.758   5.997  -0.933  0.00  0.00    +0.068 C 
ATOM     26  C   UNL     1       0.487   6.509   0.458  0.00  0.00    +0.069 A 
ATOM     27  C   UNL     1       0.144   5.721   1.578  0.00  0.00    +0.038 A 
ATOM     28  C   UNL     1      -0.011   6.577   2.648  0.00  0.00    +0.051 A 
ATOM     29  N   UNL     1       0.221   7.829   2.200  0.00  0.00    -0.236 N 
ATOM     30  N   UNL     1       0.524   7.759   0.835  0.00  0.00    -0.171 NA
ATOM     31  C   UNL     1      -0.372   6.186   4.058  0.00  0.00    +0.066 C 
BRANCH  29  32
ATOM     32  C   UNL     1       0.167   8.999   2.969  0.00  0.00    +0.066 A 
ATOM     33  C   UNL     1      -0.419  10.146   2.450  0.00  0.00    +0.028 A 
ATOM     34  C   UNL     1      -0.477  11.296   3.213  0.00  0.00    +0.002 A 
ATOM     35  C   UNL     1       0.059  11.309   4.488  0.00  0.00    +0.000 A 
ATOM     36  C   UNL     1       0.648  10.170   5.005  0.00  0.00    +0.002 A 
ATOM     37  C   UNL     1       0.703   9.015   4.250  0.00  0.00    +0.028 A 
ENDBRANCH  29  32
ENDBRANCH  23  27
ENDBRANCH   1  24
TORSDOF 5
