REMARK  Name = ZINC20912430
REMARK  9 active torsions:
REMARK  status: ('A' for Active; 'I' for Inactive)
REMARK    1  A    between atoms: C_1  and  C_2
REMARK    2  A    between atoms: C_6  and  C_32
REMARK    3  A    between atoms: C_7  and  N_8
REMARK    4  A    between atoms: C_9  and  C_11
REMARK    5  A    between atoms: C_11  and  S_12
REMARK    6  A    between atoms: S_12  and  C_13
REMARK    7  A    between atoms: N_17  and  N_18
REMARK    8  A    between atoms: N_19  and  N_20
REMARK    9  A    between atoms: C_21  and  C_22
REMARK                            x       y       z     vdW  Elec       q    Type
REMARK                         _______ _______ _______ _____ _____    ______ ____
ROOT
ATOM      1  C   UNL     1       1.049  -0.466  -2.120  0.00  0.00    +0.210 A 
ATOM      2  N   UNL     1       2.231   0.102  -2.082  0.00  0.00    -0.119 NA
ATOM      3  N   UNL     1       2.909  -0.232  -3.262  0.00  0.00    -0.109 NA
ATOM      4  C   UNL     1       2.118  -0.986  -3.985  0.00  0.00    +0.254 A 
ATOM      5  N   UNL     1       0.947  -1.150  -3.298  0.00  0.00    -0.211 N 
ATOM      6  N   UNL     1       2.415  -1.522  -5.229  0.00  0.00    -0.204 N 
ATOM      7  H   UNL     1       1.673  -2.144  -5.752  0.00  0.00    +0.177 HD
ENDROOT
BRANCH   5   8
ATOM      8  N   UNL     1      -0.135  -1.872  -3.716  0.00  0.00    -0.294 N 
ATOM      9  H   UNL     1      -0.111  -2.387  -4.688  0.00  0.00    +0.163 HD
ATOM     10  H   UNL     1      -1.030  -1.939  -3.081  0.00  0.00    +0.163 HD
ENDBRANCH   5   8
BRANCH   6  11
ATOM     11  N   UNL     1       3.660  -1.272  -5.820  0.00  0.00    -0.187 NA
ATOM     12  C   UNL     1       3.939  -1.775  -6.987  0.00  0.00    +0.139 C 
BRANCH  12  13
ATOM     13  C   UNL     1       5.246  -1.513  -7.607  0.00  0.00    +0.002 A 
ATOM     14  C   UNL     1       5.603  -2.131  -8.800  0.00  0.00    +0.010 A 
ATOM     15  C   UNL     1       6.834  -1.876  -9.386  0.00  0.00    +0.001 A 
ATOM     16  C   UNL     1       7.739  -1.031  -8.819  0.00  0.00    +0.008 A 
ATOM     17  C   UNL     1       7.448  -0.376  -7.611  0.00  0.00    -0.017 A 
ATOM     18  C   UNL     1       6.200  -0.600  -6.980  0.00  0.00    -0.009 A 
ATOM     19  C   UNL     1       5.907   0.052  -5.777  0.00  0.00    +0.009 A 
ATOM     20  C   UNL     1       6.825   0.895  -5.225  0.00  0.00    +0.001 A 
ATOM     21  C   UNL     1       8.053   1.118  -5.843  0.00  0.00    +0.001 A 
ATOM     22  C   UNL     1       8.371   0.500  -7.014  0.00  0.00    +0.008 A 
ENDBRANCH  12  13
ENDBRANCH   6  11
BRANCH   1  23
ATOM     23  S   UNL     1      -0.192  -0.359  -0.874  0.00  0.00    -0.075 S 
BRANCH  23  24
ATOM     24  C   UNL     1       0.663   0.685   0.332  0.00  0.00    +0.173 C 
BRANCH  24  26
ATOM     25  N   UNL     1       0.196   1.672   2.552  0.00  0.00    -0.284 N 
ATOM     26  C   UNL     1      -0.234   0.918   1.521  0.00  0.00    +0.228 C 
ATOM     27  O   UNL     1      -1.342   0.426   1.549  0.00  0.00    -0.275 OA
ATOM     28  H   UNL     1       1.179   2.163   2.502  0.00  0.00    +0.155 HD
BRANCH  25  35
ATOM     29  C   UNL     1      -2.267   3.070   2.268  0.00  0.00    +0.045 C 
ATOM     30  C   UNL     1      -1.819   2.506   3.592  0.00  0.00    -0.029 A 
ATOM     31  C   UNL     1      -2.613   2.656   4.712  0.00  0.00    +0.005 A 
ATOM     32  C   UNL     1      -2.200   2.143   5.928  0.00  0.00    +0.001 A 
ATOM     33  C   UNL     1      -0.993   1.475   6.026  0.00  0.00    +0.005 A 
ATOM     34  C   UNL     1      -0.197   1.317   4.908  0.00  0.00    -0.029 A 
ATOM     35  C   UNL     1      -0.609   1.830   3.686  0.00  0.00    +0.039 A 
ATOM     36  C   UNL     1       1.118   0.589   5.016  0.00  0.00    +0.045 C 
ENDBRANCH  25  35
ENDBRANCH  24  26
ENDBRANCH  23  24
ENDBRANCH   1  23
TORSDOF 7
