REMARK  Name = ZINC39684001
REMARK  7 active torsions:
REMARK  status: ('A' for Active; 'I' for Inactive)
REMARK    1  A    between atoms: C_1  and  C_2
REMARK    2  A    between atoms: C_2  and  C_4
REMARK    3  A    between atoms: C_2  and  N_8
REMARK    4  A    between atoms: N_6  and  C_7
REMARK    5  A    between atoms: C_9  and  C_11
REMARK    6  A    between atoms: C_22  and  C_24
REMARK    7  A    between atoms: C_27  and  C_29
REMARK                            x       y       z     vdW  Elec       q    Type
REMARK                         _______ _______ _______ _____ _____    ______ ____
ROOT
ATOM      1  C   UNL     1       2.736  -1.073  -2.455  0.00  0.00    +0.100 C 
ATOM      2  C   UNL     1       2.409  -2.561  -2.711  0.00  0.00    +0.121 C 
ATOM      3  N   UNL     1       3.675  -3.140  -3.221  0.00  0.00    -0.294 N 
ATOM      4  C   UNL     1       4.731  -2.493  -2.407  0.00  0.00    +0.115 C 
ATOM      5  C   UNL     1       4.261  -1.032  -2.254  0.00  0.00    -0.004 C 
ATOM      6  C   UNL     1       4.597  -0.513  -0.860  0.00  0.00    -0.010 C 
ATOM      7  C   UNL     1       6.118  -0.426  -0.705  0.00  0.00    -0.082 C 
ATOM      8  N   UNL     1       6.665   0.472  -1.728  0.00  0.00    +0.379 N 
ATOM      9  C   UNL     1       6.419  -0.082  -3.065  0.00  0.00    -0.082 C 
ATOM     10  C   UNL     1       4.910  -0.154  -3.320  0.00  0.00    -0.010 C 
ATOM     11  C   UNL     1       3.830  -4.049  -4.204  0.00  0.00    +0.282 C 
ATOM     12  O   UNL     1       4.945  -4.430  -4.510  0.00  0.00    -0.267 OA
ATOM     13  H   UNL     1       6.221   1.375  -1.653  0.00  0.00    -0.086 HD
ATOM     14  H   UNL     1       7.659   0.576  -1.587  0.00  0.00    -0.086 HD
ENDROOT
BRANCH  11  15
ATOM     15  C   UNL     1       2.657  -4.580  -4.904  0.00  0.00    +0.190 A 
ATOM     16  C   UNL     1       2.673  -5.512  -5.917  0.00  0.00    +0.055 A 
ATOM     17  C   UNL     1       1.342  -5.727  -6.289  0.00  0.00    +0.050 A 
ATOM     18  C   UNL     1       0.570  -4.926  -5.498  0.00  0.00    +0.136 A 
ATOM     19  O   UNL     1       1.372  -4.245  -4.663  0.00  0.00    -0.450 OA
BRANCH  18  20
ATOM     20  C   UNL     1      -0.903  -4.830  -5.547  0.00  0.00    +0.017 A 
ATOM     21  C   UNL     1      -1.626  -5.604  -6.457  0.00  0.00    +0.011 A 
ATOM     22  C   UNL     1      -3.002  -5.510  -6.497  0.00  0.00    +0.001 A 
ATOM     23  C   UNL     1      -3.665  -4.651  -5.638  0.00  0.00    +0.000 A 
ATOM     24  C   UNL     1      -2.954  -3.881  -4.734  0.00  0.00    +0.001 A 
ATOM     25  C   UNL     1      -1.579  -3.970  -4.679  0.00  0.00    +0.011 A 
ENDBRANCH  18  20
ENDBRANCH  11  15
BRANCH   1  27
ATOM     26  N   UNL     1       1.682   0.710  -1.103  0.00  0.00    -0.304 N 
ATOM     27  C   UNL     1       2.031  -0.587  -1.215  0.00  0.00    +0.219 C 
ATOM     28  O   UNL     1       1.778  -1.363  -0.318  0.00  0.00    -0.275 OA
ATOM     29  H   UNL     1       1.885   1.331  -1.820  0.00  0.00    +0.149 HD
BRANCH  26  31
ATOM     30  C   UNL     1       2.030   1.520   1.179  0.00  0.00    +0.038 C 
ATOM     31  C   UNL     1       0.996   1.182   0.102  0.00  0.00    +0.156 C 
BRANCH  31  32
ATOM     32  C   UNL     1       0.194   2.415  -0.227  0.00  0.00    +0.233 C 
ATOM     33  O   UNL     1       0.194   2.855  -1.357  0.00  0.00    -0.274 OA
ATOM     34  N   UNL     1      -0.525   3.027   0.735  0.00  0.00    -0.317 N 
ATOM     35  C   UNL     1      -1.305   4.225   0.415  0.00  0.00    +0.128 C 
ATOM     36  H   UNL     1      -0.526   2.675   1.639  0.00  0.00    +0.148 HD
ENDBRANCH  31  32
ENDBRANCH  26  31
ENDBRANCH   1  27
TORSDOF 5
