REMARK  Name = ZINC10042136
REMARK  11 active torsions:
REMARK  status: ('A' for Active; 'I' for Inactive)
REMARK    1  A    between atoms: C_1  and  C_2
REMARK    2  A    between atoms: C_2  and  C_3
REMARK    3  A    between atoms: C_2  and  C_4
REMARK    4  A    between atoms: C_4  and  C_6
REMARK    5  A    between atoms: C_4  and  N_22
REMARK    6  A    between atoms: N_8  and  N_9
REMARK    7  A    between atoms: C_10  and  C_11
REMARK    8  A    between atoms: C_16  and  O_17
REMARK    9  A    between atoms: O_17  and  C_18
REMARK   10  A    between atoms: C_18  and  C_19
REMARK   11  A    between atoms: C_23  and  C_25
REMARK                            x       y       z     vdW  Elec       q    Type
REMARK                         _______ _______ _______ _____ _____    ______ ____
ROOT
ATOM      1  C   UNL     1       2.252   3.724   1.016  0.00  0.00    +0.253 C 
ATOM      2  O   UNL     1       3.290   3.146   1.262  0.00  0.00    -0.272 OA
ATOM      3  N   UNL     1       1.212   3.047   0.491  0.00  0.00    -0.205 N 
ATOM      4  H   UNL     1       0.360   3.493   0.360  0.00  0.00    +0.177 HD
ENDROOT
BRANCH   3   5
ATOM      5  N   UNL     1       1.360   1.700   0.136  0.00  0.00    -0.188 NA
ATOM      6  C   UNL     1       0.404   1.085  -0.491  0.00  0.00    +0.142 C 
BRANCH   6   7
ATOM      7  C   UNL     1      -0.737   1.849  -1.026  0.00  0.00    +0.036 A 
ATOM      8  C   UNL     1      -0.583   3.195  -1.366  0.00  0.00    +0.013 A 
ATOM      9  C   UNL     1      -1.653   3.903  -1.871  0.00  0.00    +0.001 A 
ATOM     10  C   UNL     1      -2.883   3.288  -2.034  0.00  0.00    +0.004 A 
ATOM     11  C   UNL     1      -3.049   1.958  -1.696  0.00  0.00    +0.046 A 
ATOM     12  C   UNL     1      -1.984   1.231  -1.192  0.00  0.00    +0.130 A 
BRANCH  12  13
ATOM     13  O   UNL     1      -2.146  -0.076  -0.860  0.00  0.00    -0.482 OA
BRANCH  13  14
ATOM     14  C   UNL     1      -3.412  -0.668  -1.158  0.00  0.00    +0.324 C 
BRANCH  14  15
ATOM     15  C   UNL     1      -3.445  -2.077  -0.625  0.00  0.00    +0.248 C 
ATOM     16  O   UNL     1      -2.450  -2.562  -0.129  0.00  0.00    -0.272 OA
ATOM     17  N   UNL     1      -4.580  -2.800  -0.700  0.00  0.00    -0.327 N 
ATOM     18  H   UNL     1      -5.354  -2.440  -1.161  0.00  0.00    +0.145 HD
ATOM     19  H   UNL     1      -4.624  -3.679  -0.293  0.00  0.00    +0.145 HD
ENDBRANCH  14  15
ENDBRANCH  13  14
ENDBRANCH  12  13
ENDBRANCH   6   7
ENDBRANCH   3   5
BRANCH   1  20
ATOM     20  C   UNL     1       2.126   5.199   1.298  0.00  0.00    +0.163 C 
BRANCH  20  21
ATOM     21  N   UNL     1       3.462   5.783   1.448  0.00  0.00    -0.300 N 
ATOM     22  C   UNL     1       3.642   7.107   1.271  0.00  0.00    +0.245 C 
ATOM     23  O   UNL     1       2.684   7.830   1.078  0.00  0.00    -0.270 OA
ATOM     24  H   UNL     1       4.216   5.217   1.674  0.00  0.00    +0.150 HD
BRANCH  22  25
ATOM     25  C   UNL     1       5.003   7.680   1.312  0.00  0.00    +0.037 A 
ATOM     26  C   UNL     1       6.105   6.853   1.540  0.00  0.00    +0.014 A 
ATOM     27  C   UNL     1       7.374   7.392   1.570  0.00  0.00    +0.021 A 
ATOM     28  C   UNL     1       7.556   8.753   1.389  0.00  0.00    +0.041 A 
ATOM     29  C   UNL     1       6.466   9.579   1.169  0.00  0.00    +0.021 A 
ATOM     30  C   UNL     1       5.193   9.051   1.130  0.00  0.00    +0.014 A 
ATOM     31 CL   UNL     1       9.155   9.425   1.437  0.00  0.00    -0.084 Cl
ENDBRANCH  22  25
ENDBRANCH  20  21
BRANCH  20  33
ATOM     32  C   UNL     1      -0.074   4.825   2.421  0.00  0.00    +0.009 C 
ATOM     33  C   UNL     1       1.332   5.406   2.589  0.00  0.00    +0.012 C 
ATOM     34  C   UNL     1       2.042   4.698   3.744  0.00  0.00    +0.009 C 
ENDBRANCH  20  33
ENDBRANCH   1  20
TORSDOF 9
