REMARK  Name = ZINC20841043
REMARK  10 active torsions:
REMARK  status: ('A' for Active; 'I' for Inactive)
REMARK    1  A    between atoms: C_1  and  C_2
REMARK    2  A    between atoms: C_2  and  C_30
REMARK    3  A    between atoms: C_4  and  N_10
REMARK    4  A    between atoms: C_6  and  C_8
REMARK    5  A    between atoms: C_6  and  C_9
REMARK    6  A    between atoms: C_11  and  C_13
REMARK    7  A    between atoms: C_13  and  S_14
REMARK    8  A    between atoms: S_14  and  C_15
REMARK    9  A    between atoms: C_18  and  C_26
REMARK   10  A    between atoms: N_19  and  C_20
REMARK                            x       y       z     vdW  Elec       q    Type
REMARK                         _______ _______ _______ _____ _____    ______ ____
ROOT
ATOM      1  C   UNL     1       0.002  -0.004   0.002  0.00  0.00    +0.173 C 
ENDROOT
BRANCH   1   3
ATOM      2  N   UNL     1      -1.640  -1.854   0.008  0.00  0.00    -0.312 N 
ATOM      3  C   UNL     1      -1.412  -0.526   0.013  0.00  0.00    +0.224 C 
ATOM      4  O   UNL     1      -2.344   0.250   0.026  0.00  0.00    -0.275 OA
ATOM      5  H   UNL     1      -0.794  -2.557  -0.004  0.00  0.00    +0.149 HD
BRANCH   2   9
ATOM      6  C   UNL     1      -5.297  -3.641  -1.673  0.00  0.00    -0.010 C 
ATOM      7  C   UNL     1      -4.462  -4.323  -0.582  0.00  0.00    -0.072 C 
ATOM      8  C   UNL     1      -3.043  -3.760  -0.599  0.00  0.00    +0.009 C 
ATOM      9  C   UNL     1      -3.018  -2.362   0.018  0.00  0.00    +0.070 C 
ATOM     10  C   UNL     1      -3.507  -2.460   1.463  0.00  0.00    +0.009 C 
ATOM     11  C   UNL     1      -4.931  -3.008   1.506  0.00  0.00    -0.072 C 
ATOM     12  N   UNL     1      -5.100  -4.208   0.713  0.00  0.00    +0.386 N 
ATOM     13  C   UNL     1      -5.915  -1.915   1.072  0.00  0.00    -0.010 C 
ATOM     14  C   UNL     1      -5.252  -3.354   2.977  0.00  0.00    -0.010 C 
ATOM     15  C   UNL     1      -4.373  -5.822  -0.945  0.00  0.00    -0.010 C 
ATOM     16  H   UNL     1      -6.190  -4.294   0.594  0.00  0.00    -0.084 HD
ATOM     17  H   UNL     1      -4.738  -5.012   1.372  0.00  0.00    -0.084 HD
ENDBRANCH   2   9
ENDBRANCH   1   3
BRANCH   1  18
ATOM     18  S   UNL     1      -0.022   1.806   0.012  0.00  0.00    -0.076 S 
BRANCH  18  19
ATOM     19  C   UNL     1       1.708   2.135  -0.003  0.00  0.00    +0.197 A 
ATOM     20  N   UNL     1       2.673   1.245  -0.011  0.00  0.00    -0.122 NA
ATOM     21  N   UNL     1       3.814   1.835  -0.025  0.00  0.00    -0.124 NA
ATOM     22  C   UNL     1       3.651   3.128  -0.016  0.00  0.00    +0.243 A 
ATOM     23  N   UNL     1       2.302   3.368  -0.002  0.00  0.00    -0.267 N 
BRANCH  23  24
ATOM     24  C   UNL     1       1.663   4.616   0.012  0.00  0.00    +0.050 A 
ATOM     25  C   UNL     1       1.793   5.475  -1.071  0.00  0.00    +0.026 A 
ATOM     26  C   UNL     1       1.159   6.702  -1.057  0.00  0.00    +0.002 A 
ATOM     27  C   UNL     1       0.404   7.080   0.039  0.00  0.00    +0.000 A 
ATOM     28  C   UNL     1       0.278   6.228   1.121  0.00  0.00    +0.002 A 
ATOM     29  C   UNL     1       0.905   4.998   1.110  0.00  0.00    +0.026 A 
ENDBRANCH  23  24
BRANCH  22  30
ATOM     30  C   UNL     1       4.743   4.167  -0.021  0.00  0.00    +0.453 C 
ATOM     31  F   UNL     1       5.955   3.567  -0.377  0.00  0.00    -0.163 F 
ATOM     32  F   UNL     1       4.429   5.168  -0.946  0.00  0.00    -0.163 F 
ATOM     33  F   UNL     1       4.857   4.729   1.254  0.00  0.00    -0.163 F 
ENDBRANCH  22  30
ENDBRANCH  18  19
ENDBRANCH   1  18
TORSDOF 6
