REMARK  Name = ZINC34749926
REMARK  8 active torsions:
REMARK  status: ('A' for Active; 'I' for Inactive)
REMARK    1  A    between atoms: C_1  and  C_2
REMARK    2  A    between atoms: C_2  and  C_33
REMARK    3  A    between atoms: C_9  and  N_15
REMARK    4  A    between atoms: C_11  and  S_13
REMARK    5  A    between atoms: S_13  and  C_14
REMARK    6  A    between atoms: N_18  and  C_21
REMARK    7  A    between atoms: C_21  and  C_22
REMARK    8  A    between atoms: N_24  and  C_25
REMARK                            x       y       z     vdW  Elec       q    Type
REMARK                         _______ _______ _______ _____ _____    ______ ____
ROOT
ATOM      1  N   UNL     1      -4.264  -0.820  -0.642  0.00  0.00    -0.318 N 
ATOM      2  C   UNL     1      -2.891  -0.778  -1.169  0.00  0.00    +0.088 C 
ATOM      3  C   UNL     1      -2.609  -2.098  -1.895  0.00  0.00    -0.059 C 
ATOM      4  N   UNL     1      -3.643  -2.326  -2.913  0.00  0.00    +0.387 N 
ATOM      5  C   UNL     1      -4.950  -2.502  -2.267  0.00  0.00    -0.059 C 
ATOM      6  C   UNL     1      -5.347  -1.208  -1.559  0.00  0.00    +0.088 C 
ATOM      7  H   UNL     1      -3.680  -1.534  -3.536  0.00  0.00    -0.081 HD
ENDROOT
BRANCH   1  16
ATOM      8  C   UNL     1      -6.383   3.459  -1.716  0.00  0.00    +0.041 C 
ATOM      9  C   UNL     1      -4.856   3.384  -1.766  0.00  0.00    +0.068 C 
ATOM     10  C   UNL     1      -4.395   2.038  -1.199  0.00  0.00    +0.071 C 
ATOM     11  C   UNL     1      -4.667   2.037   0.304  0.00  0.00    -0.020 A 
ATOM     12  C   UNL     1      -4.878   3.213   0.941  0.00  0.00    +0.021 A 
ATOM     13  S   UNL     1      -5.149   2.781   2.639  0.00  0.00    -0.071 S 
ATOM     14  C   UNL     1      -4.981   1.030   2.496  0.00  0.00    +0.115 A 
ATOM     15  C   UNL     1      -4.716   0.835   1.116  0.00  0.00    +0.051 A 
ATOM     16  C   UNL     1      -4.528  -0.508   0.679  0.00  0.00    +0.134 A 
ATOM     17  N   UNL     1      -4.622  -1.446   1.619  0.00  0.00    -0.206 NA
ATOM     18  C   UNL     1      -4.874  -1.191   2.894  0.00  0.00    +0.191 A 
ATOM     19  N   UNL     1      -5.059   0.044   3.367  0.00  0.00    -0.215 NA
ATOM     20  C   UNL     1      -4.874   4.572   0.315  0.00  0.00    +0.203 C 
ATOM     21  O   UNL     1      -4.303   4.456  -0.997  0.00  0.00    -0.368 OA
ATOM     22  C   UNL     1      -4.389   3.507  -3.217  0.00  0.00    +0.041 C 
BRANCH  18  23
ATOM     23  S   UNL     1      -4.968  -2.544   4.019  0.00  0.00    -0.089 S 
ATOM     24  C   UNL     1      -5.320  -1.762   5.618  0.00  0.00    +0.093 C 
ENDBRANCH  18  23
ENDBRANCH   1  16
BRANCH   4  25
ATOM     25  C   UNL     1      -3.312  -3.534  -3.681  0.00  0.00    +0.019 C 
BRANCH  25  26
ATOM     26  C   UNL     1      -4.303  -3.702  -4.803  0.00  0.00    +0.197 C 
ATOM     27  O   UNL     1      -5.197  -2.896  -4.949  0.00  0.00    -0.278 OA
ATOM     28  N   UNL     1      -4.196  -4.749  -5.646  0.00  0.00    -0.314 N 
ATOM     29  H   UNL     1      -3.481  -5.394  -5.529  0.00  0.00    +0.149 HD
BRANCH  28  30
ATOM     30  C   UNL     1      -5.159  -4.913  -6.737  0.00  0.00    +0.073 C 
ATOM     31  C   UNL     1      -6.398  -5.645  -6.218  0.00  0.00    +0.022 C 
ATOM     32  C   UNL     1      -7.404  -5.816  -7.358  0.00  0.00    +0.002 C 
ATOM     33  C   UNL     1      -6.765  -6.631  -8.484  0.00  0.00    +0.000 C 
ATOM     34  C   UNL     1      -5.526  -5.898  -9.003  0.00  0.00    +0.002 C 
ATOM     35  C   UNL     1      -4.520  -5.727  -7.864  0.00  0.00    +0.022 C 
ENDBRANCH  28  30
ENDBRANCH  25  26
ENDBRANCH   4  25
TORSDOF 5
