REMARK  Name = ZINC63374956
REMARK  7 active torsions:
REMARK  status: ('A' for Active; 'I' for Inactive)
REMARK    1  A    between atoms: C_1  and  C_2
REMARK    2  A    between atoms: C_2  and  C_3
REMARK    3  A    between atoms: C_2  and  C_4
REMARK    4  A    between atoms: C_4  and  C_6
REMARK    5  A    between atoms: C_4  and  N_20
REMARK    6  A    between atoms: N_8  and  C_9
REMARK    7  A    between atoms: C_23  and  C_39
REMARK                            x       y       z     vdW  Elec       q    Type
REMARK                         _______ _______ _______ _____ _____    ______ ____
ROOT
ATOM      1  N   UNL     1      -1.798  -1.908   0.530  0.00  0.00    -0.212 N 
ATOM      2  C   UNL     1      -2.358  -2.266   1.704  0.00  0.00    +0.249 C 
ATOM      3  O   UNL     1      -2.636  -1.541   2.634  0.00  0.00    -0.273 OA
ATOM      4  C   UNL     1      -2.567  -3.761   1.616  0.00  0.00    +0.136 C 
ATOM      5  C   UNL     1      -1.812  -4.478   2.735  0.00  0.00    +0.139 C 
ATOM      6  C   UNL     1      -0.671  -5.251   2.091  0.00  0.00    -0.034 C 
ATOM      7  C   UNL     1       0.443  -4.839   2.691  0.00  0.00    -0.001 A 
ATOM      8  C   UNL     1       1.844  -5.263   2.546  0.00  0.00    +0.010 A 
ATOM      9  C   UNL     1       2.750  -4.611   3.322  0.00  0.00    +0.001 A 
ATOM     10  C   UNL     1       2.405  -3.592   4.217  0.00  0.00    +0.002 A 
ATOM     11  C   UNL     1       1.141  -3.143   4.418  0.00  0.00    +0.026 A 
ATOM     12  C   UNL     1       0.100  -3.755   3.660  0.00  0.00    +0.043 A 
ATOM     13  N   UNL     1      -1.196  -3.534   3.670  0.00  0.00    -0.375 N 
ATOM     14  C   UNL     1      -0.857  -6.219   0.948  0.00  0.00    +0.052 C 
ATOM     15  C   UNL     1      -1.674  -5.487  -0.135  0.00  0.00    +0.115 C 
ATOM     16  N   UNL     1      -1.923  -4.121   0.336  0.00  0.00    -0.269 N 
ATOM     17  C   UNL     1      -1.590  -2.969  -0.263  0.00  0.00    +0.313 C 
ATOM     18  O   UNL     1      -1.147  -2.895  -1.392  0.00  0.00    -0.252 OA
ATOM     19  C   UNL     1      -4.055  -4.117   1.613  0.00  0.00    +0.044 C 
ATOM     20  H   UNL     1      -1.666  -2.867   4.195  0.00  0.00    +0.160 HD
ENDROOT
BRANCH   1  21
ATOM     21  C   UNL     1      -1.464  -0.529   0.164  0.00  0.00    +0.174 C 
BRANCH  21  22
ATOM     22  C   UNL     1      -2.227  -0.140  -1.076  0.00  0.00    +0.235 C 
ATOM     23  O   UNL     1      -2.769  -0.992  -1.747  0.00  0.00    -0.274 OA
ATOM     24  N   UNL     1      -2.307   1.156  -1.438  0.00  0.00    -0.307 N 
ATOM     25  H   UNL     1      -1.911   1.842  -0.878  0.00  0.00    +0.149 HD
BRANCH  24  26
ATOM     26  C   UNL     1      -2.993   1.528  -2.678  0.00  0.00    +0.103 C 
ATOM     27  C   UNL     1      -2.431   2.856  -3.185  0.00  0.00    +0.027 C 
ATOM     28  C   UNL     1      -3.302   3.335  -4.352  0.00  0.00    +0.007 C 
ATOM     29  C   UNL     1      -4.662   3.754  -3.797  0.00  0.00    +0.035 C 
ATOM     30  C   UNL     1      -5.238   2.665  -2.930  0.00  0.00    -0.042 A 
ATOM     31  C   UNL     1      -4.471   1.646  -2.413  0.00  0.00    -0.024 A 
ATOM     32  C   UNL     1      -5.063   0.677  -1.614  0.00  0.00    +0.006 A 
ATOM     33  C   UNL     1      -6.414   0.727  -1.337  0.00  0.00    +0.000 A 
ATOM     34  C   UNL     1      -7.185   1.748  -1.860  0.00  0.00    +0.000 A 
ATOM     35  C   UNL     1      -6.598   2.711  -2.652  0.00  0.00    +0.004 A 
ENDBRANCH  24  26
ENDBRANCH  21  22
BRANCH  21  37
ATOM     36  C   UNL     1       0.409   1.039  -0.362  0.00  0.00    +0.009 C 
ATOM     37  C   UNL     1       0.038  -0.424  -0.108  0.00  0.00    +0.013 C 
ATOM     38  C   UNL     1       0.814  -0.943   1.104  0.00  0.00    +0.009 C 
ENDBRANCH  21  37
ENDBRANCH   1  21
TORSDOF 4
