REMARK  Name = ZINC34678358
REMARK  8 active torsions:
REMARK  status: ('A' for Active; 'I' for Inactive)
REMARK    1  A    between atoms: C_4  and  C_7
REMARK    2  A    between atoms: C_7  and  N_8
REMARK    3  A    between atoms: C_14  and  C_16
REMARK    4  A    between atoms: C_19  and  C_21
REMARK    5  A    between atoms: C_21  and  N_22
REMARK    6  A    between atoms: N_25  and  C_28
REMARK    7  A    between atoms: C_28  and  C_29
REMARK    8  A    between atoms: C_32  and  C_35
REMARK                            x       y       z     vdW  Elec       q    Type
REMARK                         _______ _______ _______ _____ _____    ______ ____
ROOT
ATOM      1  C   UNL     1       6.878  -3.755   4.358  0.00  0.00    +0.164 A 
ATOM      2  C   UNL     1       7.414  -4.829   5.001  0.00  0.00    +0.230 A 
ATOM      3  O   UNL     1       8.727  -4.835   4.725  0.00  0.00    -0.449 OA
ATOM      4  C   UNL     1       8.994  -3.788   3.931  0.00  0.00    +0.179 A 
ATOM      5  N   UNL     1       7.894  -3.136   3.699  0.00  0.00    -0.210 NA
ENDROOT
BRANCH   1  12
ATOM      6  N   UNL     1       4.119  -1.018   1.306  0.00  0.00    -0.295 NA
ATOM      7  C   UNL     1       3.209  -1.911   2.036  0.00  0.00    +0.103 C 
ATOM      8  C   UNL     1       3.625  -1.966   3.510  0.00  0.00    +0.123 C 
ATOM      9  N   UNL     1       5.048  -2.334   3.580  0.00  0.00    -0.294 N 
ATOM     10  C   UNL     1       6.005  -1.569   2.767  0.00  0.00    +0.123 C 
ATOM     11  C   UNL     1       5.495  -1.531   1.322  0.00  0.00    +0.103 C 
ATOM     12  C   UNL     1       5.462  -3.345   4.369  0.00  0.00    +0.268 C 
ATOM     13  O   UNL     1       4.668  -3.918   5.090  0.00  0.00    -0.268 OA
BRANCH   6  14
ATOM     14  C   UNL     1       3.653  -0.803  -0.070  0.00  0.00    +0.119 C 
BRANCH  14  18
ATOM     15  C   UNL     1      -0.053   1.320  -0.007  0.00  0.00    +0.000 A 
ATOM     16  C   UNL     1       1.141   2.015  -0.055  0.00  0.00    +0.000 A 
ATOM     17  C   UNL     1       2.340   1.328  -0.075  0.00  0.00    +0.005 A 
ATOM     18  C   UNL     1       2.346  -0.054  -0.047  0.00  0.00    -0.033 A 
ATOM     19  C   UNL     1       1.152  -0.749   0.001  0.00  0.00    +0.005 A 
ATOM     20  C   UNL     1      -0.048  -0.062   0.020  0.00  0.00    +0.000 A 
ENDBRANCH  14  18
ENDBRANCH   6  14
ENDBRANCH   1  12
BRANCH   4  21
ATOM     21  C   UNL     1      10.353  -3.428   3.389  0.00  0.00    +0.019 C 
BRANCH  21  22
ATOM     22  N   UNL     1      11.031  -2.525   4.328  0.00  0.00    +0.387 N 
ATOM     23  C   UNL     1      10.294  -1.257   4.407  0.00  0.00    -0.063 C 
ATOM     24  C   UNL     1      10.990  -0.323   5.399  0.00  0.00    +0.066 C 
ATOM     25  N   UNL     1      12.370  -0.081   4.954  0.00  0.00    -0.302 NA
ATOM     26  C   UNL     1      13.113  -1.344   4.847  0.00  0.00    +0.066 C 
ATOM     27  C   UNL     1      12.400  -2.270   3.859  0.00  0.00    -0.063 C 
ATOM     28  H   UNL     1      11.063  -2.952   5.241  0.00  0.00    -0.081 HD
BRANCH  25  29
ATOM     29  C   UNL     1      13.055   0.859   5.852  0.00  0.00    +0.119 C 
BRANCH  29  30
ATOM     30  C   UNL     1      14.368   1.272   5.239  0.00  0.00    -0.033 A 
ATOM     31  C   UNL     1      15.513   0.542   5.498  0.00  0.00    +0.005 A 
ATOM     32  C   UNL     1      16.717   0.921   4.936  0.00  0.00    +0.012 A 
ATOM     33  C   UNL     1      16.777   2.031   4.115  0.00  0.00    +0.055 A 
ATOM     34  C   UNL     1      15.632   2.762   3.855  0.00  0.00    +0.012 A 
ATOM     35  C   UNL     1      14.427   2.380   4.414  0.00  0.00    +0.005 A 
BRANCH  33  36
ATOM     36  C   UNL     1      18.090   2.446   3.502  0.00  0.00    +0.417 C 
ATOM     37  F   UNL     1      18.248   1.812   2.265  0.00  0.00    -0.166 F 
ATOM     38  F   UNL     1      18.103   3.833   3.321  0.00  0.00    -0.166 F 
ATOM     39  F   UNL     1      19.138   2.078   4.353  0.00  0.00    -0.166 F 
ENDBRANCH  33  36
ENDBRANCH  29  30
ENDBRANCH  25  29
ENDBRANCH  21  22
ENDBRANCH   4  21
TORSDOF 8
