REMARK  Name = ZINC09668195
REMARK  13 active torsions:
REMARK  status: ('A' for Active; 'I' for Inactive)
REMARK    1  A    between atoms: C_1  and  C_2
REMARK    2  A    between atoms: C_2  and  C_3
REMARK    3  A    between atoms: C_3  and  C_5
REMARK    4  A    between atoms: C_3  and  C_6
REMARK    5  A    between atoms: C_6  and  C_8
REMARK    6  A    between atoms: C_6  and  N_23
REMARK    7  A    between atoms: N_10  and  C_11
REMARK    8  A    between atoms: C_11  and  C_12
REMARK    9  A    between atoms: C_12  and  C_13
REMARK   10  A    between atoms: C_16  and  S_19
REMARK   11  A    between atoms: S_19  and  N_22
REMARK   12  A    between atoms: C_24  and  C_26
REMARK   13  A    between atoms: C_29  and  C_32
REMARK                            x       y       z     vdW  Elec       q    Type
REMARK                         _______ _______ _______ _____ _____    ______ ____
ROOT
ATOM      1  C   UNL     1      -0.833  -2.453   1.464  0.00  0.00    +0.234 C 
ATOM      2  O   UNL     1       0.168  -3.135   1.512  0.00  0.00    -0.274 OA
ATOM      3  N   UNL     1      -1.427  -2.046   2.604  0.00  0.00    -0.313 N 
ATOM      4  H   UNL     1      -2.228  -1.500   2.565  0.00  0.00    +0.149 HD
ENDROOT
BRANCH   1   5
ATOM      5  C   UNL     1      -1.413  -2.059   0.130  0.00  0.00    +0.162 C 
BRANCH   5   6
ATOM      6  N   UNL     1      -0.592  -2.621  -0.945  0.00  0.00    -0.304 N 
ATOM      7  C   UNL     1      -1.133  -2.850  -2.157  0.00  0.00    +0.217 C 
ATOM      8  O   UNL     1      -2.301  -2.592  -2.359  0.00  0.00    -0.275 OA
ATOM      9  H   UNL     1       0.342  -2.828  -0.784  0.00  0.00    +0.149 HD
BRANCH   7  10
ATOM     10  C   UNL     1      -0.288  -3.428  -3.263  0.00  0.00    +0.075 C 
ATOM     11  C   UNL     1       0.884  -2.488  -3.554  0.00  0.00    +0.013 C 
ATOM     12  C   UNL     1       1.742  -3.075  -4.676  0.00  0.00    +0.004 C 
ATOM     13  C   UNL     1       0.892  -3.235  -5.938  0.00  0.00    -0.014 C 
ATOM     14  C   UNL     1      -0.280  -4.175  -5.647  0.00  0.00    +0.004 C 
ATOM     15  C   UNL     1      -1.138  -3.588  -4.525  0.00  0.00    +0.013 C 
ATOM     16  C   UNL     1       1.750  -3.821  -7.060  0.00  0.00    +0.007 C 
ENDBRANCH   7  10
ENDBRANCH   5   6
BRANCH   5  17
ATOM     17  C   UNL     1      -1.433  -0.534   0.013  0.00  0.00    +0.015 C 
ATOM     18  C   UNL     1      -2.135  -0.131  -1.286  0.00  0.00    +0.010 C 
BRANCH  17  20
ATOM     19  C   UNL     1      -0.019   1.526   0.010  0.00  0.00    +0.004 C 
ATOM     20  C   UNL     1       0.002  -0.004   0.002  0.00  0.00    +0.002 C 
ENDBRANCH  17  20
ENDBRANCH   5  17
ENDBRANCH   1   5
BRANCH   3  21
ATOM     21  C   UNL     1      -0.863  -2.429   3.901  0.00  0.00    +0.109 C 
BRANCH  21  22
ATOM     22  C   UNL     1      -1.721  -1.842   5.023  0.00  0.00    +0.054 C 
BRANCH  22  23
ATOM     23  C   UNL     1      -1.141  -2.236   6.357  0.00  0.00    -0.046 A 
ATOM     24  C   UNL     1      -1.545  -3.408   6.968  0.00  0.00    +0.005 A 
ATOM     25  C   UNL     1      -1.012  -3.769   8.191  0.00  0.00    +0.029 A 
ATOM     26  C   UNL     1      -0.076  -2.958   8.804  0.00  0.00    +0.105 A 
ATOM     27  C   UNL     1       0.329  -1.786   8.193  0.00  0.00    +0.029 A 
ATOM     28  C   UNL     1      -0.200  -1.427   6.967  0.00  0.00    +0.005 A 
BRANCH  26  29
ATOM     29  S   UNL     1       0.602  -3.418  10.364  0.00  0.00    +0.056 S 
ATOM     30  O   UNL     1       1.052  -2.219  10.981  0.00  0.00    -0.153 OA
ATOM     31  O   UNL     1      -0.344  -4.282  10.979  0.00  0.00    -0.153 OA
BRANCH  29  32
ATOM     32  N   UNL     1       1.951  -4.330  10.063  0.00  0.00    -0.204 NA
ATOM     33  H   UNL     1       2.219  -4.511   9.148  0.00  0.00    +0.144 HD
ATOM     34  H   UNL     1       2.472  -4.683  10.800  0.00  0.00    +0.144 HD
ENDBRANCH  29  32
ENDBRANCH  26  29
ENDBRANCH  22  23
ENDBRANCH  21  22
ENDBRANCH   3  21
TORSDOF 10
