REMARK  Name = ZINC33129372
REMARK  9 active torsions:
REMARK  status: ('A' for Active; 'I' for Inactive)
REMARK    1  A    between atoms: C_1  and  C_2
REMARK    2  A    between atoms: C_5  and  C_34
REMARK    3  A    between atoms: C_6  and  N_8
REMARK    4  A    between atoms: C_9  and  C_11
REMARK    5  A    between atoms: C_11  and  N_12
REMARK    6  A    between atoms: C_14  and  C_21
REMARK    7  A    between atoms: C_24  and  C_26
REMARK    8  A    between atoms: C_26  and  N_27
REMARK    9  A    between atoms: C_30  and  C_33
REMARK                            x       y       z     vdW  Elec       q    Type
REMARK                         _______ _______ _______ _____ _____    ______ ____
ROOT
ATOM      1  N   UNL     1       3.341   7.432  -0.301  0.00  0.00    -0.337 N 
ATOM      2  C   UNL     1       3.231   8.136  -1.463  0.00  0.00    +0.100 A 
ATOM      3  C   UNL     1       2.955   9.438  -1.187  0.00  0.00    +0.064 A 
ATOM      4  C   UNL     1       2.898   9.553   0.281  0.00  0.00    +0.012 A 
ATOM      5  C   UNL     1       3.147   8.264   0.781  0.00  0.00    +0.050 A 
ATOM      6  C   UNL     1       3.158   8.056   2.156  0.00  0.00    +0.026 A 
ATOM      7  C   UNL     1       2.926   9.110   3.013  0.00  0.00    +0.002 A 
ATOM      8  C   UNL     1       2.680  10.383   2.518  0.00  0.00    +0.001 A 
ATOM      9  C   UNL     1       2.665  10.610   1.159  0.00  0.00    +0.011 A 
ENDROOT
BRANCH   3  10
ATOM     10  C   UNL     1       2.759  10.524  -2.165  0.00  0.00    +0.250 A 
ATOM     11  N   UNL     1       2.492  11.781  -1.891  0.00  0.00    -0.107 NA
ATOM     12  N   UNL     1       2.390  12.442  -2.990  0.00  0.00    -0.114 NA
ATOM     13  C   UNL     1       2.575  11.641  -4.000  0.00  0.00    +0.202 A 
ATOM     14  O   UNL     1       2.812  10.411  -3.507  0.00  0.00    -0.422 OA
BRANCH  13  15
ATOM     15  C   UNL     1       2.533  12.022  -5.458  0.00  0.00    +0.021 C 
BRANCH  15  16
ATOM     16  N   UNL     1       3.876  12.420  -5.899  0.00  0.00    +0.386 N 
ATOM     17  C   UNL     1       4.889  11.467  -5.428  0.00  0.00    -0.078 C 
ATOM     18  C   UNL     1       6.284  11.988  -5.780  0.00  0.00    -0.016 C 
ATOM     19  C   UNL     1       6.390  12.165  -7.297  0.00  0.00    -0.018 C 
ATOM     20  C   UNL     1       5.293  13.124  -7.769  0.00  0.00    -0.016 C 
ATOM     21  C   UNL     1       3.927  12.570  -7.359  0.00  0.00    -0.078 C 
ATOM     22  C   UNL     1       7.762  12.743  -7.650  0.00  0.00    +0.007 C 
ATOM     23  H   UNL     1       4.104  13.400  -5.453  0.00  0.00    -0.081 HD
ENDBRANCH  15  16
ENDBRANCH  13  15
ENDBRANCH   3  10
BRANCH   1  24
ATOM     24  C   UNL     1       3.629   5.998  -0.215  0.00  0.00    +0.217 C 
BRANCH  24  26
ATOM     25  N   UNL     1       2.356   3.889   0.001  0.00  0.00    -0.284 N 
ATOM     26  C   UNL     1       2.336   5.233  -0.093  0.00  0.00    +0.237 C 
ATOM     27  O   UNL     1       1.279   5.827  -0.081  0.00  0.00    -0.274 OA
ATOM     28  H   UNL     1       3.315   3.357   0.081  0.00  0.00    +0.155 HD
BRANCH  25  34
ATOM     29  C   UNL     1      -2.390   3.583  -1.245  0.00  0.00    +0.044 C 
ATOM     30  C   UNL     1      -1.161   2.998  -0.600  0.00  0.00    -0.049 A 
ATOM     31  C   UNL     1      -1.217   1.746  -0.015  0.00  0.00    +0.004 A 
ATOM     32  C   UNL     1      -0.093   1.208   0.583  0.00  0.00    +0.005 A 
ATOM     33  C   UNL     1       1.094   1.915   0.589  0.00  0.00    -0.029 A 
ATOM     34  C   UNL     1       1.155   3.170  -0.003  0.00  0.00    +0.037 A 
ATOM     35  C   UNL     1       0.022   3.710  -0.598  0.00  0.00    +0.027 A 
ATOM     36  C   UNL     1       2.321   1.325   1.235  0.00  0.00    +0.045 C 
ENDBRANCH  25  34
ENDBRANCH  24  26
ENDBRANCH   1  24
TORSDOF 6
