REMARK  Name = ZINC14250918
REMARK  5 active torsions:
REMARK  status: ('A' for Active; 'I' for Inactive)
REMARK    1  A    between atoms: C_1  and  C_2
REMARK    2  A    between atoms: C_3  and  C_13
REMARK    3  A    between atoms: C_4  and  C_12
REMARK    4  A    between atoms: C_13  and  C_14
REMARK    5  A    between atoms: C_19  and  C_22
REMARK                            x       y       z     vdW  Elec       q    Type
REMARK                         _______ _______ _______ _____ _____    ______ ____
ROOT
ATOM      1  C   UNL     1       4.150   4.855  -1.431  0.00  0.00    +0.223 C 
ATOM      2  O   UNL     1       3.787   4.157  -2.353  0.00  0.00    -0.275 OA
ATOM      3  N   UNL     1       4.745   6.040  -1.675  0.00  0.00    -0.264 N 
ATOM      4  C   UNL     1       4.942   6.461  -2.985  0.00  0.00    +0.165 A 
ATOM      5  N   UNL     1       5.493   7.576  -3.423  0.00  0.00    -0.229 NA
ATOM      6  C   UNL     1       5.608   7.821  -4.714  0.00  0.00    +0.057 A 
ATOM      7  C   UNL     1       5.133   6.902  -5.590  0.00  0.00    +0.072 A 
ATOM      8  S   UNL     1       4.518   5.658  -4.465  0.00  0.00    -0.060 S 
ATOM      9  H   UNL     1       5.036   6.598  -0.938  0.00  0.00    +0.157 HD
ENDROOT
BRANCH   6  10
ATOM     10  C   UNL     1       6.246   9.096  -5.203  0.00  0.00    +0.014 C 
ATOM     11  C   UNL     1       5.392   9.696  -6.322  0.00  0.00    +0.016 C 
ATOM     12  C   UNL     1       6.040  10.990  -6.819  0.00  0.00    -0.010 C 
ATOM     13  C   UNL     1       6.140  11.987  -5.663  0.00  0.00    +0.007 C 
ATOM     14  C   UNL     1       6.993  11.387  -4.544  0.00  0.00    -0.010 C 
ATOM     15  C   UNL     1       6.345  10.093  -4.047  0.00  0.00    +0.016 C 
ATOM     16  C   UNL     1       8.394  11.083  -5.078  0.00  0.00    +0.007 C 
ATOM     17  C   UNL     1       8.295  10.086  -6.234  0.00  0.00    -0.010 C 
ATOM     18  C   UNL     1       7.441  10.687  -7.353  0.00  0.00    +0.007 C 
ATOM     19  C   UNL     1       7.647   8.792  -5.737  0.00  0.00    +0.016 C 
ENDBRANCH   6  10
BRANCH   1  20
ATOM     20  C   UNL     1       3.937   4.399  -0.011  0.00  0.00    +0.134 C 
BRANCH  20  23
ATOM     21  C   UNL     1       5.521   1.956  -0.040  0.00  0.00    +0.066 C 
ATOM     22  C   UNL     1       4.017   1.877  -0.026  0.00  0.00    +0.047 A 
ATOM     23  C   UNL     1       3.258   3.053  -0.012  0.00  0.00    +0.004 A 
ATOM     24  C   UNL     1       1.902   2.968   0.000  0.00  0.00    +0.049 A 
ATOM     25  N   UNL     1       1.318   1.741  -0.001  0.00  0.00    -0.199 N 
ATOM     26  C   UNL     1       2.088   0.612  -0.015  0.00  0.00    +0.255 A 
ATOM     27  N   UNL     1       3.422   0.705  -0.027  0.00  0.00    -0.216 NA
ATOM     28  N   UNL     1       1.263  -0.430  -0.012  0.00  0.00    -0.176 NA
ATOM     29  C   UNL     1       0.002  -0.004   0.002  0.00  0.00    +0.234 A 
ATOM     30  N   UNL     1      -0.016   1.313   0.009  0.00  0.00    -0.128 NA
ATOM     31  N   UNL     1      -1.123  -0.824   0.008  0.00  0.00    -0.326 N 
ATOM     32  C   UNL     1       1.058   4.216   0.015  0.00  0.00    +0.066 C 
ATOM     33  H   UNL     1      -2.010  -0.430   0.018  0.00  0.00    +0.145 HD
ATOM     34  H   UNL     1      -1.021  -1.788   0.002  0.00  0.00    +0.145 HD
ENDBRANCH  20  23
ENDBRANCH   1  20
TORSDOF 3
