REMARK  Name = ZINC22373723
REMARK  11 active torsions:
REMARK  status: ('A' for Active; 'I' for Inactive)
REMARK    1  A    between atoms: C_1  and  C_2
REMARK    2  A    between atoms: C_2  and  C_3
REMARK    3  A    between atoms: N_9  and  C_10
REMARK    4  A    between atoms: C_10  and  C_11
REMARK    5  A    between atoms: C_11  and  C_12
REMARK    6  A    between atoms: C_12  and  N_13
REMARK    7  A    between atoms: C_14  and  C_16
REMARK    8  A    between atoms: C_16  and  N_17
REMARK    9  A    between atoms: N_17  and  C_18
REMARK   10  A    between atoms: N_17  and  S_26
REMARK   11  A    between atoms: S_26  and  C_29
REMARK                            x       y       z     vdW  Elec       q    Type
REMARK                         _______ _______ _______ _____ _____    ______ ____
ROOT
ATOM      1  N   UNL     1      -8.888   1.608   5.635  0.00  0.00    -0.194 N 
ENDROOT
BRANCH   1   2
ATOM      2  C   UNL     1      -9.384   0.331   5.913  0.00  0.00    +0.053 A 
ATOM      3  C   UNL     1      -8.681  -0.520   6.755  0.00  0.00    +0.027 A 
ATOM      4  C   UNL     1      -9.173  -1.782   7.029  0.00  0.00    +0.042 A 
ATOM      5  C   UNL     1     -10.367  -2.198   6.466  0.00  0.00    +0.142 A 
ATOM      6  C   UNL     1     -11.071  -1.351   5.625  0.00  0.00    +0.078 A 
ATOM      7  C   UNL     1     -10.585  -0.086   5.353  0.00  0.00    +0.047 A 
ATOM      8 CL   UNL     1     -12.568  -1.876   4.920  0.00  0.00    -0.081 Cl
ATOM      9  F   UNL     1     -10.846  -3.432   6.736  0.00  0.00    -0.204 F 
ENDBRANCH   1   2
BRANCH   1  10
ATOM     10  S   UNL     1      -9.896   2.920   5.697  0.00  0.00    +0.075 S 
ATOM     11  O   UNL     1     -11.037   2.521   6.444  0.00  0.00    -0.150 OA
ATOM     12  O   UNL     1      -9.093   4.032   6.069  0.00  0.00    -0.150 OA
BRANCH  10  13
ATOM     13  C   UNL     1     -10.452   3.228   4.054  0.00  0.00    +0.109 A 
ATOM     14  C   UNL     1      -9.682   3.990   3.195  0.00  0.00    +0.029 A 
ATOM     15  C   UNL     1     -10.116   4.227   1.904  0.00  0.00    +0.002 A 
ATOM     16  C   UNL     1     -11.326   3.713   1.476  0.00  0.00    +0.000 A 
ATOM     17  C   UNL     1     -12.099   2.956   2.337  0.00  0.00    +0.002 A 
ATOM     18  C   UNL     1     -11.662   2.714   3.626  0.00  0.00    +0.029 A 
ENDBRANCH  10  13
ENDBRANCH   1  10
BRANCH   1  19
ATOM     19  C   UNL     1      -7.476   1.785   5.287  0.00  0.00    +0.227 C 
BRANCH  19  21
ATOM     20  N   UNL     1      -6.062   1.656   3.262  0.00  0.00    -0.314 N 
ATOM     21  C   UNL     1      -7.288   1.547   3.811  0.00  0.00    +0.232 C 
ATOM     22  O   UNL     1      -8.240   1.259   3.117  0.00  0.00    -0.274 OA
ATOM     23  H   UNL     1      -5.198   1.918   3.891  0.00  0.00    +0.149 HD
BRANCH  20  24
ATOM     24  C   UNL     1      -5.879   1.425   1.827  0.00  0.00    +0.102 C 
BRANCH  24  25
ATOM     25  C   UNL     1      -4.404   1.610   1.464  0.00  0.00    +0.000 C 
BRANCH  25  26
ATOM     26  C   UNL     1      -4.214   1.369  -0.035  0.00  0.00    -0.077 C 
BRANCH  26  32
ATOM     27  C   UNL     1      -2.559   1.226  -1.797  0.00  0.00    -0.069 C 
ATOM     28  C   UNL     1      -1.110   1.560  -2.159  0.00  0.00    -0.015 C 
ATOM     29  C   UNL     1      -0.166   0.750  -1.267  0.00  0.00    -0.003 C 
ATOM     30  C   UNL     1      -0.468   1.065   0.201  0.00  0.00    -0.019 C 
ATOM     31  C   UNL     1      -1.935   0.745   0.495  0.00  0.00    -0.078 C 
ATOM     32  N   UNL     1      -2.798   1.546  -0.383  0.00  0.00    +0.382 N 
ATOM     33  H   UNL     1      -2.540   2.605  -0.231  0.00  0.00    -0.081 HD
BRANCH  27  35
ATOM     34  C   UNL     1      -3.264   1.710  -4.144  0.00  0.00    +0.002 C 
ATOM     35  C   UNL     1      -3.506   2.049  -2.672  0.00  0.00    -0.019 C 
ENDBRANCH  27  35
ENDBRANCH  26  32
ENDBRANCH  25  26
ENDBRANCH  24  25
ENDBRANCH  20  24
ENDBRANCH  19  21
ENDBRANCH   1  19
TORSDOF 10
