REMARK  Name = ZINC20831935
REMARK  12 active torsions:
REMARK  status: ('A' for Active; 'I' for Inactive)
REMARK    1  A    between atoms: C_1  and  O_2
REMARK    2  A    between atoms: O_2  and  C_3
REMARK    3  A    between atoms: C_5  and  N_11
REMARK    4  A    between atoms: C_7  and  O_9
REMARK    5  A    between atoms: O_9  and  C_10
REMARK    6  A    between atoms: C_12  and  C_14
REMARK    7  A    between atoms: C_14  and  C_15
REMARK    8  A    between atoms: C_15  and  S_16
REMARK    9  A    between atoms: S_16  and  C_17
REMARK   10  A    between atoms: N_22  and  N_23
REMARK   11  A    between atoms: C_24  and  C_25
REMARK   12  A    between atoms: C_28  and  N_31
REMARK                            x       y       z     vdW  Elec       q    Type
REMARK                         _______ _______ _______ _____ _____    ______ ____
ROOT
ATOM      1  C   UNL     1       0.170   0.956   2.735  0.00  0.00    +0.190 A 
ATOM      2  N   UNL     1       0.002   1.069   4.071  0.00  0.00    -0.121 NA
ATOM      3  N   UNL     1       1.055   0.356   4.666  0.00  0.00    -0.111 NA
ATOM      4  C   UNL     1       1.783  -0.135   3.692  0.00  0.00    +0.235 A 
ATOM      5  N   UNL     1       1.244   0.224   2.522  0.00  0.00    -0.303 N 
ATOM      6  N   UNL     1       2.931  -0.911   3.851  0.00  0.00    -0.205 N 
ATOM      7  H   UNL     1       3.474  -1.277   2.967  0.00  0.00    +0.177 HD
ATOM      8  H   UNL     1       1.561   0.001   1.492  0.00  0.00    +0.171 HD
ENDROOT
BRANCH   6   9
ATOM      9  N   UNL     1       3.393  -1.224   5.136  0.00  0.00    -0.188 NA
ATOM     10  C   UNL     1       4.462  -1.946   5.283  0.00  0.00    +0.138 C 
BRANCH  10  11
ATOM     11  C   UNL     1       4.948  -2.276   6.636  0.00  0.00    -0.005 A 
ATOM     12  C   UNL     1       4.264  -1.807   7.761  0.00  0.00    +0.012 A 
ATOM     13  C   UNL     1       4.723  -2.123   9.023  0.00  0.00    +0.033 A 
ATOM     14  C   UNL     1       5.862  -2.893   9.176  0.00  0.00    +0.126 A 
ATOM     15  C   UNL     1       6.546  -3.356   8.067  0.00  0.00    +0.033 A 
ATOM     16  C   UNL     1       6.097  -3.053   6.799  0.00  0.00    +0.012 A 
BRANCH  14  17
ATOM     17  N   UNL     1       6.351  -3.223  10.535  0.00  0.00    +0.056 N 
ATOM     18  O   UNL     1       7.353  -3.901  10.674  0.00  0.00    -0.126 OA
ATOM     19  O   UNL     1       5.750  -2.817  11.514  0.00  0.00    -0.126 OA
ENDBRANCH  14  17
ENDBRANCH  10  11
ENDBRANCH   6   9
BRANCH   1  20
ATOM     20  S   UNL     1      -0.868   1.659   1.497  0.00  0.00    -0.086 S 
BRANCH  20  21
ATOM     21  C   UNL     1      -0.014   1.084   0.008  0.00  0.00    +0.086 C 
BRANCH  21  22
ATOM     22  C   UNL     1      -0.757   1.587  -1.232  0.00  0.00    +0.107 C 
BRANCH  22  24
ATOM     23  N   UNL     1      -0.524   1.433  -3.689  0.00  0.00    -0.285 N 
ATOM     24  C   UNL     1      -0.046   1.108  -2.471  0.00  0.00    +0.218 C 
ATOM     25  O   UNL     1       0.955   0.431  -2.373  0.00  0.00    -0.275 OA
ATOM     26  H   UNL     1      -1.473   1.982  -3.780  0.00  0.00    +0.155 HD
BRANCH  23  29
ATOM     27  C   UNL     1       1.592  -0.485  -6.013  0.00  0.00    +0.125 A 
ATOM     28  C   UNL     1       0.887  -0.128  -4.874  0.00  0.00    +0.069 A 
ATOM     29  C   UNL     1       0.187   1.071  -4.839  0.00  0.00    +0.040 A 
ATOM     30  C   UNL     1       0.189   1.907  -5.946  0.00  0.00    +0.069 A 
ATOM     31  C   UNL     1       0.899   1.551  -7.083  0.00  0.00    +0.125 A 
ATOM     32  C   UNL     1       1.598   0.353  -7.117  0.00  0.00    +0.091 A 
BRANCH  27  34
ATOM     33  C   UNL     1       2.981  -1.964  -7.253  0.00  0.00    +0.277 C 
ATOM     34  O   UNL     1       2.277  -1.658  -6.047  0.00  0.00    -0.495 OA
ENDBRANCH  27  34
BRANCH  31  35
ATOM     35  O   UNL     1       0.904   2.372  -8.165  0.00  0.00    -0.495 OA
ATOM     36  C   UNL     1       1.651   1.939  -9.304  0.00  0.00    +0.277 C 
ENDBRANCH  31  35
ENDBRANCH  23  29
ENDBRANCH  22  24
ENDBRANCH  21  22
ENDBRANCH  20  21
ENDBRANCH   1  20
TORSDOF 10
