REMARK  Name = ZINC58994290
REMARK  9 active torsions:
REMARK  status: ('A' for Active; 'I' for Inactive)
REMARK    1  A    between atoms: C_3  and  C_9
REMARK    2  A    between atoms: C_4  and  O_8
REMARK    3  A    between atoms: C_6  and  O_7
REMARK    4  A    between atoms: N_10  and  N_11
REMARK    5  A    between atoms: C_14  and  S_17
REMARK    6  A    between atoms: S_17  and  C_18
REMARK    7  A    between atoms: C_18  and  C_19
REMARK    8  A    between atoms: N_21  and  C_22
REMARK    9  A    between atoms: C_23  and  C_30
REMARK                            x       y       z     vdW  Elec       q    Type
REMARK                         _______ _______ _______ _____ _____    ______ ____
ROOT
ATOM      1  N   UNL     1       5.988   2.256  -0.044  0.00  0.00    -0.205 N 
ATOM      2  C   UNL     1       7.194   1.582  -0.059  0.00  0.00    +0.232 A 
ATOM      3  N   UNL     1       7.351   0.275  -0.073  0.00  0.00    -0.186 NA
ATOM      4  C   UNL     1       8.655  -0.022  -0.085  0.00  0.00    +0.211 A 
ATOM      5  N   UNL     1       9.346   1.093  -0.079  0.00  0.00    -0.144 NA
ATOM      6  N   UNL     1       8.420   2.148  -0.068  0.00  0.00    -0.245 N 
ATOM      7  H   UNL     1       5.974   3.226  -0.039  0.00  0.00    +0.177 HD
ATOM      8  H   UNL     1       8.621   3.097  -0.066  0.00  0.00    +0.192 HD
ENDROOT
BRANCH   1  10
ATOM      9  C   UNL     1       3.651   2.171  -0.022  0.00  0.00    +0.142 C 
ATOM     10  N   UNL     1       4.785   1.538  -0.036  0.00  0.00    -0.187 NA
BRANCH   9  13
ATOM     11  C   UNL     1      -0.017   1.385   0.010  0.00  0.00    +0.046 A 
ATOM     12  C   UNL     1       1.165   2.095   0.002  0.00  0.00    +0.016 A 
ATOM     13  C   UNL     1       2.386   1.417  -0.013  0.00  0.00    +0.036 A 
ATOM     14  C   UNL     1       2.402   0.014  -0.021  0.00  0.00    +0.129 A 
ATOM     15  C   UNL     1       1.210  -0.687  -0.013  0.00  0.00    +0.091 A 
ATOM     16  C   UNL     1       0.002  -0.004   0.002  0.00  0.00    +0.120 A 
BRANCH  16  17
ATOM     17  O   UNL     1      -1.167  -0.697   0.009  0.00  0.00    -0.507 OA
ATOM     18  H   UNL     1      -1.514  -0.892  -0.872  0.00  0.00    +0.292 HD
ENDBRANCH  16  17
BRANCH  14  19
ATOM     19  O   UNL     1       3.585  -0.653  -0.036  0.00  0.00    -0.506 OA
ATOM     20  H   UNL     1       3.937  -0.851   0.843  0.00  0.00    +0.292 HD
ENDBRANCH  14  19
ENDBRANCH   9  13
ENDBRANCH   1  10
BRANCH   4  21
ATOM     21  S   UNL     1       9.334  -1.648  -0.105  0.00  0.00    -0.075 S 
BRANCH  21  22
ATOM     22  C   UNL     1      11.127  -1.374  -0.115  0.00  0.00    +0.173 C 
BRANCH  22  23
ATOM     23  C   UNL     1      11.839  -2.702  -0.133  0.00  0.00    +0.228 C 
ATOM     24  O   UNL     1      11.199  -3.733  -0.138  0.00  0.00    -0.275 OA
ATOM     25  N   UNL     1      13.186  -2.746  -0.143  0.00  0.00    -0.278 N 
ATOM     26  H   UNL     1      13.697  -1.922  -0.139  0.00  0.00    +0.155 HD
BRANCH  25  27
ATOM     27  C   UNL     1      13.841  -3.969  -0.159  0.00  0.00    +0.090 A 
ATOM     28  C   UNL     1      15.202  -4.204  -0.165  0.00  0.00    +0.084 A 
ATOM     29  C   UNL     1      15.642  -5.598  -0.183  0.00  0.00    -0.018 A 
ATOM     30  C   UNL     1      14.635  -6.491  -0.192  0.00  0.00    -0.004 A 
ATOM     31  S   UNL     1      13.161  -5.503  -0.168  0.00  0.00    -0.077 S 
ATOM     32  C   UNL     1      15.143  -7.907  -0.214  0.00  0.00    +0.043 C 
ATOM     33  C   UNL     1      16.620  -7.786  -0.651  0.00  0.00    +0.010 C 
ATOM     34  C   UNL     1      16.968  -6.356  -0.191  0.00  0.00    +0.037 C 
BRANCH  28  35
ATOM     35  C   UNL     1      16.144  -3.126  -0.155  0.00  0.00    +0.102 C 
ATOM     36  N   UNL     1      16.891  -2.270  -0.148  0.00  0.00    -0.191 NA
ENDBRANCH  28  35
ENDBRANCH  25  27
ENDBRANCH  22  23
ENDBRANCH  21  22
ENDBRANCH   4  21
TORSDOF 9
