REMARK  Name = ZINC39684705
REMARK  10 active torsions:
REMARK  status: ('A' for Active; 'I' for Inactive)
REMARK    1  A    between atoms: C_1  and  C_2
REMARK    2  A    between atoms: C_5  and  C_12
REMARK    3  A    between atoms: N_9  and  C_11
REMARK    4  A    between atoms: C_16  and  C_25
REMARK    5  A    between atoms: N_27  and  C_28
REMARK    6  A    between atoms: C_28  and  C_30
REMARK    7  A    between atoms: C_28  and  C_31
REMARK    8  A    between atoms: C_31  and  C_32
REMARK    9  A    between atoms: C_31  and  C_33
REMARK   10  A    between atoms: C_31  and  C_34
REMARK                            x       y       z     vdW  Elec       q    Type
REMARK                         _______ _______ _______ _____ _____    ______ ____
ROOT
ATOM      1  C   UNL     1      -0.078  -1.613  -4.683  0.00  0.00    +0.250 C 
ATOM      2  O   UNL     1      -0.117  -0.474  -5.107  0.00  0.00    -0.270 OA
ATOM      3  N   UNL     1       0.088  -2.644  -5.535  0.00  0.00    -0.296 N 
ATOM      4  C   UNL     1       0.054  -4.093  -5.225  0.00  0.00    +0.121 C 
ATOM      5  C   UNL     1      -0.687  -4.731  -6.421  0.00  0.00    +0.100 C 
ATOM      6  C   UNL     1      -0.491  -3.738  -7.579  0.00  0.00    -0.004 C 
ATOM      7  C   UNL     1       0.339  -2.585  -6.995  0.00  0.00    +0.115 C 
ATOM      8  C   UNL     1       0.263  -4.405  -8.725  0.00  0.00    -0.010 C 
ATOM      9  C   UNL     1       0.395  -3.416  -9.887  0.00  0.00    -0.082 C 
ATOM     10  N   UNL     1      -0.941  -2.999 -10.331  0.00  0.00    +0.379 N 
ATOM     11  C   UNL     1      -1.624  -2.277  -9.251  0.00  0.00    -0.082 C 
ATOM     12  C   UNL     1      -1.841  -3.217  -8.062  0.00  0.00    -0.010 C 
ATOM     13  H   UNL     1      -0.854  -2.396 -11.135  0.00  0.00    -0.086 HD
ATOM     14  H   UNL     1      -1.480  -3.814 -10.582  0.00  0.00    -0.086 HD
ENDROOT
BRANCH   1  19
ATOM     15  C   UNL     1      -2.833   0.394  -0.049  0.00  0.00    +0.068 C 
ATOM     16  C   UNL     1      -1.887  -0.776   0.026  0.00  0.00    +0.071 A 
ATOM     17  C   UNL     1      -1.143  -1.357  -1.087  0.00  0.00    +0.060 A 
ATOM     18  C   UNL     1      -1.055  -1.071  -2.453  0.00  0.00    +0.067 A 
ATOM     19  C   UNL     1      -0.213  -1.866  -3.235  0.00  0.00    +0.074 A 
ATOM     20  C   UNL     1       0.500  -2.908  -2.627  0.00  0.00    +0.127 A 
ATOM     21  N   UNL     1       0.394  -3.150  -1.342  0.00  0.00    -0.235 NA
ATOM     22  C   UNL     1      -0.392  -2.424  -0.553  0.00  0.00    +0.160 A 
ATOM     23  N   UNL     1      -0.674  -2.467   0.783  0.00  0.00    -0.249 N 
ATOM     24  N   UNL     1      -1.580  -1.450   1.097  0.00  0.00    -0.174 NA
ATOM     25  C   UNL     1      -0.112  -3.426   1.737  0.00  0.00    +0.174 C 
ATOM     26 CL   UNL     1      -1.962   0.233  -3.155  0.00  0.00    -0.082 Cl
ENDBRANCH   1  19
BRANCH   5  27
ATOM     27  C   UNL     1      -0.078  -6.066  -6.763  0.00  0.00    +0.218 C 
ATOM     28  O   UNL     1       1.104  -6.260  -6.576  0.00  0.00    -0.275 OA
ATOM     29  N   UNL     1      -0.848  -7.046  -7.277  0.00  0.00    -0.312 N 
ATOM     30  H   UNL     1      -1.794  -6.891  -7.427  0.00  0.00    +0.149 HD
BRANCH  29  31
ATOM     31  C   UNL     1      -0.257  -8.344  -7.610  0.00  0.00    +0.075 C 
ATOM     32  C   UNL     1       0.348  -8.284  -9.014  0.00  0.00    +0.028 C 
BRANCH  31  33
ATOM     33  C   UNL     1      -1.340  -9.424  -7.567  0.00  0.00    -0.020 C 
ATOM     34  C   UNL     1      -2.435  -9.088  -8.581  0.00  0.00    +0.012 C 
ATOM     35  C   UNL     1      -0.722 -10.780  -7.915  0.00  0.00    +0.012 C 
ATOM     36  C   UNL     1      -1.945  -9.484  -6.163  0.00  0.00    +0.012 C 
ENDBRANCH  31  33
ENDBRANCH  29  31
ENDBRANCH   5  27
TORSDOF 4
