REMARK  Name = ZINC48454644
REMARK  8 active torsions:
REMARK  status: ('A' for Active; 'I' for Inactive)
REMARK    1  A    between atoms: C_1  and  C_2
REMARK    2  A    between atoms: C_12  and  C_15
REMARK    3  A    between atoms: C_15  and  N_16
REMARK    4  A    between atoms: N_19  and  C_20
REMARK    5  A    between atoms: C_23  and  O_26
REMARK    6  A    between atoms: O_26  and  C_27
REMARK    7  A    between atoms: C_27  and  C_28
REMARK    8  A    between atoms: C_27  and  C_29
REMARK                            x       y       z     vdW  Elec       q    Type
REMARK                         _______ _______ _______ _____ _____    ______ ____
ROOT
ATOM      1  N   UNL     1       0.490  -5.468  -6.311  0.00  0.00    -0.295 N 
ATOM      2  C   UNL     1       0.367  -6.305  -7.361  0.00  0.00    +0.304 C 
ATOM      3  O   UNL     1      -0.647  -6.961  -7.500  0.00  0.00    -0.252 OA
ATOM      4  N   UNL     1       1.369  -6.415  -8.256  0.00  0.00    -0.269 N 
ATOM      5  H   UNL     1       1.299  -4.945  -6.200  0.00  0.00    +0.151 HD
ATOM      6  H   UNL     1       2.209  -5.957  -8.102  0.00  0.00    +0.156 HD
ENDROOT
BRANCH   4   7
ATOM      7  C   UNL     1       1.195  -7.192  -9.410  0.00  0.00    +0.035 A 
ATOM      8  C   UNL     1       2.265  -7.904  -9.935  0.00  0.00    +0.027 A 
ATOM      9  C   UNL     1       2.094  -8.669 -11.071  0.00  0.00    +0.047 A 
ATOM     10  C   UNL     1       0.853  -8.727 -11.688  0.00  0.00    +0.121 A 
ATOM     11  C   UNL     1      -0.217  -8.016 -11.164  0.00  0.00    +0.047 A 
ATOM     12  C   UNL     1      -0.048  -7.254 -10.024  0.00  0.00    +0.027 A 
BRANCH  10  13
ATOM     13  O   UNL     1       0.685  -9.481 -12.807  0.00  0.00    -0.489 OA
BRANCH  13  14
ATOM     14  C   UNL     1       1.849 -10.107 -13.349  0.00  0.00    +0.167 C 
ATOM     15  C   UNL     1       1.436 -11.331 -14.168  0.00  0.00    +0.051 C 
ATOM     16  C   UNL     1       2.589  -9.116 -14.250  0.00  0.00    +0.051 C 
ENDBRANCH  13  14
ENDBRANCH  10  13
ENDBRANCH   4   7
BRANCH   1  17
ATOM     17  C   UNL     1      -0.599  -5.349  -5.338  0.00  0.00    +0.142 C 
BRANCH  17  28
ATOM     18  C   UNL     1       3.316  -1.840   1.618  0.00  0.00    +0.039 C 
ATOM     19  C   UNL     1       2.779  -1.474   0.233  0.00  0.00    +0.132 C 
ATOM     20  C   UNL     1       1.490  -2.258  -0.039  0.00  0.00    +0.137 C 
ATOM     21  N   UNL     1       0.895  -1.754  -1.287  0.00  0.00    -0.312 N 
ATOM     22  C   UNL     1       0.714  -0.301  -1.429  0.00  0.00    +0.134 C 
ATOM     23  C   UNL     1       2.040   0.388  -1.089  0.00  0.00    +0.179 C 
ATOM     24  O   UNL     1       2.498  -0.073   0.184  0.00  0.00    -0.374 OA
ATOM     25  C   UNL     1       0.516  -2.625  -2.302  0.00  0.00    +0.099 A 
ATOM     26  C   UNL     1      -0.145  -2.132  -3.423  0.00  0.00    +0.042 A 
ATOM     27  C   UNL     1      -0.516  -3.010  -4.425  0.00  0.00    +0.010 A 
ATOM     28  C   UNL     1      -0.213  -4.356  -4.272  0.00  0.00    -0.014 A 
ATOM     29  C   UNL     1       0.445  -4.777  -3.134  0.00  0.00    +0.089 A 
ATOM     30  N   UNL     1       0.792  -3.916  -2.196  0.00  0.00    -0.349 N 
ATOM     31  H   UNL     1       1.257  -4.237  -1.408  0.00  0.00    +0.167 HD
ENDBRANCH  17  28
ENDBRANCH   1  17
TORSDOF 5
