REMARK  Name = ZINC44714413
REMARK  9 active torsions:
REMARK  status: ('A' for Active; 'I' for Inactive)
REMARK    1  A    between atoms: C_1  and  C_2
REMARK    2  A    between atoms: C_3  and  C_14
REMARK    3  A    between atoms: C_6  and  C_12
REMARK    4  A    between atoms: C_14  and  C_15
REMARK    5  A    between atoms: C_15  and  N_16
REMARK    6  A    between atoms: C_17  and  C_19
REMARK    7  A    between atoms: C_30  and  C_32
REMARK    8  A    between atoms: C_36  and  O_38
REMARK    9  A    between atoms: O_38  and  C_39
REMARK                            x       y       z     vdW  Elec       q    Type
REMARK                         _______ _______ _______ _____ _____    ______ ____
ROOT
ATOM      1  C   UNL     1       2.711   0.419  -6.339  0.00  0.00    +0.100 C 
ATOM      2  C   UNL     1       2.020  -0.406  -7.448  0.00  0.00    +0.121 C 
ATOM      3  N   UNL     1       2.853  -0.184  -8.654  0.00  0.00    -0.296 N 
ATOM      4  C   UNL     1       4.246  -0.194  -8.146  0.00  0.00    +0.115 C 
ATOM      5  C   UNL     1       4.172   0.555  -6.801  0.00  0.00    -0.004 C 
ATOM      6  C   UNL     1       5.110  -0.091  -5.786  0.00  0.00    -0.010 C 
ATOM      7  C   UNL     1       6.559   0.109  -6.237  0.00  0.00    -0.082 C 
ATOM      8  N   UNL     1       6.845   1.544  -6.352  0.00  0.00    +0.379 N 
ATOM      9  C   UNL     1       6.003   2.140  -7.397  0.00  0.00    -0.082 C 
ATOM     10  C   UNL     1       4.530   2.026  -6.995  0.00  0.00    -0.010 C 
ATOM     11  C   UNL     1       2.437  -0.013  -9.924  0.00  0.00    +0.247 C 
ATOM     12  O   UNL     1       1.251   0.098 -10.166  0.00  0.00    -0.270 OA
ATOM     13  H   UNL     1       6.654   1.995  -5.470  0.00  0.00    -0.086 HD
ATOM     14  H   UNL     1       7.816   1.674  -6.590  0.00  0.00    -0.086 HD
ENDROOT
BRANCH  11  15
ATOM     15  C   UNL     1       3.424   0.040 -11.024  0.00  0.00    +0.040 A 
ATOM     16  C   UNL     1       4.699  -0.501 -10.848  0.00  0.00    +0.013 A 
ATOM     17  C   UNL     1       5.617  -0.450 -11.876  0.00  0.00    +0.004 A 
ATOM     18  C   UNL     1       5.280   0.136 -13.082  0.00  0.00    +0.045 A 
ATOM     19  C   UNL     1       4.015   0.677 -13.266  0.00  0.00    +0.121 A 
ATOM     20  C   UNL     1       3.083   0.626 -12.243  0.00  0.00    +0.058 A 
BRANCH  19  21
ATOM     21  O   UNL     1       3.689   1.252 -14.454  0.00  0.00    -0.495 OA
ATOM     22  C   UNL     1       4.696   1.266 -15.467  0.00  0.00    +0.277 C 
ENDBRANCH  19  21
ENDBRANCH  11  15
BRANCH   1  24
ATOM     23  N   UNL     1       2.605   0.384  -3.868  0.00  0.00    -0.315 N 
ATOM     24  C   UNL     1       2.643  -0.311  -5.022  0.00  0.00    +0.218 C 
ATOM     25  O   UNL     1       2.623  -1.524  -5.002  0.00  0.00    -0.275 OA
ATOM     26  H   UNL     1       2.622   1.353  -3.885  0.00  0.00    +0.149 HD
BRANCH  23  27
ATOM     27  C   UNL     1       2.539  -0.326  -2.588  0.00  0.00    +0.109 C 
BRANCH  27  28
ATOM     28  C   UNL     1       2.507   0.689  -1.444  0.00  0.00    +0.056 C 
BRANCH  28  31
ATOM     29  C   UNL     1       4.929  -0.238   0.261  0.00  0.00    +0.063 C 
ATOM     30  C   UNL     1       3.480  -0.445   0.617  0.00  0.00    +0.017 A 
ATOM     31  C   UNL     1       2.439  -0.041  -0.127  0.00  0.00    -0.018 A 
ATOM     32  C   UNL     1       1.223  -0.444   0.585  0.00  0.00    +0.004 A 
ATOM     33  C   UNL     1      -0.139  -0.311   0.326  0.00  0.00    +0.029 A 
ATOM     34  C   UNL     1      -1.061  -0.821   1.235  0.00  0.00    +0.052 A 
ATOM     35  C   UNL     1      -0.617  -1.462   2.400  0.00  0.00    +0.021 A 
ATOM     36  C   UNL     1       0.716  -1.594   2.656  0.00  0.00    +0.027 A 
ATOM     37  C   UNL     1       1.656  -1.091   1.760  0.00  0.00    +0.047 A 
ATOM     38  N   UNL     1       3.031  -1.078   1.744  0.00  0.00    -0.358 N 
ATOM     39  H   UNL     1       3.598  -1.460   2.432  0.00  0.00    +0.166 HD
BRANCH  34  40
ATOM     40  C   UNL     1      -2.464  -0.690   0.980  0.00  0.00    +0.099 C 
ATOM     41  N   UNL     1      -3.578  -0.587   0.779  0.00  0.00    -0.191 NA
ENDBRANCH  34  40
ENDBRANCH  28  31
ENDBRANCH  27  28
ENDBRANCH  23  27
ENDBRANCH   1  24
TORSDOF 7
