REMARK  Name = ZINC00901175
REMARK  9 active torsions:
REMARK  status: ('A' for Active; 'I' for Inactive)
REMARK    1  A    between atoms: C_1  and  C_2
REMARK    2  A    between atoms: N_4  and  C_5
REMARK    3  A    between atoms: C_8  and  N_11
REMARK    4  A    between atoms: N_11  and  C_12
REMARK    5  A    between atoms: C_12  and  C_14
REMARK    6  A    between atoms: C_12  and  C_19
REMARK    7  A    between atoms: N_21  and  C_22
REMARK    8  A    between atoms: C_28  and  C_30
REMARK    9  A    between atoms: C_30  and  N_31
REMARK                            x       y       z     vdW  Elec       q    Type
REMARK                         _______ _______ _______ _____ _____    ______ ____
ROOT
ATOM      1  N   UNL     1      -5.476   3.390  -1.608  0.00  0.00    -0.251 N 
ATOM      2  C   UNL     1      -4.145   3.574  -1.500  0.00  0.00    +0.242 C 
ATOM      3  O   UNL     1      -3.455   3.614  -2.497  0.00  0.00    -0.273 OA
ENDROOT
BRANCH   1   7
ATOM      4  C   UNL     1      -7.889   3.579   1.787  0.00  0.00    +0.033 A 
ATOM      5  C   UNL     1      -8.004   4.547   0.799  0.00  0.00    +0.025 A 
ATOM      6  C   UNL     1      -7.205   4.485  -0.325  0.00  0.00    +0.025 A 
ATOM      7  C   UNL     1      -6.287   3.453  -0.468  0.00  0.00    +0.038 A 
ATOM      8  C   UNL     1      -6.176   2.481   0.518  0.00  0.00    +0.025 A 
ATOM      9  C   UNL     1      -6.971   2.547   1.644  0.00  0.00    +0.025 A 
BRANCH   4  13
ATOM     10  C   UNL     1      -9.128   3.185   5.321  0.00  0.00    +0.109 C 
ATOM     11  C   UNL     1      -8.221   3.230   4.118  0.00  0.00    +0.214 C 
ATOM     12  O   UNL     1      -7.059   2.896   4.222  0.00  0.00    -0.276 OA
ATOM     13  N   UNL     1      -8.700   3.642   2.928  0.00  0.00    -0.286 N 
ATOM     14  H   UNL     1      -9.605   3.982   2.861  0.00  0.00    +0.155 HD
ENDBRANCH   4  13
ENDBRANCH   1   7
BRANCH   1  15
ATOM     15  C   UNL     1      -6.074   3.124  -2.919  0.00  0.00    +0.233 C 
BRANCH  15  16
ATOM     16  C   UNL     1      -5.884   4.324  -3.811  0.00  0.00    +0.135 A 
ATOM     17  C   UNL     1      -6.794   4.818  -4.670  0.00  0.00    +0.047 A 
ATOM     18  C   UNL     1      -6.200   5.938  -5.296  0.00  0.00    +0.041 A 
ATOM     19  C   UNL     1      -4.963   6.061  -4.782  0.00  0.00    +0.195 A 
ATOM     20  O   UNL     1      -4.779   5.084  -3.879  0.00  0.00    -0.465 OA
ENDBRANCH  15  16
BRANCH  15  21
ATOM     21  C   UNL     1      -5.408   1.924  -3.541  0.00  0.00    +0.242 C 
ATOM     22  O   UNL     1      -4.520   1.348  -2.949  0.00  0.00    -0.273 OA
ATOM     23  N   UNL     1      -5.798   1.492  -4.756  0.00  0.00    -0.311 N 
ATOM     24  H   UNL     1      -6.508   1.952  -5.230  0.00  0.00    +0.149 HD
BRANCH  23  25
ATOM     25  C   UNL     1      -5.150   0.325  -5.362  0.00  0.00    +0.073 C 
ATOM     26  C   UNL     1      -3.880   0.768  -6.090  0.00  0.00    +0.022 C 
ATOM     27  C   UNL     1      -3.203  -0.450  -6.721  0.00  0.00    +0.002 C 
ATOM     28  C   UNL     1      -4.160  -1.105  -7.719  0.00  0.00    +0.000 C 
ATOM     29  C   UNL     1      -5.431  -1.548  -6.991  0.00  0.00    +0.002 C 
ATOM     30  C   UNL     1      -6.108  -0.329  -6.359  0.00  0.00    +0.022 C 
ENDBRANCH  23  25
ENDBRANCH  15  21
ENDBRANCH   1  15
BRANCH   2  31
ATOM     31  C   UNL     1      -3.514   3.729  -0.141  0.00  0.00    +0.242 C 
BRANCH  31  32
ATOM     32  N   UNL     1      -2.058   3.806  -0.284  0.00  0.00    -0.235 N 
ATOM     33  C   UNL     1      -1.174   2.753  -0.270  0.00  0.00    +0.090 A 
ATOM     34  C   UNL     1      -1.313   1.376  -0.137  0.00  0.00    +0.029 A 
ATOM     35  C   UNL     1      -0.206   0.575  -0.162  0.00  0.00    +0.002 A 
ATOM     36  C   UNL     1       1.059   1.124  -0.330  0.00  0.00    +0.002 A 
ATOM     37  C   UNL     1       1.222   2.471  -0.469  0.00  0.00    +0.032 A 
ATOM     38  C   UNL     1       0.103   3.315  -0.441  0.00  0.00    +0.113 A 
ATOM     39  N   UNL     1      -0.048   4.650  -0.549  0.00  0.00    -0.129 NA
ATOM     40  N   UNL     1      -1.292   4.967  -0.462  0.00  0.00    -0.064 NA
ENDBRANCH  31  32
ENDBRANCH   2  31
TORSDOF 8
