REMARK  Name = ZINC09706248
REMARK  8 active torsions:
REMARK  status: ('A' for Active; 'I' for Inactive)
REMARK    1  A    between atoms: C_1  and  O_2
REMARK    2  A    between atoms: O_2  and  C_3
REMARK    3  A    between atoms: C_6  and  N_9
REMARK    4  A    between atoms: C_10  and  C_12
REMARK    5  A    between atoms: C_13  and  N_21
REMARK    6  A    between atoms: C_22  and  C_24
REMARK    7  A    between atoms: N_26  and  C_27
REMARK    8  A    between atoms: C_27  and  C_28
REMARK                            x       y       z     vdW  Elec       q    Type
REMARK                         _______ _______ _______ _____ _____    ______ ____
ROOT
ATOM      1  C   UNL     1      -1.381  -0.731   0.339  0.00  0.00    +0.212 A 
ATOM      2  C   UNL     1      -1.635  -2.051   0.085  0.00  0.00    +0.093 A 
ATOM      3  C   UNL     1      -3.095  -2.167  -0.019  0.00  0.00    +0.042 A 
ATOM      4  C   UNL     1      -3.970  -3.227  -0.262  0.00  0.00    +0.013 A 
ATOM      5  C   UNL     1      -5.317  -2.999  -0.296  0.00  0.00    +0.001 A 
ATOM      6  C   UNL     1      -5.819  -1.721  -0.092  0.00  0.00    +0.004 A 
ATOM      7  C   UNL     1      -4.971  -0.662   0.149  0.00  0.00    +0.047 A 
ATOM      8  C   UNL     1      -3.597  -0.870   0.188  0.00  0.00    +0.138 A 
ATOM      9  O   UNL     1      -2.548  -0.051   0.402  0.00  0.00    -0.448 OA
ENDROOT
BRANCH   1  11
ATOM     10  N   UNL     1       0.070   1.150   0.869  0.00  0.00    -0.279 N 
ATOM     11  C   UNL     1      -0.054  -0.146   0.522  0.00  0.00    +0.285 C 
ATOM     12  O   UNL     1       0.940  -0.831   0.360  0.00  0.00    -0.266 OA
ATOM     13  H   UNL     1      -0.717   1.714   0.927  0.00  0.00    +0.155 HD
BRANCH  10  17
ATOM     14  C   UNL     1       3.838   2.741   1.676  0.00  0.00    +0.120 A 
ATOM     15  C   UNL     1       2.829   3.560   1.191  0.00  0.00    +0.047 A 
ATOM     16  C   UNL     1       1.581   3.034   0.924  0.00  0.00    +0.027 A 
ATOM     17  C   UNL     1       1.335   1.684   1.140  0.00  0.00    +0.034 A 
ATOM     18  C   UNL     1       2.345   0.866   1.630  0.00  0.00    +0.027 A 
ATOM     19  C   UNL     1       3.594   1.393   1.892  0.00  0.00    +0.047 A 
BRANCH  14  21
ATOM     20  C   UNL     1       6.059   2.359   2.435  0.00  0.00    +0.277 C 
ATOM     21  O   UNL     1       5.067   3.260   1.938  0.00  0.00    -0.495 OA
ENDBRANCH  14  21
ENDBRANCH  10  17
ENDBRANCH   1  11
BRANCH   2  22
ATOM     22  N   UNL     1      -0.703  -3.072  -0.048  0.00  0.00    -0.274 N 
ATOM     23  C   UNL     1      -0.993  -4.311   0.396  0.00  0.00    +0.303 C 
ATOM     24  O   UNL     1      -2.103  -4.559   0.820  0.00  0.00    -0.265 OA
ATOM     25  H   UNL     1       0.156  -2.893  -0.460  0.00  0.00    +0.155 HD
BRANCH  23  26
ATOM     26  C   UNL     1       0.051  -5.378   0.368  0.00  0.00    +0.300 C 
ATOM     27  O   UNL     1       1.161  -5.129  -0.056  0.00  0.00    -0.265 OA
ATOM     28  N   UNL     1      -0.239  -6.617   0.812  0.00  0.00    -0.304 N 
ATOM     29  H   UNL     1      -1.126  -6.815   1.150  0.00  0.00    +0.149 HD
BRANCH  28  30
ATOM     30  C   UNL     1       0.786  -7.663   0.784  0.00  0.00    +0.131 C 
BRANCH  30  31
ATOM     31  C   UNL     1       0.211  -8.944   1.331  0.00  0.00    -0.016 C 
ATOM     32  C   UNL     1       0.259 -10.042   0.617  0.00  0.00    +0.005 C 
ENDBRANCH  30  31
ENDBRANCH  28  30
ENDBRANCH  23  26
ENDBRANCH   2  22
TORSDOF 7
