REMARK  Name = ZINC13572388
REMARK  2 active torsions:
REMARK  status: ('A' for Active; 'I' for Inactive)
REMARK    1  A    between atoms: C_6  and  C_7
REMARK    2  A    between atoms: N_17  and  C_20
REMARK                            x       y       z     vdW  Elec       q    Type
REMARK                         _______ _______ _______ _____ _____    ______ ____
ROOT
ATOM      1  C   UNL     1       0.452  -1.829  -1.077  0.00  0.00    +0.108 C 
ATOM      2  C   UNL     1      -0.626  -1.976  -2.178  0.00  0.00    +0.077 C 
ATOM      3  C   UNL     1      -1.254  -3.315  -1.836  0.00  0.00    +0.038 C 
ATOM      4  C   UNL     1      -2.458  -3.800  -2.325  0.00  0.00    +0.119 C 
ATOM      5  C   UNL     1      -3.270  -3.024  -3.272  0.00  0.00    +0.278 C 
ATOM      6  O   UNL     1      -2.864  -1.808  -3.694  0.00  0.00    -0.268 OA
ATOM      7  N   UNL     1      -4.408  -3.544  -3.701  0.00  0.00    -0.123 NA
ATOM      8  C   UNL     1      -4.833  -4.740  -3.302  0.00  0.00    +0.340 C 
ATOM      9  O   UNL     1      -5.892  -5.152  -3.742  0.00  0.00    -0.250 OA
ATOM     10  N   UNL     1      -4.158  -5.518  -2.443  0.00  0.00    -0.188 N 
ATOM     11  C   UNL     1      -2.976  -5.120  -1.924  0.00  0.00    +0.265 C 
ATOM     12  O   UNL     1      -2.361  -5.828  -1.147  0.00  0.00    -0.269 OA
ATOM     13  N   UNL     1      -0.439  -3.948  -0.975  0.00  0.00    -0.283 N 
ATOM     14  N   UNL     1       0.694  -3.241  -0.697  0.00  0.00    -0.235 NA
ATOM     15  H   UNL     1      -0.636  -4.816  -0.590  0.00  0.00    +0.166 HD
ATOM     16  H   UNL     1       1.487  -3.618  -1.193  0.00  0.00    +0.145 HD
ENDROOT
BRANCH   1  22
ATOM     17  C   UNL     1       1.978   0.132  -1.374  0.00  0.00    +0.006 A 
ATOM     18  C   UNL     1       3.127   0.711  -1.880  0.00  0.00    +0.020 A 
ATOM     19  C   UNL     1       4.002  -0.041  -2.643  0.00  0.00    +0.041 A 
ATOM     20  C   UNL     1       3.727  -1.372  -2.899  0.00  0.00    +0.020 A 
ATOM     21  C   UNL     1       2.578  -1.950  -2.392  0.00  0.00    +0.006 A 
ATOM     22  C   UNL     1       1.704  -1.198  -1.630  0.00  0.00    -0.028 A 
ATOM     23 CL   UNL     1       5.444   0.686  -3.280  0.00  0.00    -0.084 Cl
ENDBRANCH   1  22
BRANCH  10  24
ATOM     24  C   UNL     1      -4.686  -6.764  -2.080  0.00  0.00    +0.046 A 
ATOM     25  C   UNL     1      -5.528  -6.870  -0.982  0.00  0.00    +0.025 A 
ATOM     26  C   UNL     1      -6.047  -8.100  -0.627  0.00  0.00    +0.022 A 
ATOM     27  C   UNL     1      -5.728  -9.226  -1.365  0.00  0.00    +0.041 A 
ATOM     28  C   UNL     1      -4.888  -9.123  -2.461  0.00  0.00    +0.022 A 
ATOM     29  C   UNL     1      -4.371  -7.895  -2.823  0.00  0.00    +0.025 A 
ATOM     30 CL   UNL     1      -6.381 -10.771  -0.917  0.00  0.00    -0.084 Cl
ENDBRANCH  10  24
TORSDOF 2
