REMARK  Name = ZINC00645538
REMARK  9 active torsions:
REMARK  status: ('A' for Active; 'I' for Inactive)
REMARK    1  A    between atoms: C_1  and  C_2
REMARK    2  A    between atoms: C_2  and  O_3
REMARK    3  A    between atoms: O_3  and  C_4
REMARK    4  A    between atoms: C_7  and  C_12
REMARK    5  A    between atoms: C_9  and  O_10
REMARK    6  A    between atoms: O_10  and  C_11
REMARK    7  A    between atoms: C_14  and  C_21
REMARK    8  A    between atoms: C_15  and  C_20
REMARK    9  A    between atoms: N_23  and  C_24
REMARK                            x       y       z     vdW  Elec       q    Type
REMARK                         _______ _______ _______ _____ _____    ______ ____
ROOT
ATOM      1  C   UNL     1       0.719   1.431   0.809  0.00  0.00    +0.142 C 
ATOM      2  C   UNL     1      -0.406   1.013  -0.117  0.00  0.00    +0.056 C 
ATOM      3  C   UNL     1      -0.347  -0.221  -0.659  0.00  0.00    +0.019 C 
ATOM      4  N   UNL     1       0.691  -1.065  -0.382  0.00  0.00    -0.273 N 
ATOM      5  C   UNL     1       1.710  -0.747   0.428  0.00  0.00    +0.304 C 
ATOM      6  O   UNL     1       2.590  -1.565   0.614  0.00  0.00    -0.252 OA
ATOM      7  N   UNL     1       1.791   0.449   1.042  0.00  0.00    -0.288 N 
ATOM      8  C   UNL     1      -1.445  -0.676  -1.585  0.00  0.00    +0.061 C 
ATOM      9  H   UNL     1       0.691  -1.943  -0.794  0.00  0.00    +0.156 HD
ATOM     10  H   UNL     1       2.538   0.659   1.624  0.00  0.00    +0.151 HD
ENDROOT
BRANCH   1  14
ATOM     11  C   UNL     1       2.505   4.968  -0.801  0.00  0.00    +0.162 A 
ATOM     12  C   UNL     1       2.786   3.731  -1.358  0.00  0.00    +0.050 A 
ATOM     13  C   UNL     1       2.212   2.589  -0.832  0.00  0.00    +0.009 A 
ATOM     14  C   UNL     1       1.347   2.679   0.243  0.00  0.00    -0.019 A 
ATOM     15  C   UNL     1       1.062   3.910   0.804  0.00  0.00    +0.055 A 
ATOM     16  C   UNL     1       1.639   5.058   0.285  0.00  0.00    +0.162 A 
BRANCH  16  17
ATOM     17  O   UNL     1       1.360   6.269   0.836  0.00  0.00    -0.491 OA
ATOM     18  C   UNL     1       0.580   6.274   2.033  0.00  0.00    +0.277 C 
ENDBRANCH  16  17
BRANCH  11  19
ATOM     19  O   UNL     1       3.073   6.092  -1.314  0.00  0.00    -0.489 OA
BRANCH  19  21
ATOM     20  C   UNL     1       4.491   7.288  -2.863  0.00  0.00    +0.048 C 
ATOM     21  C   UNL     1       3.952   5.924  -2.428  0.00  0.00    +0.226 C 
ENDBRANCH  19  21
ENDBRANCH  11  19
ENDBRANCH   1  14
BRANCH   2  22
ATOM     22  C   UNL     1      -1.479   1.891  -0.408  0.00  0.00    +0.248 C 
ATOM     23  O   UNL     1      -2.357   2.073   0.416  0.00  0.00    -0.270 OA
ATOM     24  N   UNL     1      -1.528   2.524  -1.597  0.00  0.00    -0.282 N 
ATOM     25  H   UNL     1      -0.888   2.303  -2.291  0.00  0.00    +0.155 HD
BRANCH  24  26
ATOM     26  C   UNL     1      -2.502   3.500  -1.829  0.00  0.00    +0.034 A 
ATOM     27  C   UNL     1      -2.944   4.305  -0.787  0.00  0.00    +0.024 A 
ATOM     28  C   UNL     1      -3.902   5.271  -1.020  0.00  0.00    +0.016 A 
ATOM     29  C   UNL     1      -4.430   5.431  -2.289  0.00  0.00    +0.013 A 
ATOM     30  C   UNL     1      -3.997   4.627  -3.328  0.00  0.00    +0.016 A 
ATOM     31  C   UNL     1      -3.035   3.663  -3.102  0.00  0.00    +0.024 A 
ATOM     32  I   UNL     1      -5.890   6.893  -2.637  0.00  0.00    -0.044 I 
ENDBRANCH  24  26
ENDBRANCH   2  22
TORSDOF 6
