REMARK  Name = ZINC53619091
REMARK  9 active torsions:
REMARK  status: ('A' for Active; 'I' for Inactive)
REMARK    1  A    between atoms: C_6  and  C_7
REMARK    2  A    between atoms: C_13  and  O_20
REMARK    3  A    between atoms: C_15  and  O_19
REMARK    4  A    between atoms: O_20  and  C_21
REMARK    5  A    between atoms: C_21  and  C_22
REMARK    6  A    between atoms: N_24  and  CA_25
REMARK    7  A    between atoms: CA_25  and  CB_27
REMARK    8  A    between atoms: CA_25  and  C_33
REMARK    9  A    between atoms: CB_27  and  CG_28
REMARK                            x       y       z     vdW  Elec       q    Type
REMARK                         _______ _______ _______ _____ _____    ______ ____
ROOT
ATOM      1  C   UNK A   0      -1.293  -0.774   0.009  0.00  0.00    +0.128 C 
ATOM      2  C   UNK A   0      -2.114  -0.407   1.254  0.00  0.00    +0.245 C 
ATOM      3  O   UNK A   0      -2.410   0.989   1.230  0.00  0.00    -0.490 OA
ATOM      4  C   UNK A   0      -2.986   1.512   0.121  0.00  0.00    +0.138 A 
ATOM      5  C   UNK A   0      -3.700   2.694   0.206  0.00  0.00    +0.092 A 
ATOM      6  C   UNK A   0      -4.288   3.238  -0.929  0.00  0.00    +0.128 A 
ATOM      7  C   UNK A   0      -4.168   2.607  -2.161  0.00  0.00    +0.092 A 
ATOM      8  C   UNK A   0      -3.460   1.423  -2.268  0.00  0.00    +0.134 A 
ATOM      9  C   UNK A   0      -2.868   0.866  -1.123  0.00  0.00    +0.101 A 
ATOM     10  C   UNK A   0      -2.124  -0.398  -1.205  0.00  0.00    +0.181 C 
ATOM     11  O   UNK A   0      -2.172  -1.106  -2.190  0.00  0.00    -0.291 OA
ENDROOT
BRANCH   1  17
ATOM     12  C   UNK A   0      -0.017   1.378   0.010  0.00  0.00    +0.008 A 
ATOM     13  C   UNK A   0       1.170   2.088   0.002  0.00  0.00    +0.050 A 
ATOM     14  C   UNK A   0       2.382   1.415  -0.013  0.00  0.00    +0.162 A 
ATOM     15  C   UNK A   0       2.401   0.025  -0.018  0.00  0.00    +0.162 A 
ATOM     16  C   UNK A   0       1.207  -0.681  -0.011  0.00  0.00    +0.054 A 
ATOM     17  C   UNK A   0       0.002  -0.004   0.002  0.00  0.00    -0.030 A 
ATOM     18  O   UNK A   0       3.579  -0.656  -0.024  0.00  0.00    -0.485 OA
ATOM     19  C   UNK A   0       4.746   0.081  -0.406  0.00  0.00    +0.270 C 
ATOM     20  C   UNK A   0       4.733   1.422   0.340  0.00  0.00    +0.270 C 
ATOM     21  O   UNK A   0       3.542   2.127  -0.024  0.00  0.00    -0.485 OA
ENDBRANCH   1  17
BRANCH   8  22
ATOM     22  O   UNK A   0      -3.339   0.806  -3.469  0.00  0.00    -0.506 OA
ATOM     23  H   UNK A   0      -2.564   1.083  -3.978  0.00  0.00    +0.292 HD
ENDBRANCH   8  22
BRANCH   6  24
ATOM     24  O   UNK A   0      -4.987   4.396  -0.833  0.00  0.00    -0.483 OA
BRANCH  24  25
ATOM     25  C   UNK A   0      -5.568   4.905  -2.035  0.00  0.00    +0.324 C 
BRANCH  25  26
ATOM     26  C   UNK A   0      -6.300   6.188  -1.736  0.00  0.00    +0.251 C 
ATOM     27  O   UNK A   0      -6.321   6.624  -0.605  0.00  0.00    -0.272 OA
ATOM     28  N   HIS A   1      -6.930   6.851  -2.726  0.00  0.00    -0.299 N 
ATOM     29  H   HIS A   1      -6.912   6.502  -3.631  0.00  0.00    +0.150 HD
BRANCH  28  30
ATOM     30  CA  HIS A   1      -7.641   8.098  -2.435  0.00  0.00    +0.192 C 
BRANCH  30  31
ATOM     31  C   HIS A   1      -6.671   9.251  -2.477  0.00  0.00    +0.376 C 
ATOM     32  O   HIS A   1      -5.541   9.082  -2.901  0.00  0.00    -0.244 OA
ATOM     33  OXT HIS A   1      -7.017  10.353  -2.086  0.00  0.00    -0.244 OA
ENDBRANCH  30  31
BRANCH  30  34
ATOM     34  CB  HIS A   1      -8.737   8.316  -3.480  0.00  0.00    +0.088 C 
BRANCH  34  35
ATOM     35  CG  HIS A   1      -9.773   7.229  -3.356  0.00  0.00    +0.035 A 
ATOM     36  ND1 HIS A   1     -10.942   7.292  -2.647  0.00  0.00    -0.350 N 
ATOM     37  CE1 HIS A   1     -11.569   6.107  -2.805  0.00  0.00    +0.171 A 
ATOM     38  NE2 HIS A   1     -10.836   5.344  -3.568  0.00  0.00    -0.352 N 
ATOM     39  CD2 HIS A   1      -9.729   6.009  -3.926  0.00  0.00    +0.105 A 
ATOM     40  HD1 HIS A   1     -11.260   8.048  -2.129  0.00  0.00    +0.166 HD
ATOM     41  HE2 HIS A   1     -11.059   4.439  -3.837  0.00  0.00    +0.166 HD
ENDBRANCH  34  35
ENDBRANCH  30  34
ENDBRANCH  28  30
ENDBRANCH  25  26
ENDBRANCH  24  25
ENDBRANCH   6  24
TORSDOF 9
