REMARK  Name = ZINC20837804
REMARK  9 active torsions:
REMARK  status: ('A' for Active; 'I' for Inactive)
REMARK    1  A    between atoms: C_4  and  N_7
REMARK    2  A    between atoms: N_7  and  S_8
REMARK    3  A    between atoms: S_8  and  C_11
REMARK    4  A    between atoms: C_14  and  N_17
REMARK    5  A    between atoms: C_18  and  C_20
REMARK    6  A    between atoms: C_20  and  C_21
REMARK    7  A    between atoms: C_21  and  S_22
REMARK    8  A    between atoms: S_22  and  C_23
REMARK    9  A    between atoms: N_29  and  N_30
REMARK                            x       y       z     vdW  Elec       q    Type
REMARK                         _______ _______ _______ _____ _____    ______ ____
ROOT
ATOM      1  N   UNL     1       0.252  -6.584  -0.463  0.00  0.00    -0.285 N 
ATOM      2  C   UNL     1       0.675  -7.539  -1.314  0.00  0.00    +0.218 C 
ATOM      3  O   UNL     1       1.812  -7.516  -1.735  0.00  0.00    -0.275 OA
ATOM      4  H   UNL     1      -0.632  -6.643  -0.067  0.00  0.00    +0.155 HD
ENDROOT
BRANCH   1   8
ATOM      5  C   UNL     1       2.739  -3.374   0.470  0.00  0.00    +0.109 A 
ATOM      6  C   UNL     1       2.790  -3.943  -0.789  0.00  0.00    +0.030 A 
ATOM      7  C   UNL     1       1.966  -5.007  -1.102  0.00  0.00    +0.025 A 
ATOM      8  C   UNL     1       1.088  -5.506  -0.149  0.00  0.00    +0.033 A 
ATOM      9  C   UNL     1       1.039  -4.933   1.115  0.00  0.00    +0.025 A 
ATOM     10  C   UNL     1       1.869  -3.872   1.422  0.00  0.00    +0.030 A 
BRANCH   5  11
ATOM     11  S   UNL     1       3.791  -2.017   0.864  0.00  0.00    +0.072 S 
ATOM     12  O   UNL     1       3.234  -1.392   2.013  0.00  0.00    -0.150 OA
ATOM     13  O   UNL     1       4.019  -1.314  -0.349  0.00  0.00    -0.150 OA
BRANCH  11  14
ATOM     14  N   UNL     1       5.250  -2.647   1.329  0.00  0.00    -0.216 N 
ATOM     15  H   UNL     1       6.049  -2.448   0.817  0.00  0.00    +0.174 HD
BRANCH  14  19
ATOM     16  C   UNL     1       5.489  -5.085   4.695  0.00  0.00    +0.000 A 
ATOM     17  C   UNL     1       6.121  -5.462   3.524  0.00  0.00    +0.002 A 
ATOM     18  C   UNL     1       6.043  -4.655   2.406  0.00  0.00    +0.024 A 
ATOM     19  C   UNL     1       5.330  -3.465   2.458  0.00  0.00    +0.048 A 
ATOM     20  C   UNL     1       4.696  -3.090   3.636  0.00  0.00    +0.024 A 
ATOM     21  C   UNL     1       4.778  -3.901   4.751  0.00  0.00    +0.002 A 
ENDBRANCH  14  19
ENDBRANCH  11  14
ENDBRANCH   5  11
ENDBRANCH   1   8
BRANCH   2  22
ATOM     22  C   UNL     1      -0.265  -8.636  -1.743  0.00  0.00    +0.107 C 
BRANCH  22  23
ATOM     23  C   UNL     1       0.459  -9.582  -2.703  0.00  0.00    +0.086 C 
BRANCH  23  24
ATOM     24  S   UNL     1      -0.672 -10.902  -3.219  0.00  0.00    -0.086 S 
BRANCH  24  25
ATOM     25  C   UNL     1       0.297 -11.894  -4.307  0.00  0.00    +0.190 A 
ATOM     26  N   UNL     1      -0.125 -13.017  -4.960  0.00  0.00    -0.303 N 
ATOM     27  H   UNL     1      -1.011 -13.408  -4.908  0.00  0.00    +0.171 HD
ATOM     28  C   UNL     1       0.921 -13.491  -5.702  0.00  0.00    +0.235 A 
ATOM     29  N   UNL     1       1.945 -12.695  -5.515  0.00  0.00    -0.111 NA
ATOM     30  N   UNL     1       1.549 -11.680  -4.635  0.00  0.00    -0.121 NA
ATOM     31  N   UNL     1       0.901 -14.619  -6.512  0.00  0.00    -0.205 N 
ATOM     32  H   UNL     1       0.091 -15.148  -6.588  0.00  0.00    +0.177 HD
BRANCH  31  33
ATOM     33  N   UNL     1       2.050 -14.993  -7.221  0.00  0.00    -0.189 NA
ATOM     34  C   UNL     1       2.005 -15.974  -8.041  0.00  0.00    +0.037 C 
ATOM     35  C   UNL     1       0.676 -16.650  -8.362  0.00  0.00    +0.052 C 
ATOM     36  C   UNL     1       0.589 -17.009  -9.821  0.00  0.00    +0.006 C 
ATOM     37  C   UNL     1       1.162 -18.415 -10.049  0.00  0.00    +0.000 C 
ATOM     38  C   UNL     1       2.626 -18.424 -10.119  0.00  0.00    +0.000 C 
ATOM     39  C   UNL     1       3.283 -17.982  -8.804  0.00  0.00    +0.006 C 
ATOM     40  C   UNL     1       3.280 -16.476  -8.712  0.00  0.00    +0.052 C 
ENDBRANCH  31  33
ENDBRANCH  24  25
ENDBRANCH  23  24
ENDBRANCH  22  23
ENDBRANCH   2  22
TORSDOF 9
