REMARK  Name = ZINC33058390
REMARK  11 active torsions:
REMARK  status: ('A' for Active; 'I' for Inactive)
REMARK    1  A    between atoms: C_1  and  C_2
REMARK    2  A    between atoms: C_5  and  N_8
REMARK    3  A    between atoms: N_8  and  C_9
REMARK    4  A    between atoms: C_10  and  S_25
REMARK    5  A    between atoms: C_11  and  N_24
REMARK    6  A    between atoms: C_12  and  C_14
REMARK    7  A    between atoms: C_14  and  C_16
REMARK    8  A    between atoms: C_20  and  O_22
REMARK    9  A    between atoms: O_22  and  C_23
REMARK   10  A    between atoms: S_25  and  C_28
REMARK   11  A    between atoms: C_31  and  C_34
REMARK                            x       y       z     vdW  Elec       q    Type
REMARK                         _______ _______ _______ _____ _____    ______ ____
ROOT
ATOM      1  C   UNL     1      -2.061   9.433   4.056  0.00  0.00    +0.098 A 
ATOM      2  C   UNL     1      -2.483   8.675   5.131  0.00  0.00    +0.143 A 
ATOM      3  C   UNL     1      -2.917   7.392   4.908  0.00  0.00    +0.070 A 
ATOM      4  C   UNL     1      -2.910   6.910   3.592  0.00  0.00    +0.084 A 
ATOM      5  S   UNL     1      -2.272   8.309   2.685  0.00  0.00    -0.066 S 
ENDROOT
BRANCH   3   6
ATOM      6  N   UNL     1      -3.349   6.592   5.959  0.00  0.00    -0.355 N 
ATOM      7  H   UNL     1      -3.694   5.566   5.764  0.00  0.00    +0.142 HD
ATOM      8  H   UNL     1      -3.348   6.985   6.987  0.00  0.00    +0.142 HD
ENDBRANCH   3   6
BRANCH   2   9
ATOM      9  S   UNL     1      -2.465   9.344   6.761  0.00  0.00    +0.029 S 
ATOM     10  O   UNL     1      -2.389  10.755   6.619  0.00  0.00    -0.164 OA
ATOM     11  O   UNL     1      -3.515   8.704   7.474  0.00  0.00    -0.164 OA
BRANCH   9  12
ATOM     12  C   UNL     1      -0.958   8.832   7.517  0.00  0.00    +0.094 A 
ATOM     13  C   UNL     1      -0.909   7.648   8.229  0.00  0.00    +0.027 A 
ATOM     14  C   UNL     1       0.274   7.245   8.819  0.00  0.00    +0.005 A 
ATOM     15  C   UNL     1       1.406   8.029   8.704  0.00  0.00    -0.050 A 
ATOM     16  C   UNL     1       1.356   9.216   7.997  0.00  0.00    +0.005 A 
ATOM     17  C   UNL     1       0.174   9.617   7.403  0.00  0.00    +0.027 A 
ATOM     18  C   UNL     1       2.695   7.591   9.350  0.00  0.00    +0.044 C 
ENDBRANCH   9  12
ENDBRANCH   2   9
BRANCH   1  19
ATOM     19  N   UNL     1      -1.589  10.733   4.045  0.00  0.00    -0.307 N 
ATOM     20  H   UNL     1      -1.609  11.333   4.966  0.00  0.00    +0.153 HD
BRANCH  19  25
ATOM     21  C   UNL     1       0.452  12.969  -0.751  0.00  0.00    +0.044 C 
ATOM     22  C   UNL     1      -0.090  12.375   0.524  0.00  0.00    -0.050 A 
ATOM     23  C   UNL     1      -0.755  13.179   1.431  0.00  0.00    +0.005 A 
ATOM     24  C   UNL     1      -1.254  12.637   2.600  0.00  0.00    +0.023 A 
ATOM     25  C   UNL     1      -1.086  11.284   2.863  0.00  0.00    +0.032 A 
ATOM     26  C   UNL     1      -0.412  10.480   1.952  0.00  0.00    +0.023 A 
ATOM     27  C   UNL     1       0.078  11.027   0.783  0.00  0.00    +0.005 A 
ENDBRANCH  19  25
ENDBRANCH   1  19
BRANCH   4  28
ATOM     28  C   UNL     1      -3.301   5.649   3.111  0.00  0.00    +0.202 C 
ATOM     29  O   UNL     1      -3.587   4.759   3.895  0.00  0.00    -0.286 OA
BRANCH  28  30
ATOM     30  C   UNL     1      -3.365   5.399   1.654  0.00  0.00    +0.026 A 
ATOM     31  C   UNL     1      -3.253   4.099   1.160  0.00  0.00    +0.012 A 
ATOM     32  C   UNL     1      -3.314   3.870  -0.199  0.00  0.00    +0.004 A 
ATOM     33  C   UNL     1      -3.489   4.925  -1.075  0.00  0.00    +0.045 A 
ATOM     34  C   UNL     1      -3.595   6.223  -0.594  0.00  0.00    +0.121 A 
ATOM     35  C   UNL     1      -3.536   6.463   0.769  0.00  0.00    +0.057 A 
BRANCH  34  36
ATOM     36  O   UNL     1      -3.763   7.257  -1.460  0.00  0.00    -0.495 OA
ATOM     37  C   UNL     1      -3.815   6.936  -2.851  0.00  0.00    +0.277 C 
ENDBRANCH  34  36
ENDBRANCH  28  30
ENDBRANCH   4  28
TORSDOF 8
