REMARK  Name = ZINC38661497
REMARK  7 active torsions:
REMARK  status: ('A' for Active; 'I' for Inactive)
REMARK    1  A    between atoms: C_6  and  N_7
REMARK    2  A    between atoms: N_7  and  S_8
REMARK    3  A    between atoms: S_8  and  C_11
REMARK    4  A    between atoms: C_19  and  C_22
REMARK    5  A    between atoms: C_22  and  O_24
REMARK    6  A    between atoms: O_24  and  C_25
REMARK    7  A    between atoms: C_25  and  C_26
REMARK                            x       y       z     vdW  Elec       q    Type
REMARK                         _______ _______ _______ _____ _____    ______ ____
ROOT
ATOM      1  C   UNL     1      -0.140  -3.260  -0.421  0.00  0.00    +0.109 A 
ATOM      2  C   UNL     1       1.204  -3.171  -0.806  0.00  0.00    +0.030 A 
ATOM      3  C   UNL     1       2.151  -4.033  -0.366  0.00  0.00    +0.026 A 
ATOM      4  C   UNL     1       1.810  -5.079   0.520  0.00  0.00    +0.041 A 
ATOM      5  N   UNL     1       2.741  -5.919   0.947  0.00  0.00    -0.285 N 
ATOM      6  C   UNL     1       2.491  -6.923   1.780  0.00  0.00    +0.222 C 
ATOM      7  O   UNL     1       3.392  -7.658   2.134  0.00  0.00    -0.275 OA
ATOM      8  C   UNL     1       1.085  -7.151   2.287  0.00  0.00    +0.139 C 
ATOM      9  C   UNL     1       0.008  -6.197   1.806  0.00  0.00    +0.054 C 
ATOM     10  C   UNL     1       0.397  -5.194   0.943  0.00  0.00    +0.008 A 
ATOM     11  C   UNL     1      -0.570  -4.224   0.430  0.00  0.00    +0.039 A 
ATOM     12  H   UNL     1       3.651  -5.794   0.636  0.00  0.00    +0.155 HD
ENDROOT
BRANCH   1  13
ATOM     13  S   UNL     1      -1.296  -2.089  -1.050  0.00  0.00    +0.072 S 
ATOM     14  O   UNL     1      -2.587  -2.653  -0.865  0.00  0.00    -0.150 OA
ATOM     15  O   UNL     1      -0.815  -1.689  -2.326  0.00  0.00    -0.150 OA
BRANCH  13  16
ATOM     16  N   UNL     1      -1.219  -0.752  -0.075  0.00  0.00    -0.216 N 
ATOM     17  H   UNL     1      -0.953   0.104  -0.446  0.00  0.00    +0.174 HD
BRANCH  16  23
ATOM     18  C   UNL     1      -0.713  -0.278   2.237  0.00  0.00    +0.027 A 
ATOM     19  C   UNL     1      -1.030  -0.383   3.577  0.00  0.00    +0.040 A 
ATOM     20  C   UNL     1      -2.168  -1.067   3.969  0.00  0.00    +0.124 A 
ATOM     21  C   UNL     1      -2.991  -1.647   3.019  0.00  0.00    +0.040 A 
ATOM     22  C   UNL     1      -2.678  -1.544   1.677  0.00  0.00    +0.027 A 
ATOM     23  C   UNL     1      -1.537  -0.858   1.282  0.00  0.00    +0.048 A 
ATOM     24  F   UNL     1      -2.476  -1.168   5.281  0.00  0.00    -0.205 F 
ENDBRANCH  16  23
ENDBRANCH  13  16
ENDBRANCH   1  13
BRANCH   9  25
ATOM     25  C   UNL     1      -1.395  -6.336   2.244  0.00  0.00    +0.337 C 
ATOM     26  O   UNL     1      -2.214  -5.497   1.931  0.00  0.00    -0.245 OA
BRANCH  25  27
ATOM     27  O   UNL     1      -1.766  -7.394   2.992  0.00  0.00    -0.452 OA
BRANCH  27  28
ATOM     28  C   UNL     1      -3.139  -7.465   3.380  0.00  0.00    +0.327 C 
BRANCH  28  29
ATOM     29  C   UNL     1      -3.365  -8.706   4.205  0.00  0.00    +0.248 C 
ATOM     30  O   UNL     1      -2.441  -9.456   4.437  0.00  0.00    -0.272 OA
ATOM     31  N   UNL     1      -4.595  -8.982   4.684  0.00  0.00    -0.327 N 
ATOM     32  H   UNL     1      -5.334  -8.382   4.498  0.00  0.00    +0.145 HD
ATOM     33  H   UNL     1      -4.740  -9.780   5.214  0.00  0.00    +0.145 HD
ENDBRANCH  28  29
ENDBRANCH  27  28
ENDBRANCH  25  27
ENDBRANCH   9  25
TORSDOF 7
