REMARK  Name = ZINC51048352
REMARK  7 active torsions:
REMARK  status: ('A' for Active; 'I' for Inactive)
REMARK    1  A    between atoms: C_1  and  C_2
REMARK    2  A    between atoms: C_2  and  C_3
REMARK    3  A    between atoms: C_3  and  N_4
REMARK    4  A    between atoms: C_8  and  C_10
REMARK    5  A    between atoms: C_10  and  N_11
REMARK    6  A    between atoms: C_15  and  C_18
REMARK    7  A    between atoms: N_20  and  C_21
REMARK                            x       y       z     vdW  Elec       q    Type
REMARK                         _______ _______ _______ _____ _____    ______ ____
ROOT
ATOM      1  N   UNL     1       2.716  -6.659   4.411  0.00  0.00    +0.386 N 
ATOM      2  C   UNL     1       4.122  -6.243   4.344  0.00  0.00    -0.078 C 
ATOM      3  C   UNL     1       4.848  -6.678   5.619  0.00  0.00    -0.018 C 
ATOM      4  C   UNL     1       4.770  -8.201   5.750  0.00  0.00    +0.009 C 
ATOM      5  C   UNL     1       3.300  -8.630   5.744  0.00  0.00    +0.058 C 
ATOM      6  C   UNL     1       2.632  -8.124   4.464  0.00  0.00    -0.065 C 
ATOM      7  H   UNL     1       2.291  -6.269   5.238  0.00  0.00    -0.081 HD
ENDROOT
BRANCH   5   8
ATOM      8  C   UNL     1       3.215 -10.134   5.796  0.00  0.00    +0.215 C 
ATOM      9  O   UNL     1       2.669 -10.742   4.900  0.00  0.00    -0.276 OA
ATOM     10  N   UNL     1       3.745 -10.803   6.839  0.00  0.00    -0.312 N 
ATOM     11  H   UNL     1       4.181 -10.317   7.556  0.00  0.00    +0.149 HD
BRANCH  10  12
ATOM     12  C   UNL     1       3.662 -12.265   6.890  0.00  0.00    +0.073 C 
ATOM     13  C   UNL     1       3.284 -12.905   8.227  0.00  0.00    +0.024 C 
ATOM     14  C   UNL     1       4.720 -13.005   7.710  0.00  0.00    +0.024 C 
ENDBRANCH  10  12
ENDBRANCH   5   8
BRANCH   1  15
ATOM     15  C   UNL     1       2.005  -6.173   3.221  0.00  0.00    +0.019 C 
BRANCH  15  20
ATOM     16  N   UNL     1       0.762  -1.976   1.234  0.00  0.00    -0.299 N 
ATOM     17  C   UNL     1       1.364  -2.647   2.235  0.00  0.00    +0.306 C 
ATOM     18  O   UNL     1       1.891  -2.037   3.145  0.00  0.00    -0.252 OA
ATOM     19  N   UNL     1       1.383  -3.995   2.228  0.00  0.00    -0.242 N 
ATOM     20  C   UNL     1       1.985  -4.666   3.229  0.00  0.00    +0.204 C 
ATOM     21  O   UNL     1       2.510  -4.058   4.137  0.00  0.00    -0.277 OA
ATOM     22  H   UNL     1       0.342  -2.462   0.507  0.00  0.00    +0.150 HD
ATOM     23  H   UNL     1       0.962  -4.481   1.502  0.00  0.00    +0.159 HD
BRANCH  16  24
ATOM     24  C   UNL     1       0.742  -0.511   1.242  0.00  0.00    +0.105 C 
BRANCH  24  26
ATOM     25  C   UNL     1      -0.019   1.526   0.010  0.00  0.00    +0.005 C 
ATOM     26  C   UNL     1       0.002  -0.004   0.002  0.00  0.00    +0.015 C 
ENDBRANCH  24  26
ENDBRANCH  16  24
ENDBRANCH  15  20
ENDBRANCH   1  15
TORSDOF 6
