REMARK  Name = ZINC39303583
REMARK  7 active torsions:
REMARK  status: ('A' for Active; 'I' for Inactive)
REMARK    1  A    between atoms: C_4  and  C_7
REMARK    2  A    between atoms: C_7  and  C_8
REMARK    3  A    between atoms: C_7  and  N_14
REMARK    4  A    between atoms: N_14  and  C_15
REMARK    5  A    between atoms: C_15  and  C_17
REMARK    6  A    between atoms: C_15  and  C_22
REMARK    7  A    between atoms: N_27  and  C_30
REMARK                            x       y       z     vdW  Elec       q    Type
REMARK                         _______ _______ _______ _____ _____    ______ ____
ROOT
ATOM      1  C   UNL     1       3.432  -1.339  -2.317  0.00  0.00    +0.055 C 
ENDROOT
BRANCH   1   2
ATOM      2  C   UNL     1       3.507  -2.499  -3.276  0.00  0.00    +0.206 C 
ATOM      3  O   UNL     1       3.848  -3.593  -2.880  0.00  0.00    -0.277 OA
ATOM      4  N   UNL     1       3.194  -2.320  -4.575  0.00  0.00    -0.300 N 
ATOM      5  C   UNL     1       2.904  -0.976  -5.096  0.00  0.00    +0.126 C 
ATOM      6  C   UNL     1       3.837  -0.699  -6.282  0.00  0.00    +0.124 C 
ATOM      7  N   UNL     1       3.780  -1.843  -7.202  0.00  0.00    -0.327 N 
ATOM      8  C   UNL     1       4.070  -3.186  -6.681  0.00  0.00    +0.124 C 
ATOM      9  C   UNL     1       3.142  -3.463  -5.497  0.00  0.00    +0.126 C 
BRANCH   7  10
ATOM     10  C   UNL     1       3.456  -1.657  -8.545  0.00  0.00    +0.035 C 
ATOM     11  C   UNL     1       3.032  -0.449  -9.043  0.00  0.00    +0.023 C 
ATOM     12  C   UNL     1       2.777  -0.292 -10.424  0.00  0.00    -0.000 C 
ATOM     13  C   UNL     1       2.617  -1.316 -11.271  0.00  0.00    +0.004 C 
ATOM     14  C   UNL     1       2.654  -2.715 -10.735  0.00  0.00    +0.160 C 
ATOM     15  C   UNL     1       3.545  -2.697  -9.499  0.00  0.00    +0.003 C 
ATOM     16  C   UNL     1       4.330  -3.776  -9.614  0.00  0.00    +0.027 C 
ATOM     17  C   UNL     1       4.206  -4.307 -10.920  0.00  0.00    +0.106 C 
ATOM     18  N   UNL     1       3.266  -3.704 -11.609  0.00  0.00    -0.279 NA
ENDBRANCH   7  10
ENDBRANCH   1   2
BRANCH   1  19
ATOM     19  C   UNL     1       4.709  -0.542  -2.392  0.00  0.00    -0.015 A 
ATOM     20  C   UNL     1       4.954   0.619  -3.046  0.00  0.00    +0.010 A 
ATOM     21  C   UNL     1       6.216   1.177  -2.973  0.00  0.00    +0.008 A 
ATOM     22  C   UNL     1       7.173   0.546  -2.249  0.00  0.00    +0.045 A 
ATOM     23  S   UNL     1       6.291  -0.879  -1.635  0.00  0.00    -0.103 S 
ENDBRANCH   1  19
BRANCH   1  24
ATOM     24  N   UNL     1       3.251  -1.846  -0.950  0.00  0.00    +0.397 N 
ATOM     25  H   UNL     1       4.068  -2.369  -0.674  0.00  0.00    -0.083 HD
ATOM     26  H   UNL     1       2.441  -2.447  -0.919  0.00  0.00    -0.083 HD
BRANCH  24  27
ATOM     27  C   UNL     1       3.059  -0.717  -0.030  0.00  0.00    -0.009 C 
BRANCH  27  31
ATOM     28  C   UNL     1      -0.588   1.292  -0.987  0.00  0.00    +0.000 A 
ATOM     29  C   UNL     1       0.532   2.022  -0.635  0.00  0.00    +0.000 A 
ATOM     30  C   UNL     1       1.712   1.372  -0.326  0.00  0.00    +0.002 A 
ATOM     31  C   UNL     1       1.772  -0.008  -0.367  0.00  0.00    -0.057 A 
ATOM     32  C   UNL     1       0.652  -0.739  -0.718  0.00  0.00    +0.002 A 
ATOM     33  C   UNL     1      -0.528  -0.089  -1.028  0.00  0.00    +0.000 A 
ENDBRANCH  27  31
BRANCH  27  34
ATOM     34  C   UNL     1       2.995  -1.227   1.386  0.00  0.00    -0.057 A 
ATOM     35  C   UNL     1       2.322  -2.401   1.668  0.00  0.00    +0.002 A 
ATOM     36  C   UNL     1       2.264  -2.869   2.967  0.00  0.00    +0.000 A 
ATOM     37  C   UNL     1       2.879  -2.164   3.985  0.00  0.00    +0.000 A 
ATOM     38  C   UNL     1       3.554  -0.991   3.702  0.00  0.00    +0.000 A 
ATOM     39  C   UNL     1       3.615  -0.525   2.402  0.00  0.00    +0.002 A 
ENDBRANCH  27  34
ENDBRANCH  24  27
ENDBRANCH   1  24
TORSDOF 7
