REMARK  Name = ZINC27549859
REMARK  13 active torsions:
REMARK  status: ('A' for Active; 'I' for Inactive)
REMARK    1  A    between atoms: C_1  and  C_2
REMARK    2  A    between atoms: C_2  and  C_3
REMARK    3  A    between atoms: C_3  and  C_5
REMARK    4  A    between atoms: C_3  and  C_6
REMARK    5  A    between atoms: C_11  and  O_12
REMARK    6  A    between atoms: O_12  and  C_13
REMARK    7  A    between atoms: C_13  and  C_14
REMARK    8  A    between atoms: C_14  and  O_15
REMARK    9  A    between atoms: O_15  and  C_16
REMARK   10  A    between atoms: C_17  and  O_36
REMARK   11  A    between atoms: C_19  and  C_23
REMARK   12  A    between atoms: C_33  and  C_35
REMARK   13  A    between atoms: O_36  and  C_37
REMARK                            x       y       z     vdW  Elec       q    Type
REMARK                         _______ _______ _______ _____ _____    ______ ____
ROOT
ATOM      1  C   UNL     1      -5.835   0.502   3.598  0.00  0.00    +0.180 A 
ATOM      2  C   UNL     1      -6.729  -0.086   4.494  0.00  0.00    +0.164 A 
ATOM      3  C   UNL     1      -7.358   0.685   5.449  0.00  0.00    +0.057 A 
ATOM      4  C   UNL     1      -7.096   2.062   5.518  0.00  0.00    -0.019 A 
ATOM      5  C   UNL     1      -6.197   2.645   4.615  0.00  0.00    +0.032 A 
ATOM      6  C   UNL     1      -5.571   1.865   3.668  0.00  0.00    +0.087 A 
ATOM      7 CL   UNL     1      -4.452   2.588   2.554  0.00  0.00    -0.080 Cl
ENDROOT
BRANCH   4   8
ATOM      8  C   UNL     1      -7.761   2.886   6.530  0.00  0.00    +0.024 C 
ATOM      9  C   UNL     1      -7.080   3.922   7.130  0.00  0.00    +0.081 C 
ATOM     10  C   UNL     1      -7.764   4.897   8.025  0.00  0.00    +0.152 C 
ATOM     11  N   UNL     1      -8.770   4.580   8.796  0.00  0.00    -0.283 NA
ATOM     12  N   UNL     1      -7.218   6.197   7.959  0.00  0.00    -0.152 N 
ATOM     13  C   UNL     1      -5.914   6.318   7.528  0.00  0.00    +0.181 C 
ATOM     14  N   UNL     1      -5.132   5.371   7.075  0.00  0.00    -0.152 NA
ATOM     15  C   UNL     1      -5.624   4.123   6.924  0.00  0.00    +0.273 C 
ATOM     16  O   UNL     1      -4.897   3.190   6.624  0.00  0.00    -0.268 OA
ATOM     17  S   UNL     1      -5.615   8.054   7.732  0.00  0.00    -0.038 S 
ATOM     18  C   UNL     1      -7.256   8.512   8.273  0.00  0.00    +0.097 C 
ATOM     19  N   UNL     1      -7.869   7.363   8.299  0.00  0.00    -0.170 NA
ATOM     20  C   UNL     1      -7.794   9.878   8.613  0.00  0.00    +0.075 C 
ATOM     21  H   UNL     1      -9.180   5.254   9.360  0.00  0.00    +0.188 HD
ENDBRANCH   4   8
BRANCH   2  22
ATOM     22  O   UNL     1      -6.981  -1.420   4.424  0.00  0.00    -0.491 OA
ATOM     23  C   UNL     1      -7.907  -1.956   5.372  0.00  0.00    +0.277 C 
ENDBRANCH   2  22
BRANCH   1  24
ATOM     24  O   UNL     1      -5.218  -0.260   2.659  0.00  0.00    -0.483 OA
BRANCH  24  25
ATOM     25  C   UNL     1      -3.969  -0.851   3.022  0.00  0.00    +0.270 C 
BRANCH  25  26
ATOM     26  C   UNL     1      -3.430  -1.667   1.845  0.00  0.00    +0.270 C 
BRANCH  26  27
ATOM     27  O   UNL     1      -3.131  -0.791   0.756  0.00  0.00    -0.488 OA
BRANCH  27  33
ATOM     28  C   UNL     1      -2.328  -0.570  -1.472  0.00  0.00    -0.003 A 
ATOM     29  C   UNL     1      -1.822  -1.150  -2.619  0.00  0.00    +0.007 A 
ATOM     30  C   UNL     1      -1.632  -2.518  -2.677  0.00  0.00    +0.001 A 
ATOM     31  C   UNL     1      -1.947  -3.309  -1.588  0.00  0.00    +0.004 A 
ATOM     32  C   UNL     1      -2.452  -2.734  -0.438  0.00  0.00    +0.046 A 
ATOM     33  C   UNL     1      -2.639  -1.361  -0.376  0.00  0.00    +0.124 A 
BRANCH  28  34
ATOM     34  C   UNL     1      -2.535   0.921  -1.410  0.00  0.00    +0.019 C 
ATOM     35  C   UNL     1      -3.524   1.345  -2.498  0.00  0.00    +0.012 C 
BRANCH  34  37
ATOM     36  C   UNL     1      -1.385   3.139  -1.444  0.00  0.00    +0.004 C 
ATOM     37  C   UNL     1      -1.198   1.632  -1.631  0.00  0.00    +0.004 C 
ENDBRANCH  34  37
ENDBRANCH  28  34
ENDBRANCH  27  33
ENDBRANCH  26  27
ENDBRANCH  25  26
ENDBRANCH  24  25
ENDBRANCH   1  24
TORSDOF 9
