REMARK  Name = ZINC18254848
REMARK  8 active torsions:
REMARK  status: ('A' for Active; 'I' for Inactive)
REMARK    1  A    between atoms: C_1  and  C_2
REMARK    2  A    between atoms: C_4  and  C_18
REMARK    3  A    between atoms: C_5  and  C_17
REMARK    4  A    between atoms: N_6  and  C_7
REMARK    5  A    between atoms: C_10  and  S_13
REMARK    6  A    between atoms: S_13  and  N_16
REMARK    7  A    between atoms: C_23  and  N_25
REMARK    8  A    between atoms: N_25  and  C_26
REMARK                            x       y       z     vdW  Elec       q    Type
REMARK                         _______ _______ _______ _____ _____    ______ ____
ROOT
ATOM      1  C   UNL     1      -1.743   1.475  -0.207  0.00  0.00    +0.064 C 
ATOM      2  C   UNL     1      -1.619  -0.027  -0.191  0.00  0.00    +0.022 A 
ATOM      3  C   UNL     1      -1.317  -0.794  -1.253  0.00  0.00    +0.031 A 
ATOM      4  C   UNL     1      -1.305  -2.183  -0.776  0.00  0.00    -0.003 A 
ATOM      5  C   UNL     1      -1.610  -2.126   0.571  0.00  0.00    +0.028 A 
ATOM      6  N   UNL     1      -1.789  -0.824   0.906  0.00  0.00    -0.317 N 
ATOM      7  C   UNL     1      -1.717  -3.304   1.505  0.00  0.00    +0.064 C 
ENDROOT
BRANCH   4   8
ATOM      8  C   UNL     1      -1.027  -3.385  -1.567  0.00  0.00    +0.030 C 
ATOM      9  C   UNL     1      -0.742  -3.276  -2.892  0.00  0.00    +0.080 C 
ATOM     10  C   UNL     1      -0.437  -4.328  -3.885  0.00  0.00    +0.276 C 
ATOM     11  O   UNL     1      -0.411  -5.511  -3.582  0.00  0.00    -0.267 OA
ATOM     12  N   UNL     1      -0.197  -3.921  -5.112  0.00  0.00    -0.152 NA
ATOM     13  C   UNL     1      -0.222  -2.643  -5.454  0.00  0.00    +0.175 C 
ATOM     14  S   UNL     1      -0.636  -1.819  -3.924  0.00  0.00    -0.050 S 
BRANCH  13  15
ATOM     15  N   UNL     1       0.007  -2.086  -6.687  0.00  0.00    -0.192 NA
BRANCH  15  16
ATOM     16  C   UNL     1       0.114  -2.905  -7.815  0.00  0.00    +0.056 A 
ATOM     17  C   UNL     1      -0.473  -4.164  -7.819  0.00  0.00    +0.025 A 
ATOM     18  C   UNL     1      -0.367  -4.970  -8.936  0.00  0.00    +0.002 A 
ATOM     19  C   UNL     1       0.323  -4.525 -10.048  0.00  0.00    +0.000 A 
ATOM     20  C   UNL     1       0.909  -3.272 -10.047  0.00  0.00    +0.002 A 
ATOM     21  C   UNL     1       0.802  -2.459  -8.936  0.00  0.00    +0.025 A 
ENDBRANCH  15  16
ENDBRANCH  13  15
ENDBRANCH   4   8
BRANCH   6  22
ATOM     22  C   UNL     1      -2.106  -0.363   2.190  0.00  0.00    +0.047 A 
ATOM     23  C   UNL     1      -1.198  -0.516   3.229  0.00  0.00    +0.028 A 
ATOM     24  C   UNL     1      -1.513  -0.061   4.494  0.00  0.00    +0.030 A 
ATOM     25  C   UNL     1      -2.733   0.547   4.727  0.00  0.00    +0.105 A 
ATOM     26  C   UNL     1      -3.640   0.701   3.695  0.00  0.00    +0.030 A 
ATOM     27  C   UNL     1      -3.328   0.253   2.426  0.00  0.00    +0.028 A 
BRANCH  25  28
ATOM     28  S   UNL     1      -3.133   1.126   6.343  0.00  0.00    +0.056 S 
ATOM     29  O   UNL     1      -4.551   1.165   6.420  0.00  0.00    -0.153 OA
ATOM     30  O   UNL     1      -2.341   0.373   7.251  0.00  0.00    -0.153 OA
BRANCH  28  31
ATOM     31  N   UNL     1      -2.609   2.693   6.445  0.00  0.00    -0.204 NA
ATOM     32  H   UNL     1      -3.073   3.323   7.019  0.00  0.00    +0.144 HD
ATOM     33  H   UNL     1      -1.839   2.982   5.930  0.00  0.00    +0.144 HD
ENDBRANCH  28  31
ENDBRANCH  25  28
ENDBRANCH   6  22
TORSDOF 6
