REMARK  Name = ZINC08790741
REMARK  6 active torsions:
REMARK  status: ('A' for Active; 'I' for Inactive)
REMARK    1  A    between atoms: C_4  and  C_7
REMARK    2  A    between atoms: C_7  and  C_8
REMARK    3  A    between atoms: C_8  and  N_9
REMARK    4  A    between atoms: C_14  and  C_31
REMARK    5  A    between atoms: C_31  and  C_32
REMARK    6  A    between atoms: C_32  and  C_33
REMARK                            x       y       z     vdW  Elec       q    Type
REMARK                         _______ _______ _______ _____ _____    ______ ____
ROOT
ATOM      1  N   UNL     1       1.137   5.560   1.463  0.00  0.00    -0.241 N 
ATOM      2  C   UNL     1       0.002   6.268   1.477  0.00  0.00    +0.224 C 
ATOM      3  O   UNL     1      -1.116   5.799   1.482  0.00  0.00    -0.275 OA
ATOM      4  C   UNL     1       0.331   7.743   1.487  0.00  0.00    +0.073 C 
ATOM      5  C   UNL     1      -0.095   8.370   0.142  0.00  0.00    -0.057 C 
ATOM      6  C   UNL     1       2.241   8.393   0.111  0.00  0.00    +0.050 C 
ATOM      7  C   UNL     1       1.885   7.766   1.464  0.00  0.00    +0.088 C 
ATOM      8  C   UNL     1       2.253   6.298   1.461  0.00  0.00    +0.225 C 
ATOM      9  O   UNL     1       3.383   5.860   1.456  0.00  0.00    -0.275 OA
ATOM     10  C   UNL     1       2.552   9.857   0.248  0.00  0.00    -0.026 A 
ATOM     11  C   UNL     1       1.837  10.939   0.710  0.00  0.00    +0.004 A 
ATOM     12  C   UNL     1       2.410  12.198   0.713  0.00  0.00    +0.002 A 
ATOM     13  C   UNL     1       3.701  12.367   0.249  0.00  0.00    +0.022 A 
ATOM     14  C   UNL     1       4.422  11.286  -0.216  0.00  0.00    +0.062 A 
ATOM     15  C   UNL     1       3.853  10.014  -0.221  0.00  0.00    +0.054 A 
ATOM     16  N   UNL     1       4.370   8.783  -0.634  0.00  0.00    -0.285 N 
ATOM     17  C   UNL     1       3.485   7.780  -0.471  0.00  0.00    +0.211 C 
ATOM     18  O   UNL     1       3.658   6.611  -0.740  0.00  0.00    -0.277 OA
ATOM     19 CL   UNL     1       6.043  11.511  -0.796  0.00  0.00    -0.082 Cl
ATOM     20  H   UNL     1       5.262   8.665  -0.996  0.00  0.00    +0.155 HD
ATOM     21  N   UNL     1       1.071   8.178  -0.723  0.00  0.00    +0.394 N 
ATOM     22  H   UNL     1       1.056   8.854  -1.495  0.00  0.00    -0.083 HD
ATOM     23  H   UNL     1       1.077   7.224  -1.103  0.00  0.00    -0.083 HD
ENDROOT
BRANCH   1  24
ATOM     24  C   UNL     1       1.157   4.095   1.455  0.00  0.00    +0.121 C 
BRANCH  24  25
ATOM     25  C   UNL     1       1.151   3.592   0.010  0.00  0.00    +0.054 C 
BRANCH  25  29
ATOM     26  C   UNL     1       1.208  -0.679  -0.014  0.00  0.00    +0.000 A 
ATOM     27  C   UNL     1       0.002  -0.004   0.002  0.00  0.00    +0.000 A 
ATOM     28  C   UNL     1      -0.017   1.378   0.010  0.00  0.00    +0.004 A 
ATOM     29  C   UNL     1       1.171   2.086   0.002  0.00  0.00    -0.046 A 
ATOM     30  C   UNL     1       2.377   1.411  -0.014  0.00  0.00    +0.004 A 
ATOM     31  C   UNL     1       2.396   0.029  -0.022  0.00  0.00    +0.000 A 
ENDBRANCH  25  29
ENDBRANCH  24  25
ENDBRANCH   1  24
BRANCH   5  32
ATOM     32  C   UNL     1      -1.327   7.652  -0.413  0.00  0.00    -0.006 C 
BRANCH  32  33
ATOM     33  C   UNL     1      -1.805   8.365  -1.679  0.00  0.00    +0.094 C 
BRANCH  33  34
ATOM     34  C   UNL     1      -3.018   7.658  -2.226  0.00  0.00    +0.210 C 
ATOM     35  O   UNL     1      -3.457   6.680  -1.659  0.00  0.00    -0.276 OA
ATOM     36  N   UNL     1      -3.616   8.113  -3.345  0.00  0.00    -0.329 N 
ATOM     37  H   UNL     1      -3.265   8.896  -3.799  0.00  0.00    +0.145 HD
ATOM     38  H   UNL     1      -4.396   7.658  -3.697  0.00  0.00    +0.145 HD
ENDBRANCH  33  34
ENDBRANCH  32  33
ENDBRANCH   5  32
TORSDOF 6
