REMARK  Name = ZINC34997527
REMARK  12 active torsions:
REMARK  status: ('A' for Active; 'I' for Inactive)
REMARK    1  A    between atoms: C_1  and  C_2
REMARK    2  A    between atoms: C_2  and  C_3
REMARK    3  A    between atoms: C_3  and  C_4
REMARK    4  A    between atoms: C_4  and  N_5
REMARK    5  A    between atoms: N_8  and  C_9
REMARK    6  A    between atoms: N_8  and  C_26
REMARK    7  A    between atoms: C_9  and  C_10
REMARK    8  A    between atoms: C_10  and  N_11
REMARK    9  A    between atoms: N_19  and  C_20
REMARK   10  A    between atoms: C_26  and  C_27
REMARK   11  A    between atoms: C_35  and  C_36
REMARK   12  A    between atoms: C_35  and  C_37
REMARK                            x       y       z     vdW  Elec       q    Type
REMARK                         _______ _______ _______ _____ _____    ______ ____
ROOT
ATOM      1  N   UNL     1       1.467  -2.527   2.410  0.00  0.00    -0.299 N 
ATOM      2  C   UNL     1       1.611  -3.851   2.617  0.00  0.00    +0.302 C 
ATOM      3  O   UNL     1       1.152  -4.644   1.818  0.00  0.00    -0.253 OA
ATOM      4  N   UNL     1       2.264  -4.296   3.709  0.00  0.00    -0.283 N 
ATOM      5  H   UNL     1       1.833  -1.894   3.048  0.00  0.00    +0.150 HD
ENDROOT
BRANCH   1   6
ATOM      6  C   UNL     1       0.757  -2.044   1.223  0.00  0.00    +0.106 C 
BRANCH   6   7
ATOM      7  C   UNL     1       0.736  -0.514   1.230  0.00  0.00    +0.018 C 
BRANCH   7   9
ATOM      8  C   UNL     1      -0.027   1.521  -0.004  0.00  0.00    +0.004 C 
ATOM      9  C   UNL     1      -0.005  -0.009  -0.010  0.00  0.00    -0.002 C 
ENDBRANCH   7   9
ENDBRANCH   6   7
ENDBRANCH   1   6
BRANCH   4  10
ATOM     10  C   UNL     1       2.420  -5.735   3.933  0.00  0.00    +0.091 C 
BRANCH  10  11
ATOM     11  C   UNL     1       3.716  -6.216   3.277  0.00  0.00    -0.059 C 
BRANCH  11  12
ATOM     12  N   UNL     1       3.873  -7.659   3.502  0.00  0.00    +0.383 N 
ATOM     13  C   UNL     1       2.791  -8.379   2.820  0.00  0.00    -0.059 C 
ATOM     14  C   UNL     1       2.887  -9.873   3.148  0.00  0.00    +0.091 C 
ATOM     15  N   UNL     1       4.238 -10.340   2.804  0.00  0.00    -0.289 N 
ATOM     16  C   UNL     1       5.387  -9.575   3.313  0.00  0.00    +0.091 C 
ATOM     17  C   UNL     1       5.173  -8.096   2.978  0.00  0.00    -0.059 C 
ATOM     18  C   UNL     1       4.419 -11.438   2.043  0.00  0.00    +0.302 C 
ATOM     19  O   UNL     1       3.462 -12.109   1.706  0.00  0.00    -0.253 OA
ATOM     20  N   UNL     1       5.660 -11.792   1.655  0.00  0.00    -0.296 N 
ATOM     21  H   UNL     1       6.430 -11.300   1.983  0.00  0.00    +0.151 HD
ATOM     22  H   UNL     1       3.830  -7.850   4.492  0.00  0.00    -0.082 HD
BRANCH  20  23
ATOM     23  C   UNL     1       5.848 -12.919   0.738  0.00  0.00    +0.074 C 
ATOM     24  C   UNL     1       5.883 -14.224   1.534  0.00  0.00    +0.022 C 
ATOM     25  C   UNL     1       6.079 -15.401   0.576  0.00  0.00    +0.002 C 
ATOM     26  C   UNL     1       7.397 -15.229  -0.180  0.00  0.00    +0.000 C 
ATOM     27  C   UNL     1       7.362 -13.924  -0.977  0.00  0.00    +0.002 C 
ATOM     28  C   UNL     1       7.166 -12.747  -0.019  0.00  0.00    +0.022 C 
ENDBRANCH  20  23
ENDBRANCH  11  12
ENDBRANCH  10  11
ENDBRANCH   4  10
BRANCH   4  29
ATOM     29  C   UNL     1       2.817  -3.340   4.671  0.00  0.00    +0.140 C 
BRANCH  29  30
ATOM     30  C   UNL     1       1.783  -3.033   5.724  0.00  0.00    -0.053 C 
ATOM     31  C   UNL     1       1.763  -3.676   6.869  0.00  0.00    -0.025 C 
ATOM     32  C   UNL     1       0.716  -3.332   7.900  0.00  0.00    +0.031 C 
ATOM     33  C   UNL     1      -0.236  -2.268   7.336  0.00  0.00    -0.000 C 
ATOM     34  C   UNL     1      -0.679  -2.568   5.894  0.00  0.00    +0.012 C 
ATOM     35  C   UNL     1       0.728  -1.962   5.505  0.00  0.00    +0.022 C 
ATOM     36  C   UNL     1       0.555  -1.080   6.751  0.00  0.00    -0.025 C 
ATOM     37  C   UNL     1       1.865  -0.787   7.484  0.00  0.00    +0.012 C 
ATOM     38  C   UNL     1      -0.293   0.171   6.512  0.00  0.00    +0.012 C 
ENDBRANCH  29  30
ENDBRANCH   4  29
TORSDOF 9
