REMARK  Name = ZINC39940006
REMARK  7 active torsions:
REMARK  status: ('A' for Active; 'I' for Inactive)
REMARK    1  A    between atoms: C_1  and  C_2
REMARK    2  A    between atoms: C_2  and  N_3
REMARK    3  A    between atoms: N_10  and  N_11
REMARK    4  A    between atoms: C_12  and  C_13
REMARK    5  A    between atoms: C_21  and  C_23
REMARK    6  A    between atoms: N_29  and  C_30
REMARK    7  A    between atoms: C_30  and  C_31
REMARK                            x       y       z     vdW  Elec       q    Type
REMARK                         _______ _______ _______ _____ _____    ______ ____
ROOT
ATOM      1  N   UNL     1      -0.693  -4.469   1.282  0.00  0.00    -0.188 NA
ATOM      2  C   UNL     1      -1.176  -5.332   2.142  0.00  0.00    +0.137 C 
ENDROOT
BRANCH   1  10
ATOM      3  N   UNL     1       0.688  -0.476  -1.203  0.00  0.00    -0.314 N 
ATOM      4  C   UNL     1       0.830  -1.830  -1.430  0.00  0.00    +0.221 A 
ATOM      5  N   UNL     1       1.457  -2.259  -2.521  0.00  0.00    -0.181 NA
ATOM      6  C   UNL     1       1.595  -3.563  -2.740  0.00  0.00    +0.221 A 
ATOM      7  N   UNL     1       1.105  -4.438  -1.867  0.00  0.00    -0.180 NA
ATOM      8  C   UNL     1       0.478  -4.010  -0.776  0.00  0.00    +0.241 A 
ATOM      9  N   UNL     1       0.345  -2.706  -0.555  0.00  0.00    -0.180 NA
ATOM     10  N   UNL     1      -0.032  -4.921   0.132  0.00  0.00    -0.205 N 
ATOM     11  N   UNL     1       2.245  -4.008  -3.872  0.00  0.00    -0.314 N 
ATOM     12  H   UNL     1       1.042   0.162  -1.842  0.00  0.00    +0.149 HD
ATOM     13  H   UNL     1       0.068  -5.872  -0.027  0.00  0.00    +0.177 HD
ATOM     14  H   UNL     1       2.602  -3.370  -4.509  0.00  0.00    +0.149 HD
BRANCH   3  16
ATOM     15  C   UNL     1      -0.019   1.526   0.010  0.00  0.00    +0.024 C 
ATOM     16  C   UNL     1       0.002  -0.004   0.002  0.00  0.00    +0.101 C 
ENDBRANCH   3  16
BRANCH  11  17
ATOM     17  C   UNL     1       2.397  -5.446  -4.113  0.00  0.00    +0.101 C 
ATOM     18  C   UNL     1       3.148  -5.667  -5.427  0.00  0.00    +0.024 C 
ENDBRANCH  11  17
ENDBRANCH   1  10
BRANCH   2  19
ATOM     19  C   UNL     1      -1.836  -4.881   3.291  0.00  0.00    +0.008 C 
ATOM     20  C   UNL     1      -2.069  -3.557   3.664  0.00  0.00    +0.005 A 
ATOM     21  C   UNL     1      -1.744  -2.324   3.059  0.00  0.00    +0.010 A 
ATOM     22  C   UNL     1      -2.104  -1.162   3.662  0.00  0.00    +0.001 A 
ATOM     23  C   UNL     1      -2.795  -1.152   4.876  0.00  0.00    +0.002 A 
ATOM     24  C   UNL     1      -3.140  -2.297   5.513  0.00  0.00    +0.026 A 
ATOM     25  C   UNL     1      -2.797  -3.552   4.944  0.00  0.00    +0.044 A 
ATOM     26  N   UNL     1      -3.013  -4.784   5.357  0.00  0.00    -0.373 N 
ATOM     27  C   UNL     1      -2.452  -5.726   4.383  0.00  0.00    +0.142 C 
ATOM     28  H   UNL     1      -3.474  -5.030   6.174  0.00  0.00    +0.161 HD
BRANCH  27  29
ATOM     29  C   UNL     1      -3.541  -6.598   3.813  0.00  0.00    -0.021 A 
ATOM     30  C   UNL     1      -4.794  -6.068   3.569  0.00  0.00    +0.006 A 
ATOM     31  C   UNL     1      -5.793  -6.867   3.046  0.00  0.00    +0.000 A 
ATOM     32  C   UNL     1      -5.539  -8.197   2.767  0.00  0.00    +0.000 A 
ATOM     33  C   UNL     1      -4.285  -8.727   3.010  0.00  0.00    +0.000 A 
ATOM     34  C   UNL     1      -3.285  -7.926   3.529  0.00  0.00    +0.006 A 
ENDBRANCH  27  29
ENDBRANCH   2  19
TORSDOF 5
