REMARK  Name = ZINC38789990
REMARK  10 active torsions:
REMARK  status: ('A' for Active; 'I' for Inactive)
REMARK    1  A    between atoms: C_1  and  C_2
REMARK    2  A    between atoms: C_9  and  C_14
REMARK    3  A    between atoms: C_14  and  N_15
REMARK    4  A    between atoms: N_15  and  C_16
REMARK    5  A    between atoms: C_19  and  N_22
REMARK    6  A    between atoms: N_22  and  C_23
REMARK    7  A    between atoms: N_22  and  C_26
REMARK    8  A    between atoms: C_23  and  C_24
REMARK    9  A    between atoms: C_24  and  O_25
REMARK   10  A    between atoms: C_26  and  C_27
REMARK                            x       y       z     vdW  Elec       q    Type
REMARK                         _______ _______ _______ _____ _____    ______ ____
ROOT
ATOM      1  C   UNL     1       2.254  -7.022   3.753  0.00  0.00    +0.027 A 
ATOM      2  C   UNL     1       3.362  -6.337   4.231  0.00  0.00    +0.025 A 
ATOM      3  C   UNL     1       4.378  -7.024   4.866  0.00  0.00    +0.025 A 
ATOM      4  C   UNL     1       4.291  -8.400   5.026  0.00  0.00    +0.030 A 
ATOM      5  C   UNL     1       3.182  -9.086   4.549  0.00  0.00    +0.025 A 
ATOM      6  C   UNL     1       2.163  -8.398   3.918  0.00  0.00    +0.025 A 
ENDROOT
BRANCH   1   7
ATOM      7  N   UNL     1       1.224  -6.326   3.109  0.00  0.00    -0.343 N 
ATOM      8  H   UNL     1       0.448  -6.804   2.779  0.00  0.00    +0.146 HD
BRANCH   7   9
ATOM      9  C   UNL     1       1.319  -4.874   2.934  0.00  0.00    +0.118 C 
BRANCH   9  18
ATOM     10  C   UNL     1      -0.018   1.503   0.010  0.00  0.00    +0.044 C 
ATOM     11  C   UNL     1       0.002  -0.004   0.002  0.00  0.00    -0.050 A 
ATOM     12  C   UNL     1       0.005  -0.680  -1.218  0.00  0.00    +0.005 A 
ATOM     13  C   UNL     1       0.024  -2.036  -1.305  0.00  0.00    +0.024 A 
ATOM     14  C   UNL     1       0.041  -2.826  -0.141  0.00  0.00    +0.040 A 
ATOM     15  N   UNL     1       0.059  -4.155  -0.238  0.00  0.00    -0.284 N 
ATOM     16  C   UNL     1       0.075  -4.956   0.815  0.00  0.00    +0.226 C 
ATOM     17  O   UNL     1       0.092  -6.163   0.663  0.00  0.00    -0.275 OA
ATOM     18  C   UNL     1       0.073  -4.365   2.207  0.00  0.00    +0.115 C 
ATOM     19  C   UNL     1       0.053  -2.854   2.322  0.00  0.00    -0.003 C 
ATOM     20  C   UNL     1       0.037  -2.138   1.162  0.00  0.00    -0.007 A 
ATOM     21  C   UNL     1       0.022  -0.675   1.183  0.00  0.00    +0.012 A 
ATOM     22  H   UNL     1       0.061  -4.554  -1.122  0.00  0.00    +0.155 HD
ENDBRANCH   9  18
ENDBRANCH   7   9
ENDBRANCH   1   7
BRANCH   4  23
ATOM     23  N   UNL     1       5.321  -9.097   5.669  0.00  0.00    -0.323 N 
BRANCH  23  24
ATOM     24  C   UNL     1       6.491  -8.374   6.173  0.00  0.00    +0.133 C 
BRANCH  24  25
ATOM     25  C   UNL     1       6.236  -7.932   7.615  0.00  0.00    +0.174 C 
BRANCH  25  26
ATOM     26  O   UNL     1       6.115  -9.084   8.452  0.00  0.00    -0.393 OA
ATOM     27  H   UNL     1       5.952  -8.879   9.383  0.00  0.00    +0.209 HD
ENDBRANCH  25  26
ENDBRANCH  24  25
ENDBRANCH  23  24
BRANCH  23  28
ATOM     28  C   UNL     1       5.228 -10.549   5.839  0.00  0.00    +0.140 C 
BRANCH  28  29
ATOM     29  C   UNL     1       5.849 -11.234   4.649  0.00  0.00    -0.030 A 
ATOM     30  C   UNL     1       5.075 -11.541   3.546  0.00  0.00    +0.005 A 
ATOM     31  C   UNL     1       5.644 -12.169   2.454  0.00  0.00    +0.000 A 
ATOM     32  C   UNL     1       6.989 -12.491   2.465  0.00  0.00    +0.000 A 
ATOM     33  C   UNL     1       7.763 -12.184   3.568  0.00  0.00    +0.000 A 
ATOM     34  C   UNL     1       7.195 -11.551   4.658  0.00  0.00    +0.005 A 
ENDBRANCH  28  29
ENDBRANCH  23  28
ENDBRANCH   4  23
TORSDOF 9
