REMARK  Name = ZINC39243038
REMARK  6 active torsions:
REMARK  status: ('A' for Active; 'I' for Inactive)
REMARK    1  A    between atoms: C_1  and  C_2
REMARK    2  A    between atoms: C_7  and  N_8
REMARK    3  A    between atoms: C_14  and  C_15
REMARK    4  A    between atoms: C_19  and  C_21
REMARK    5  A    between atoms: C_24  and  S_27
REMARK    6  A    between atoms: S_27  and  N_30
REMARK                            x       y       z     vdW  Elec       q    Type
REMARK                         _______ _______ _______ _____ _____    ______ ____
ROOT
ATOM      1  C   UNL     1      -0.169  -4.919   5.875  0.00  0.00    +0.153 C 
ATOM      2  C   UNL     1       0.938  -5.684   6.564  0.00  0.00    +0.006 C 
ATOM      3  C   UNL     1       0.354  -6.704   7.185  0.00  0.00    +0.026 C 
ATOM      4  C   UNL     1      -1.095  -6.659   6.944  0.00  0.00    +0.066 C 
ATOM      5  N   UNL     1      -1.407  -5.641   6.193  0.00  0.00    -0.272 NA
ENDROOT
BRANCH   1  12
ATOM      6  N   UNL     1       0.025  -0.037   2.398  0.00  0.00    -0.225 NA
ATOM      7  C   UNL     1      -0.055  -0.702   3.528  0.00  0.00    +0.166 C 
ATOM      8  N   UNL     1      -0.167  -0.204   4.808  0.00  0.00    -0.260 N 
ATOM      9  C   UNL     1      -0.236  -1.020   5.847  0.00  0.00    +0.256 C 
ATOM     10  O   UNL     1      -0.336  -0.599   6.983  0.00  0.00    -0.269 OA
ATOM     11  C   UNL     1      -0.187  -2.474   5.558  0.00  0.00    +0.076 C 
ATOM     12  C   UNL     1      -0.237  -3.510   6.404  0.00  0.00    +0.024 C 
ATOM     13  S   UNL     1      -0.051  -2.470   3.777  0.00  0.00    -0.049 S 
ATOM     14  H   UNL     1      -0.195   0.755   4.949  0.00  0.00    +0.157 HD
BRANCH   6  21
ATOM     15  C   UNL     1      -1.696   0.532   0.209  0.00  0.00    +0.046 C 
ATOM     16  C   UNL     1      -0.570  -0.466   0.117  0.00  0.00    -0.025 A 
ATOM     17  C   UNL     1      -0.339  -1.140  -1.065  0.00  0.00    +0.005 A 
ATOM     18  C   UNL     1       0.694  -2.056  -1.152  0.00  0.00    +0.000 A 
ATOM     19  C   UNL     1       1.502  -2.303  -0.056  0.00  0.00    +0.002 A 
ATOM     20  C   UNL     1       1.283  -1.637   1.131  0.00  0.00    +0.028 A 
ATOM     21  C   UNL     1       0.245  -0.706   1.225  0.00  0.00    +0.069 A 
ENDBRANCH   6  21
ENDBRANCH   1  12
BRANCH   4  22
ATOM     22  C   UNL     1      -2.069  -7.639   7.480  0.00  0.00    +0.000 A 
ATOM     23  C   UNL     1      -1.632  -8.694   8.281  0.00  0.00    +0.012 A 
ATOM     24  C   UNL     1      -2.543  -9.603   8.777  0.00  0.00    +0.029 A 
ATOM     25  C   UNL     1      -3.888  -9.470   8.482  0.00  0.00    +0.105 A 
ATOM     26  C   UNL     1      -4.328  -8.425   7.689  0.00  0.00    +0.029 A 
ATOM     27  C   UNL     1      -3.427  -7.506   7.191  0.00  0.00    +0.012 A 
BRANCH  25  28
ATOM     28  S   UNL     1      -5.046 -10.635   9.119  0.00  0.00    +0.056 S 
ATOM     29  O   UNL     1      -6.172 -10.605   8.253  0.00  0.00    -0.153 OA
ATOM     30  O   UNL     1      -4.319 -11.828   9.382  0.00  0.00    -0.153 OA
BRANCH  28  31
ATOM     31  N   UNL     1      -5.561 -10.062  10.585  0.00  0.00    -0.204 NA
ATOM     32  H   UNL     1      -5.216  -9.223  10.927  0.00  0.00    +0.144 HD
ATOM     33  H   UNL     1      -6.209 -10.566  11.102  0.00  0.00    +0.144 HD
ENDBRANCH  28  31
ENDBRANCH  25  28
ENDBRANCH   4  22
TORSDOF 5
