REMARK  Name = ZINC16610165
REMARK  14 active torsions:
REMARK  status: ('A' for Active; 'I' for Inactive)
REMARK    1  A    between atoms: C_1  and  C_2
REMARK    2  A    between atoms: C_3  and  C_30
REMARK    3  A    between atoms: C_4  and  C_11
REMARK    4  A    between atoms: N_9  and  C_10
REMARK    5  A    between atoms: C_14  and  N_17
REMARK    6  A    between atoms: N_20  and  C_21
REMARK    7  A    between atoms: C_24  and  C_27
REMARK    8  A    between atoms: C_27  and  C_28
REMARK    9  A    between atoms: C_27  and  C_29
REMARK   10  A    between atoms: C_30  and  O_32
REMARK   11  A    between atoms: O_32  and  C_33
REMARK   12  A    between atoms: C_33  and  C_34
REMARK   13  A    between atoms: C_34  and  C_35
REMARK   14  A    between atoms: C_34  and  C_36
REMARK                            x       y       z     vdW  Elec       q    Type
REMARK                         _______ _______ _______ _____ _____    ______ ____
ROOT
ATOM      1  C   UNL     1      -3.944   8.771   6.502  0.00  0.00    -0.022 A 
ATOM      2  C   UNL     1      -4.455   7.868   7.417  0.00  0.00    +0.007 A 
ATOM      3  C   UNL     1      -4.322   6.511   7.197  0.00  0.00    +0.024 A 
ATOM      4  C   UNL     1      -3.675   6.054   6.056  0.00  0.00    +0.035 A 
ATOM      5  C   UNL     1      -3.160   6.963   5.142  0.00  0.00    +0.024 A 
ATOM      6  C   UNL     1      -3.300   8.319   5.365  0.00  0.00    +0.007 A 
ENDROOT
BRANCH   1  10
ATOM      7  C   UNL     1      -0.876  12.213   7.573  0.00  0.00    +0.061 C 
ATOM      8  C   UNL     1      -2.119  11.707   6.887  0.00  0.00    +0.021 C 
ATOM      9  C   UNL     1      -2.849  10.730   7.470  0.00  0.00    +0.078 C 
ATOM     10  C   UNL     1      -4.090  10.251   6.746  0.00  0.00    +0.141 C 
ATOM     11  N   UNL     1      -4.402  10.894   5.458  0.00  0.00    -0.315 N 
ATOM     12  C   UNL     1      -3.575  11.858   5.006  0.00  0.00    +0.137 C 
ATOM     13  S   UNL     1      -3.925  12.615   3.511  0.00  0.00    -0.018 S 
ATOM     14  N   UNL     1      -2.489  12.243   5.688  0.00  0.00    -0.289 N 
ATOM     15  C   UNL     1      -1.651  13.299   5.115  0.00  0.00    +0.137 C 
ATOM     16  H   UNL     1      -5.183  10.631   4.947  0.00  0.00    +0.149 HD
BRANCH   9  17
ATOM     17  C   UNL     1      -2.466  10.175   8.713  0.00  0.00    +0.339 C 
ATOM     18  O   UNL     1      -1.465  10.575   9.276  0.00  0.00    -0.245 OA
BRANCH  17  19
ATOM     19  O   UNL     1      -3.212   9.200   9.274  0.00  0.00    -0.461 OA
BRANCH  19  20
ATOM     20  C   UNL     1      -2.767   8.684  10.530  0.00  0.00    +0.235 C 
BRANCH  20  21
ATOM     21  C   UNL     1      -3.732   7.596  11.005  0.00  0.00    +0.020 C 
ATOM     22  C   UNL     1      -3.190   6.958  12.286  0.00  0.00    +0.010 C 
ATOM     23  C   UNL     1      -5.103   8.216  11.285  0.00  0.00    +0.010 C 
ENDBRANCH  20  21
ENDBRANCH  19  20
ENDBRANCH  17  19
ENDBRANCH   9  17
ENDBRANCH   1  10
BRANCH   4  24
ATOM     24  N   UNL     1      -3.539   4.679   5.830  0.00  0.00    -0.269 N 
ATOM     25  C   UNL     1      -4.498   3.829   6.246  0.00  0.00    +0.308 C 
ATOM     26  O   UNL     1      -5.526   4.263   6.732  0.00  0.00    -0.252 OA
ATOM     27  N   UNL     1      -4.320   2.499   6.124  0.00  0.00    -0.269 N 
ATOM     28  H   UNL     1      -2.753   4.338   5.375  0.00  0.00    +0.156 HD
ATOM     29  H   UNL     1      -3.472   2.151   5.806  0.00  0.00    +0.156 HD
BRANCH  27  30
ATOM     30  C   UNL     1      -5.358   1.621   6.454  0.00  0.00    +0.035 A 
ATOM     31  C   UNL     1      -6.679   1.994   6.244  0.00  0.00    +0.023 A 
ATOM     32  C   UNL     1      -7.701   1.125   6.572  0.00  0.00    +0.006 A 
ATOM     33  C   UNL     1      -7.410  -0.116   7.109  0.00  0.00    -0.045 A 
ATOM     34  C   UNL     1      -6.096  -0.488   7.324  0.00  0.00    +0.006 A 
ATOM     35  C   UNL     1      -5.069   0.374   6.993  0.00  0.00    +0.023 A 
BRANCH  33  36
ATOM     36  C   UNL     1      -8.527  -1.062   7.465  0.00  0.00    +0.013 C 
ATOM     37  C   UNL     1      -8.468  -1.382   8.960  0.00  0.00    +0.012 C 
ATOM     38  C   UNL     1      -8.377  -2.355   6.661  0.00  0.00    +0.012 C 
ENDBRANCH  33  36
ENDBRANCH  27  30
ENDBRANCH   4  24
TORSDOF 8
