REMARK  Name = ZINC12309648
REMARK  12 active torsions:
REMARK  status: ('A' for Active; 'I' for Inactive)
REMARK    1  A    between atoms: C_1  and  C_2
REMARK    2  A    between atoms: C_2  and  C_3
REMARK    3  A    between atoms: C_3  and  C_4
REMARK    4  A    between atoms: C_10  and  N_11
REMARK    5  A    between atoms: N_11  and  O_12
REMARK    6  A    between atoms: O_12  and  C_13
REMARK    7  A    between atoms: C_13  and  C_14
REMARK    8  A    between atoms: N_16  and  C_17
REMARK    9  A    between atoms: C_21  and  N_23
REMARK   10  A    between atoms: C_24  and  C_26
REMARK   11  A    between atoms: N_29  and  C_34
REMARK   12  A    between atoms: N_32  and  C_33
REMARK                            x       y       z     vdW  Elec       q    Type
REMARK                         _______ _______ _______ _____ _____    ______ ____
ROOT
ATOM      1  N   UNL     1      -8.073   5.886   0.415  0.00  0.00    -0.264 N 
ATOM      2  H   UNL     1      -7.805   6.879   0.026  0.00  0.00    +0.194 HD
ENDROOT
BRANCH   1   9
ATOM      3  C   UNL     1     -10.409   6.553   0.615  0.00  0.00    -0.005 A 
ATOM      4  C   UNL     1     -11.639   6.152   0.975  0.00  0.00    +0.090 A 
ATOM      5  N   UNL     1     -11.916   4.843   1.264  0.00  0.00    -0.347 N 
ATOM      6  H   UNL     1     -12.855   4.579   1.774  0.00  0.00    +0.167 HD
ATOM      7  C   UNL     1     -11.063   3.835   0.942  0.00  0.00    +0.129 A 
ATOM      8  C   UNL     1      -9.755   4.128   0.561  0.00  0.00    +0.106 A 
ATOM      9  C   UNL     1      -9.336   5.543   0.526  0.00  0.00    +0.082 A 
ATOM     10  C   UNL     1      -8.870   3.075   0.240  0.00  0.00    +0.268 A 
ATOM     11  O   UNL     1      -7.721   3.308  -0.088  0.00  0.00    -0.267 OA
ATOM     12  N   UNL     1      -9.326   1.804   0.297  0.00  0.00    -0.263 N 
ATOM     13  C   UNL     1     -10.594   1.544   0.657  0.00  0.00    +0.333 A 
ATOM     14  O   UNL     1     -10.971   0.388   0.695  0.00  0.00    -0.246 OA
ATOM     15  N   UNL     1     -11.460   2.523   0.976  0.00  0.00    -0.282 N 
ATOM     16  C   UNL     1     -12.833   2.187   1.362  0.00  0.00    +0.155 C 
ATOM     17  C   UNL     1      -8.426   0.697  -0.038  0.00  0.00    +0.157 C 
BRANCH   3  18
ATOM     18  C   UNL     1     -10.131   8.002   0.308  0.00  0.00    +0.038 C 
BRANCH  18  20
ATOM     19  C   UNL     1     -11.112  10.129  -0.561  0.00  0.00    +0.004 C 
ATOM     20  C   UNL     1     -11.395   8.658  -0.250  0.00  0.00    +0.001 C 
ENDBRANCH  18  20
ENDBRANCH   3  18
ENDBRANCH   1   9
BRANCH   1  21
ATOM     21  O   UNL     1      -7.056   4.977   0.797  0.00  0.00    -0.265 OA
BRANCH  21  22
ATOM     22  C   UNL     1      -5.731   5.481   0.624  0.00  0.00    +0.288 C 
BRANCH  22  23
ATOM     23  C   UNL     1      -4.735   4.437   1.059  0.00  0.00    +0.246 C 
ATOM     24  O   UNL     1      -5.122   3.366   1.476  0.00  0.00    -0.273 OA
ATOM     25  N   UNL     1      -3.414   4.693   0.984  0.00  0.00    -0.283 N 
ATOM     26  H   UNL     1      -3.060   5.634   0.538  0.00  0.00    +0.155 HD
BRANCH  25  27
ATOM     27  C   UNL     1      -2.492   3.761   1.473  0.00  0.00    +0.035 A 
ATOM     28  C   UNL     1      -1.321   4.195   2.082  0.00  0.00    +0.023 A 
ATOM     29  C   UNL     1      -0.408   3.275   2.561  0.00  0.00    +0.004 A 
ATOM     30  C   UNL     1      -0.660   1.922   2.445  0.00  0.00    +0.023 A 
ATOM     31  C   UNL     1      -1.831   1.482   1.841  0.00  0.00    +0.035 A 
ATOM     32  C   UNL     1      -2.748   2.402   1.355  0.00  0.00    +0.046 A 
BRANCH  31  33
ATOM     33  N   UNL     1      -2.086   0.111   1.724  0.00  0.00    -0.286 N 
ATOM     34  C   UNL     1      -1.556  -0.752   2.615  0.00  0.00    +0.214 C 
ATOM     35  O   UNL     1      -0.938  -0.333   3.570  0.00  0.00    -0.276 OA
ATOM     36  C   UNL     1      -1.733  -2.236   2.422  0.00  0.00    +0.109 C 
ATOM     37  H   UNL     1      -2.719  -0.263   0.906  0.00  0.00    +0.155 HD
ENDBRANCH  31  33
ENDBRANCH  25  27
ENDBRANCH  22  23
ENDBRANCH  21  22
ENDBRANCH   1  21
TORSDOF 8
