REMARK  Name = ZINC39723519
REMARK  10 active torsions:
REMARK  status: ('A' for Active; 'I' for Inactive)
REMARK    1  A    between atoms: C_1  and  C_2
REMARK    2  A    between atoms: C_4  and  C_32
REMARK    3  A    between atoms: C_5  and  N_9
REMARK    4  A    between atoms: C_6  and  C_8
REMARK    5  A    between atoms: C_10  and  C_12
REMARK    6  A    between atoms: C_12  and  S_13
REMARK    7  A    between atoms: S_13  and  C_14
REMARK    8  A    between atoms: C_20  and  C_22
REMARK    9  A    between atoms: C_22  and  O_23
REMARK   10  A    between atoms: O_23  and  C_24
REMARK                            x       y       z     vdW  Elec       q    Type
REMARK                         _______ _______ _______ _____ _____    ______ ____
ROOT
ATOM      1  C   UNL     1      -0.738  -8.847   2.096  0.00  0.00    +0.160 A 
ATOM      2  N   UNL     1      -0.995  -9.488   0.966  0.00  0.00    -0.133 NA
ATOM      3  N   UNL     1      -1.203 -10.732   0.937  0.00  0.00    -0.125 NA
ATOM      4  C   UNL     1      -1.178 -11.473   2.033  0.00  0.00    +0.189 A 
ATOM      5  S   UNL     1      -0.800 -10.215   3.250  0.00  0.00    -0.024 S 
ATOM      6  N   UNL     1      -1.382 -12.841   2.193  0.00  0.00    -0.260 N 
ATOM      7  C   UNL     1      -1.653 -13.612   1.121  0.00  0.00    +0.256 C 
ATOM      8  O   UNL     1      -1.719 -13.114   0.017  0.00  0.00    -0.272 OA
ATOM      9  H   UNL     1      -1.329 -13.239   3.076  0.00  0.00    +0.157 HD
ENDROOT
BRANCH   1  10
ATOM     10  S   UNL     1      -0.418  -7.138   2.382  0.00  0.00    -0.088 S 
BRANCH  10  11
ATOM     11  C   UNL     1      -0.526  -6.390   0.733  0.00  0.00    +0.172 C 
BRANCH  11  13
ATOM     12  N   UNL     1      -0.299  -4.141  -0.272  0.00  0.00    -0.284 N 
ATOM     13  C   UNL     1      -0.270  -4.908   0.836  0.00  0.00    +0.227 C 
ATOM     14  O   UNL     1      -0.036  -4.407   1.915  0.00  0.00    -0.275 OA
ATOM     15  H   UNL     1      -0.421  -4.551  -1.143  0.00  0.00    +0.155 HD
BRANCH  12  20
ATOM     16  C   UNL     1       0.286   1.486   0.157  0.00  0.00    +0.044 C 
ATOM     17  C   UNL     1       0.130  -0.009   0.043  0.00  0.00    -0.050 A 
ATOM     18  C   UNL     1       1.121  -0.844   0.526  0.00  0.00    +0.008 A 
ATOM     19  C   UNL     1       0.982  -2.215   0.423  0.00  0.00    -0.029 A 
ATOM     20  C   UNL     1      -0.155  -2.753  -0.166  0.00  0.00    +0.039 A 
ATOM     21  C   UNL     1      -1.148  -1.911  -0.649  0.00  0.00    -0.029 A 
ATOM     22  C   UNL     1      -1.005  -0.542  -0.539  0.00  0.00    +0.008 A 
ATOM     23  C   UNL     1      -2.383  -2.491  -1.289  0.00  0.00    +0.045 C 
ATOM     24  C   UNL     1       2.062  -3.124   0.949  0.00  0.00    +0.045 C 
ENDBRANCH  12  20
ENDBRANCH  11  13
ENDBRANCH  10  11
ENDBRANCH   1  10
BRANCH   7  25
ATOM     25  C   UNL     1      -1.874 -15.093   1.295  0.00  0.00    +0.325 C 
BRANCH  25  26
ATOM     26  O   UNL     1      -2.142 -15.687   0.023  0.00  0.00    -0.481 OA
BRANCH  26  27
ATOM     27  C   UNL     1      -2.366 -17.027   0.003  0.00  0.00    +0.140 A 
ATOM     28  C   UNL     1      -2.333 -17.755   1.184  0.00  0.00    +0.048 A 
ATOM     29  C   UNL     1      -2.561 -19.117   1.161  0.00  0.00    +0.023 A 
ATOM     30  C   UNL     1      -2.821 -19.757  -0.038  0.00  0.00    +0.043 A 
ATOM     31  C   UNL     1      -2.854 -19.034  -1.217  0.00  0.00    +0.043 A 
ATOM     32  C   UNL     1      -2.633 -17.669  -1.198  0.00  0.00    +0.084 A 
ATOM     33 CL   UNL     1      -2.681 -16.761  -2.677  0.00  0.00    -0.080 Cl
ATOM     34 CL   UNL     1      -3.106 -21.469  -0.062  0.00  0.00    -0.083 Cl
ENDBRANCH  26  27
ENDBRANCH  25  26
ENDBRANCH   7  25
TORSDOF 7
