REMARK  Name = ZINC58224233
REMARK  9 active torsions:
REMARK  status: ('A' for Active; 'I' for Inactive)
REMARK    1  A    between atoms: C_1  and  C_2
REMARK    2  A    between atoms: C_2  and  C_4
REMARK    3  A    between atoms: C_2  and  O_18
REMARK    4  A    between atoms: N_6  and  C_7
REMARK    5  A    between atoms: C_8  and  C_15
REMARK    6  A    between atoms: O_18  and  C_19
REMARK    7  A    between atoms: C_19  and  C_21
REMARK    8  A    between atoms: C_24  and  N_28
REMARK    9  A    between atoms: C_26  and  N_27
REMARK                            x       y       z     vdW  Elec       q    Type
REMARK                         _______ _______ _______ _____ _____    ______ ____
ROOT
ATOM      1  C   UNL     1      -0.060   1.469   0.002  0.00  0.00    +0.062 C 
ATOM      2  C   UNL     1      -0.009  -0.060  -0.013  0.00  0.00    +0.259 C 
ENDROOT
BRANCH   2   3
ATOM      3  C   UNL     1      -1.412  -0.610  -0.013  0.00  0.00    +0.258 C 
ATOM      4  O   UNL     1      -1.812  -1.253   0.934  0.00  0.00    -0.271 OA
ATOM      5  N   UNL     1      -2.224  -0.386  -1.066  0.00  0.00    -0.276 N 
ATOM      6  H   UNL     1      -1.904   0.129  -1.823  0.00  0.00    +0.155 HD
BRANCH   5   7
ATOM      7  C   UNL     1      -3.515  -0.892  -1.066  0.00  0.00    +0.084 A 
ATOM      8  C   UNL     1      -4.476  -0.768  -2.052  0.00  0.00    +0.068 A 
ATOM      9  C   UNL     1      -5.771  -1.401  -1.807  0.00  0.00    -0.023 A 
ATOM     10  C   UNL     1      -5.858  -2.034  -0.624  0.00  0.00    -0.004 A 
ATOM     11  S   UNL     1      -4.267  -1.800   0.127  0.00  0.00    -0.077 S 
ATOM     12  C   UNL     1      -7.210  -2.662  -0.422  0.00  0.00    +0.043 C 
ATOM     13  C   UNL     1      -8.120  -1.974  -1.464  0.00  0.00    +0.010 C 
ATOM     14  C   UNL     1      -7.101  -1.554  -2.542  0.00  0.00    +0.037 C 
BRANCH   8  15
ATOM     15  C   UNL     1      -4.208  -0.033  -3.291  0.00  0.00    +0.244 C 
ATOM     16  O   UNL     1      -3.748  -0.614  -4.257  0.00  0.00    -0.270 OA
ATOM     17  N   UNL     1      -4.470   1.288  -3.362  0.00  0.00    -0.325 N 
ATOM     18  H   UNL     1      -4.836   1.751  -2.592  0.00  0.00    +0.145 HD
ATOM     19  H   UNL     1      -4.292   1.774  -4.182  0.00  0.00    +0.145 HD
ENDBRANCH   8  15
ENDBRANCH   5   7
ENDBRANCH   2   3
BRANCH   2  20
ATOM     20  O   UNL     1       0.684  -0.525   1.147  0.00  0.00    -0.449 OA
BRANCH  20  21
ATOM     21  C   UNL     1       2.018  -0.683   1.040  0.00  0.00    +0.342 C 
ATOM     22  O   UNL     1       2.577  -0.433  -0.010  0.00  0.00    -0.245 OA
BRANCH  21  23
ATOM     23  C   UNL     1       2.799  -1.159   2.195  0.00  0.00    +0.080 A 
ATOM     24  C   UNL     1       2.182  -1.330   3.438  0.00  0.00    +0.019 A 
ATOM     25  C   UNL     1       2.917  -1.775   4.514  0.00  0.00    +0.033 A 
ATOM     26  C   UNL     1       4.268  -2.055   4.372  0.00  0.00    +0.128 A 
ATOM     27  C   UNL     1       4.891  -1.891   3.153  0.00  0.00    +0.056 A 
ATOM     28  C   UNL     1       4.165  -1.449   2.054  0.00  0.00    +0.041 A 
BRANCH  28  29
ATOM     29  N   UNL     1       4.788  -1.290   0.823  0.00  0.00    -0.357 N 
ATOM     30  H   UNL     1       4.301  -0.902   0.079  0.00  0.00    +0.142 HD
ATOM     31  H   UNL     1       5.711  -1.565   0.708  0.00  0.00    +0.142 HD
ENDBRANCH  28  29
BRANCH  26  32
ATOM     32  N   UNL     1       5.046  -2.532   5.538  0.00  0.00    +0.056 N 
ATOM     33  O   UNL     1       4.504  -2.676   6.609  0.00  0.00    -0.126 OA
ATOM     34  O   UNL     1       6.224  -2.777   5.418  0.00  0.00    -0.126 OA
ENDBRANCH  26  32
ENDBRANCH  21  23
ENDBRANCH  20  21
ENDBRANCH   2  20
TORSDOF 8
