REMARK  Name = ZINC38547580
REMARK  9 active torsions:
REMARK  status: ('A' for Active; 'I' for Inactive)
REMARK    1  A    between atoms: C_1  and  C_2
REMARK    2  A    between atoms: C_6  and  N_8
REMARK    3  A    between atoms: N_8  and  C_9
REMARK    4  A    between atoms: C_9  and  C_11
REMARK    5  A    between atoms: C_9  and  C_18
REMARK    6  A    between atoms: C_19  and  C_32
REMARK    7  A    between atoms: C_20  and  C_31
REMARK    8  A    between atoms: C_22  and  N_23
REMARK    9  A    between atoms: C_24  and  C_26
REMARK                            x       y       z     vdW  Elec       q    Type
REMARK                         _______ _______ _______ _____ _____    ______ ____
ROOT
ATOM      1  C   UNL     1       0.378  -4.475   2.304  0.00  0.00    +0.135 C 
ENDROOT
BRANCH   1   2
ATOM      2  C   UNL     1       1.681  -5.222   2.435  0.00  0.00    -0.023 A 
ATOM      3  C   UNL     1       2.717  -4.680   3.172  0.00  0.00    +0.008 A 
ATOM      4  C   UNL     1       3.911  -5.365   3.293  0.00  0.00    +0.038 A 
ATOM      5  C   UNL     1       4.070  -6.594   2.675  0.00  0.00    +0.123 A 
ATOM      6  C   UNL     1       3.031  -7.136   1.937  0.00  0.00    +0.038 A 
ATOM      7  C   UNL     1       1.836  -6.452   1.822  0.00  0.00    +0.008 A 
ATOM      8  F   UNL     1       5.237  -7.264   2.792  0.00  0.00    -0.205 F 
ENDBRANCH   1   2
BRANCH   1   9
ATOM      9  C   UNL     1      -0.550  -4.886   3.418  0.00  0.00    +0.009 A 
ATOM     10  C   UNL     1      -1.640  -5.697   3.163  0.00  0.00    -0.033 A 
ATOM     11  C   UNL     1      -2.454  -6.048   4.187  0.00  0.00    -0.008 A 
ATOM     12  S   UNL     1      -1.688  -5.223   5.572  0.00  0.00    -0.078 S 
ATOM     13  C   UNL     1      -0.328  -4.468   4.696  0.00  0.00    +0.078 A 
ATOM     14  C   UNL     1      -3.689  -6.912   4.163  0.00  0.00    +0.052 C 
ATOM     15  C   UNL     1      -1.918  -6.185   1.764  0.00  0.00    +0.045 C 
BRANCH  13  16
ATOM     16  N   UNL     1       0.696  -3.659   5.191  0.00  0.00    -0.273 N 
ATOM     17  C   UNL     1       0.808  -3.450   6.518  0.00  0.00    +0.284 C 
ATOM     18  O   UNL     1       0.017  -3.967   7.284  0.00  0.00    -0.266 OA
ATOM     19  H   UNL     1       1.327  -3.246   4.580  0.00  0.00    +0.156 HD
BRANCH  17  20
ATOM     20  C   UNL     1       1.884  -2.600   7.038  0.00  0.00    +0.189 A 
ATOM     21  C   UNL     1       2.114  -2.311   8.353  0.00  0.00    +0.054 A 
ATOM     22  C   UNL     1       3.237  -1.470   8.391  0.00  0.00    +0.042 A 
ATOM     23  C   UNL     1       3.638  -1.284   7.114  0.00  0.00    +0.196 A 
ATOM     24  O   UNL     1       2.823  -1.970   6.302  0.00  0.00    -0.458 OA
ENDBRANCH  17  20
ENDBRANCH  13  16
ENDBRANCH   1   9
BRANCH   1  25
ATOM     25  N   UNL     1       0.632  -3.034   2.386  0.00  0.00    -0.320 N 
ATOM     26  H   UNL     1       0.370  -2.540   3.178  0.00  0.00    +0.148 HD
BRANCH  25  32
ATOM     27  C   UNL     1       2.288   1.071   0.565  0.00  0.00    +0.063 C 
ATOM     28  C   UNL     1       2.053  -0.410   0.425  0.00  0.00    +0.014 A 
ATOM     29  C   UNL     1       2.448  -1.057  -0.729  0.00  0.00    +0.021 A 
ATOM     30  C   UNL     1       2.229  -2.423  -0.853  0.00  0.00    +0.005 A 
ATOM     31  C   UNL     1       1.619  -3.091   0.194  0.00  0.00    +0.041 A 
ATOM     32  C   UNL     1       1.247  -2.376   1.327  0.00  0.00    +0.097 A 
ATOM     33  N   UNL     1       1.477  -1.074   1.409  0.00  0.00    -0.347 N 
ATOM     34  H   UNL     1       1.213  -0.597   2.211  0.00  0.00    +0.167 HD
ENDBRANCH  25  32
ENDBRANCH   1  25
TORSDOF 6
