REMARK  Name = ZINC12956239
REMARK  11 active torsions:
REMARK  status: ('A' for Active; 'I' for Inactive)
REMARK    1  A    between atoms: C_6  and  C_7
REMARK    2  A    between atoms: N_9  and  C_10
REMARK    3  A    between atoms: C_10  and  C_11
REMARK    4  A    between atoms: C_11  and  N_12
REMARK    5  A    between atoms: C_13  and  C_15
REMARK    6  A    between atoms: C_17  and  O_27
REMARK    7  A    between atoms: C_20  and  O_21
REMARK    8  A    between atoms: O_21  and  C_22
REMARK    9  A    between atoms: C_22  and  C_23
REMARK   10  A    between atoms: O_27  and  C_28
REMARK   11  A    between atoms: C_28  and  C_29
REMARK                            x       y       z     vdW  Elec       q    Type
REMARK                         _______ _______ _______ _____ _____    ______ ____
ROOT
ATOM      1  N   UNL     1       1.400   6.287   0.023  0.00  0.00    -0.310 N 
ATOM      2  C   UNL     1       2.537   5.564   0.009  0.00  0.00    +0.248 C 
ATOM      3  O   UNL     1       3.615   6.127   0.002  0.00  0.00    -0.270 OA
ATOM      4  H   UNL     1       0.540   5.838   0.029  0.00  0.00    +0.149 HD
ENDROOT
BRANCH   2   5
ATOM      5  C   UNL     1       2.474   4.090   0.001  0.00  0.00    +0.082 A 
ATOM      6  C   UNL     1       1.237   3.440   0.009  0.00  0.00    +0.062 A 
ATOM      7  C   UNL     1       1.186   2.059   0.002  0.00  0.00    +0.122 A 
ATOM      8  C   UNL     1       2.360   1.316  -0.008  0.00  0.00    +0.049 A 
ATOM      9  C   UNL     1       3.586   1.950  -0.021  0.00  0.00    +0.050 A 
ATOM     10  C   UNL     1       3.654   3.335  -0.014  0.00  0.00    +0.133 A 
BRANCH  10  11
ATOM     11  O   UNL     1       4.860   3.958  -0.021  0.00  0.00    -0.482 OA
BRANCH  11  12
ATOM     12  C   UNL     1       6.020   3.123  -0.036  0.00  0.00    +0.342 C 
BRANCH  12  13
ATOM     13  C   UNL     1       7.276   3.997  -0.043  0.00  0.00    +0.424 C 
ATOM     14  F   UNL     1       7.293   4.798   1.104  0.00  0.00    -0.167 F 
ATOM     15  F   UNL     1       8.412   3.181  -0.058  0.00  0.00    -0.167 F 
ATOM     16  F   UNL     1       7.272   4.811  -1.180  0.00  0.00    -0.167 F 
ENDBRANCH  12  13
ENDBRANCH  11  12
ENDBRANCH  10  11
BRANCH   7  17
ATOM     17  O   UNL     1      -0.017   1.425   0.010  0.00  0.00    -0.483 OA
BRANCH  17  18
ATOM     18  C   UNL     1       0.002  -0.004   0.002  0.00  0.00    +0.342 C 
BRANCH  18  19
ATOM     19  C   UNL     1      -1.433  -0.534   0.013  0.00  0.00    +0.424 C 
ATOM     20  F   UNL     1      -2.110  -0.070  -1.121  0.00  0.00    -0.167 F 
ATOM     21  F   UNL     1      -1.414  -1.933   0.005  0.00  0.00    -0.167 F 
ATOM     22  F   UNL     1      -2.088  -0.083   1.164  0.00  0.00    -0.167 F 
ENDBRANCH  18  19
ENDBRANCH  17  18
ENDBRANCH   7  17
ENDBRANCH   2   5
BRANCH   1  23
ATOM     23  C   UNL     1       1.462   7.751   0.031  0.00  0.00    +0.123 C 
BRANCH  23  24
ATOM     24  C   UNL     1       0.043   8.322   0.048  0.00  0.00    +0.123 C 
BRANCH  24  27
ATOM     25  C   UNL     1      -1.032  10.508   0.070  0.00  0.00    +0.244 C 
ATOM     26  O   UNL     1      -2.110   9.946   0.077  0.00  0.00    -0.270 OA
ATOM     27  N   UNL     1       0.105   9.785   0.055  0.00  0.00    -0.310 N 
ATOM     28  H   UNL     1       0.965  10.234   0.050  0.00  0.00    +0.149 HD
BRANCH  25  34
ATOM     29  C   UNL     1       0.267  12.633   0.076  0.00  0.00    +0.014 A 
ATOM     30  C   UNL     1       0.320  14.011   0.077  0.00  0.00    +0.022 A 
ATOM     31  C   UNL     1      -0.849  14.752   0.092  0.00  0.00    +0.059 A 
ATOM     32  C   UNL     1      -2.080  14.115   0.101  0.00  0.00    +0.060 A 
ATOM     33  C   UNL     1      -2.146  12.736   0.093  0.00  0.00    +0.034 A 
ATOM     34  C   UNL     1      -0.969  11.985   0.078  0.00  0.00    +0.038 A 
ATOM     35 CL   UNL     1      -3.542  15.052   0.119  0.00  0.00    -0.082 Cl
ATOM     36 CL   UNL     1      -0.774  16.487   0.101  0.00  0.00    -0.082 Cl
ENDBRANCH  25  34
ENDBRANCH  24  27
ENDBRANCH  23  24
ENDBRANCH   1  23
TORSDOF 11
