REMARK  Name = ZINC39665052
REMARK  7 active torsions:
REMARK  status: ('A' for Active; 'I' for Inactive)
REMARK    1  A    between atoms: C_1  and  C_2
REMARK    2  A    between atoms: C_2  and  C_4
REMARK    3  A    between atoms: C_2  and  O_31
REMARK    4  A    between atoms: C_4  and  N_5
REMARK    5  A    between atoms: C_6  and  C_8
REMARK    6  A    between atoms: C_19  and  C_21
REMARK    7  A    between atoms: O_31  and  C_32
REMARK                            x       y       z     vdW  Elec       q    Type
REMARK                         _______ _______ _______ _____ _____    ______ ____
ROOT
ATOM      1  C   UNL     1      -3.420  -3.064   0.578  0.00  0.00    +0.100 C 
ATOM      2  C   UNL     1      -2.734  -3.671  -0.666  0.00  0.00    +0.121 C 
ATOM      3  N   UNL     1      -3.639  -4.762  -1.098  0.00  0.00    -0.296 N 
ATOM      4  C   UNL     1      -5.002  -4.212  -0.897  0.00  0.00    +0.115 C 
ATOM      5  C   UNL     1      -4.908  -3.421   0.423  0.00  0.00    -0.004 C 
ATOM      6  C   UNL     1      -5.368  -4.287   1.591  0.00  0.00    -0.010 C 
ATOM      7  C   UNL     1      -6.864  -4.582   1.444  0.00  0.00    -0.082 C 
ATOM      8  N   UNL     1      -7.612  -3.319   1.420  0.00  0.00    +0.379 N 
ATOM      9  C   UNL     1      -7.230  -2.532   0.241  0.00  0.00    -0.082 C 
ATOM     10  C   UNL     1      -5.750  -2.151   0.338  0.00  0.00    -0.010 C 
ATOM     11  C   UNL     1      -3.301  -5.979  -1.568  0.00  0.00    +0.247 C 
ATOM     12  O   UNL     1      -2.136  -6.326  -1.574  0.00  0.00    -0.270 OA
ATOM     13  H   UNL     1      -8.601  -3.517   1.384  0.00  0.00    -0.086 HD
ATOM     14  H   UNL     1      -7.407  -2.792   2.255  0.00  0.00    -0.086 HD
ENDROOT
BRANCH  11  15
ATOM     15  C   UNL     1      -4.346  -6.891  -2.076  0.00  0.00    +0.037 A 
ATOM     16  C   UNL     1      -5.567  -6.367  -2.536  0.00  0.00    +0.013 A 
ATOM     17  C   UNL     1      -6.543  -7.185  -3.008  0.00  0.00    +0.009 A 
ATOM     18  C   UNL     1      -6.340  -8.577  -3.039  0.00  0.00    -0.018 A 
ATOM     19  C   UNL     1      -7.335  -9.443  -3.523  0.00  0.00    +0.008 A 
ATOM     20  C   UNL     1      -7.109 -10.785  -3.542  0.00  0.00    +0.001 A 
ATOM     21  C   UNL     1      -5.904 -11.318  -3.087  0.00  0.00    +0.001 A 
ATOM     22  C   UNL     1      -4.917 -10.510  -2.612  0.00  0.00    +0.008 A 
ATOM     23  C   UNL     1      -5.113  -9.118  -2.578  0.00  0.00    -0.017 A 
ATOM     24  C   UNL     1      -4.114  -8.257  -2.100  0.00  0.00    +0.021 A 
ENDBRANCH  11  15
BRANCH   1  26
ATOM     25  N   UNL     1      -3.182  -0.914   1.777  0.00  0.00    -0.312 N 
ATOM     26  C   UNL     1      -3.238  -1.568   0.601  0.00  0.00    +0.218 C 
ATOM     27  O   UNL     1      -3.143  -0.953  -0.441  0.00  0.00    -0.275 OA
ATOM     28  H   UNL     1      -3.258  -1.405   2.610  0.00  0.00    +0.149 HD
BRANCH  25  29
ATOM     29  C   UNL     1      -3.005   0.540   1.799  0.00  0.00    +0.148 C 
BRANCH  29  31
ATOM     30  C   UNL     1      -2.790   2.548   3.271  0.00  0.00    +0.053 C 
ATOM     31  C   UNL     1      -2.974   1.029   3.249  0.00  0.00    +0.187 C 
BRANCH  31  32
ATOM     32  O   UNL     1      -4.203   0.689   3.893  0.00  0.00    -0.488 OA
BRANCH  32  33
ATOM     33  C   UNL     1      -4.144   0.390   5.217  0.00  0.00    +0.121 A 
ATOM     34  C   UNL     1      -5.271  -0.083   5.874  0.00  0.00    +0.045 A 
ATOM     35  C   UNL     1      -5.208  -0.386   7.220  0.00  0.00    +0.004 A 
ATOM     36  C   UNL     1      -4.024  -0.219   7.913  0.00  0.00    +0.000 A 
ATOM     37  C   UNL     1      -2.899   0.253   7.261  0.00  0.00    +0.004 A 
ATOM     38  C   UNL     1      -2.955   0.551   5.913  0.00  0.00    +0.045 A 
ENDBRANCH  32  33
ENDBRANCH  31  32
ENDBRANCH  29  31
ENDBRANCH  25  29
ENDBRANCH   1  26
TORSDOF 6
