REMARK  Name = ZINC06135198
REMARK  10 active torsions:
REMARK  status: ('A' for Active; 'I' for Inactive)
REMARK    1  A    between atoms: C_1  and  C_2
REMARK    2  A    between atoms: C_2  and  C_3
REMARK    3  A    between atoms: C_10  and  C_15
REMARK    4  A    between atoms: C_15  and  C_17
REMARK    5  A    between atoms: C_15  and  N_72
REMARK    6  A    between atoms: N_21  and  C_22
REMARK    7  A    between atoms: C_28  and  C_29
REMARK    8  A    between atoms: C_28  and  N_72
REMARK    9  A    between atoms: C_35  and  C_36
REMARK   10  A    between atoms: C_35  and  N_72
REMARK                            x       y       z     vdW  Elec       q    Type
REMARK                         _______ _______ _______ _____ _____    ______ ____
ROOT
ATOM      1  C   UNL     1       0.922  -4.253  -2.194  0.00  0.00    +0.040 C 
ENDROOT
BRANCH   1   9
ATOM      2  C   UNL     1      -1.385  -6.326  -7.548  0.00  0.00    -0.047 A 
ATOM      3  C   UNL     1      -0.174  -6.392  -8.224  0.00  0.00    +0.005 A 
ATOM      4  C   UNL     1       1.000  -6.030  -7.601  0.00  0.00    +0.026 A 
ATOM      5  C   UNL     1       0.975  -5.596  -6.279  0.00  0.00    +0.049 A 
ATOM      6  C   UNL     1      -0.255  -5.531  -5.597  0.00  0.00    -0.001 A 
ATOM      7  C   UNL     1      -1.434  -5.903  -6.250  0.00  0.00    +0.013 A 
ATOM      8  C   UNL     1      -0.270  -5.079  -4.204  0.00  0.00    +0.017 A 
ATOM      9  C   UNL     1       0.904  -4.727  -3.624  0.00  0.00    +0.011 A 
ATOM     10  C   UNL     1       2.110  -4.810  -4.353  0.00  0.00    +0.251 A 
ATOM     11  O   UNL     1       3.155  -4.494  -3.811  0.00  0.00    -0.268 OA
ATOM     12  N   UNL     1       2.135  -5.229  -5.630  0.00  0.00    -0.322 N 
ATOM     13  H   UNL     1       3.007  -5.276  -6.117  0.00  0.00    +0.169 HD
BRANCH   2  15
ATOM     14  C   UNL     1      -3.265  -5.503  -8.940  0.00  0.00    +0.009 C 
ATOM     15  C   UNL     1      -2.656  -6.727  -8.251  0.00  0.00    +0.032 C 
ENDBRANCH   2  15
ENDBRANCH   1   9
BRANCH   1  16
ATOM     16  C   UNL     1       1.681  -5.241  -1.346  0.00  0.00    +0.143 A 
ATOM     17  N   UNL     1       2.982  -5.325  -1.217  0.00  0.00    -0.115 NA
ATOM     18  N   UNL     1       3.240  -6.293  -0.407  0.00  0.00    -0.023 NA
ATOM     19  N   UNL     1       2.137  -6.834  -0.022  0.00  0.00    -0.044 NA
ATOM     20  N   UNL     1       1.153  -6.214  -0.580  0.00  0.00    -0.227 N 
BRANCH  20  21
ATOM     21  C   UNL     1      -0.272  -6.511  -0.410  0.00  0.00    +0.111 C 
ATOM     22  C   UNL     1      -0.650  -6.369   1.066  0.00  0.00    +0.027 C 
ATOM     23  C   UNL     1      -2.138  -6.680   1.243  0.00  0.00    +0.002 C 
ATOM     24  C   UNL     1      -2.418  -8.111   0.780  0.00  0.00    +0.000 C 
ATOM     25  C   UNL     1      -2.040  -8.253  -0.696  0.00  0.00    +0.002 C 
ATOM     26  C   UNL     1      -0.552  -7.942  -0.873  0.00  0.00    +0.027 C 
ENDBRANCH  20  21
ENDBRANCH   1  16
BRANCH   1  27
ATOM     27  N   UNL     1       1.607  -2.945  -2.126  0.00  0.00    +0.397 N 
ATOM     28  H   UNL     1       2.613  -3.086  -2.281  0.00  0.00    -0.079 HD
BRANCH  27  29
ATOM     29  C   UNL     1       1.082  -2.045  -3.175  0.00  0.00    -0.039 C 
BRANCH  29  30
ATOM     30  C   UNL     1       1.942  -0.807  -3.228  0.00  0.00    -0.046 A 
ATOM     31  C   UNL     1       1.623   0.302  -2.459  0.00  0.00    +0.005 A 
ATOM     32  C   UNL     1       2.442   1.417  -2.540  0.00  0.00    +0.020 A 
ATOM     33  C   UNL     1       3.541   1.387  -3.378  0.00  0.00    +0.111 A 
ATOM     34  N   UNL     1       3.813   0.314  -4.095  0.00  0.00    -0.263 NA
ATOM     35  C   UNL     1       3.056  -0.765  -4.043  0.00  0.00    +0.112 A 
ENDBRANCH  29  30
ENDBRANCH  27  29
BRANCH  27  36
ATOM     36  C   UNL     1       1.408  -2.338  -0.793  0.00  0.00    -0.001 C 
BRANCH  36  37
ATOM     37  C   UNL     1       2.276  -3.063   0.203  0.00  0.00    +0.089 A 
ATOM     38  C   UNL     1       3.581  -2.827   0.427  0.00  0.00    +0.042 A 
ATOM     39  C   UNL     1       3.992  -3.729   1.436  0.00  0.00    +0.041 A 
ATOM     40  C   UNL     1       2.914  -4.462   1.767  0.00  0.00    +0.195 A 
ATOM     41  O   UNL     1       1.876  -4.050   1.021  0.00  0.00    -0.470 OA
ENDBRANCH  36  37
ENDBRANCH  27  36
ENDBRANCH   1  27
TORSDOF 9
