REMARK  Name = ZINC06197864
REMARK  8 active torsions:
REMARK  status: ('A' for Active; 'I' for Inactive)
REMARK    1  A    between atoms: C_1  and  C_2
REMARK    2  A    between atoms: C_2  and  C_3
REMARK    3  A    between atoms: C_10  and  C_15
REMARK    4  A    between atoms: C_15  and  N_69
REMARK    5  A    between atoms: C_16  and  C_17
REMARK    6  A    between atoms: C_16  and  N_69
REMARK    7  A    between atoms: N_21  and  C_22
REMARK    8  A    between atoms: C_28  and  N_69
REMARK                            x       y       z     vdW  Elec       q    Type
REMARK                         _______ _______ _______ _____ _____    ______ ____
ROOT
ATOM      1  N   UNL     1       2.968   1.062   1.301  0.00  0.00    +0.389 N 
ATOM      2  H   UNL     1       2.763   1.973   1.726  0.00  0.00    -0.080 HD
ENDROOT
BRANCH   1   3
ATOM      3  C   UNL     1       2.024   0.059   1.837  0.00  0.00    -0.068 C 
ATOM      4  C   UNL     1       1.808   0.338   3.326  0.00  0.00    -0.015 C 
ATOM      5  C   UNL     1       0.818  -0.680   3.897  0.00  0.00    -0.002 C 
ATOM      6  C   UNL     1       1.380  -2.092   3.720  0.00  0.00    -0.000 C 
ATOM      7  C   UNL     1       1.596  -2.371   2.231  0.00  0.00    -0.002 C 
ATOM      8  C   UNL     1       2.585  -1.353   1.660  0.00  0.00    -0.015 C 
ENDBRANCH   1   3
BRANCH   1   9
ATOM      9  C   UNL     1       2.811   1.170  -0.165  0.00  0.00    -0.037 C 
BRANCH   9  17
ATOM     10  C   UNL     1      -0.589   6.194  -1.384  0.00  0.00    -0.047 A 
ATOM     11  C   UNL     1      -1.811   5.539  -1.461  0.00  0.00    +0.005 A 
ATOM     12  C   UNL     1      -1.893   4.177  -1.272  0.00  0.00    +0.026 A 
ATOM     13  C   UNL     1      -0.740   3.447  -1.002  0.00  0.00    +0.049 A 
ATOM     14  C   UNL     1       0.497   4.114  -0.924  0.00  0.00    -0.001 A 
ATOM     15  C   UNL     1       0.556   5.498  -1.119  0.00  0.00    +0.013 A 
ATOM     16  C   UNL     1       1.705   3.337  -0.639  0.00  0.00    +0.017 A 
ATOM     17  C   UNL     1       1.587   1.998  -0.460  0.00  0.00    +0.001 A 
ATOM     18  C   UNL     1       0.323   1.378  -0.548  0.00  0.00    +0.251 A 
ATOM     19  O   UNL     1       0.239   0.173  -0.383  0.00  0.00    -0.268 OA
ATOM     20  N   UNL     1      -0.791   2.082  -0.815  0.00  0.00    -0.322 N 
ATOM     21  H   UNL     1      -1.670   1.609  -0.878  0.00  0.00    +0.169 HD
BRANCH  10  23
ATOM     22  C   UNL     1      -0.303   7.981  -3.079  0.00  0.00    +0.009 C 
ATOM     23  C   UNL     1      -0.525   7.684  -1.595  0.00  0.00    +0.032 C 
ENDBRANCH  10  23
ENDBRANCH   9  17
ENDBRANCH   1   9
BRANCH   1  24
ATOM     24  C   UNL     1       4.356   0.677   1.633  0.00  0.00    +0.001 C 
BRANCH  24  25
ATOM     25  C   UNL     1       4.596   0.950   3.096  0.00  0.00    +0.135 A 
ATOM     26  N   UNL     1       4.604   0.069   4.066  0.00  0.00    -0.115 NA
ATOM     27  N   UNL     1       4.845   0.691   5.167  0.00  0.00    -0.023 NA
ATOM     28  N   UNL     1       4.992   1.947   4.926  0.00  0.00    -0.044 NA
ATOM     29  N   UNL     1       4.851   2.146   3.659  0.00  0.00    -0.228 N 
BRANCH  29  30
ATOM     30  C   UNL     1       4.946   3.432   2.964  0.00  0.00    +0.111 C 
ATOM     31  C   UNL     1       6.338   4.028   3.182  0.00  0.00    +0.027 C 
ATOM     32  C   UNL     1       6.438   5.371   2.456  0.00  0.00    +0.002 C 
ATOM     33  C   UNL     1       5.381   6.329   3.010  0.00  0.00    +0.000 C 
ATOM     34  C   UNL     1       3.989   5.734   2.792  0.00  0.00    +0.002 C 
ATOM     35  C   UNL     1       3.889   4.390   3.518  0.00  0.00    +0.027 C 
ENDBRANCH  29  30
ENDBRANCH  24  25
ENDBRANCH   1  24
TORSDOF 7
