REMARK  Name = ZINC09187629
REMARK  9 active torsions:
REMARK  status: ('A' for Active; 'I' for Inactive)
REMARK    1  A    between atoms: C_1  and  C_2
REMARK    2  A    between atoms: C_5  and  N_9
REMARK    3  A    between atoms: C_6  and  C_8
REMARK    4  A    between atoms: C_10  and  C_12
REMARK    5  A    between atoms: C_12  and  S_13
REMARK    6  A    between atoms: S_13  and  C_14
REMARK    7  A    between atoms: C_17  and  C_20
REMARK    8  A    between atoms: N_18  and  N_19
REMARK    9  A    between atoms: C_22  and  C_26
REMARK                            x       y       z     vdW  Elec       q    Type
REMARK                         _______ _______ _______ _____ _____    ______ ____
ROOT
ATOM      1  C   UNL     1      -0.324  -8.700  -2.775  0.00  0.00    +0.209 A 
ATOM      2  N   UNL     1      -0.403  -9.323  -1.620  0.00  0.00    -0.120 NA
ATOM      3  N   UNL     1      -0.503 -10.590  -1.808  0.00  0.00    -0.125 NA
ATOM      4  C   UNL     1      -0.494 -10.855  -3.095  0.00  0.00    +0.199 A 
ATOM      5  N   UNL     1      -0.385  -9.651  -3.754  0.00  0.00    -0.223 N 
ENDROOT
BRANCH   4   6
ATOM      6  C   UNL     1      -0.590 -12.188  -3.716  0.00  0.00    +0.105 A 
ATOM      7  C   UNL     1      -1.008 -13.337  -3.104  0.00  0.00    +0.061 A 
ATOM      8  C   UNL     1      -0.946 -14.373  -4.051  0.00  0.00    +0.093 A 
ATOM      9  N   UNL     1      -0.509 -13.871  -5.187  0.00  0.00    -0.173 NA
ATOM     10  N   UNL     1      -0.282 -12.501  -5.009  0.00  0.00    -0.273 N 
ATOM     11  H   UNL     1       0.038 -11.883  -5.685  0.00  0.00    +0.189 HD
BRANCH   8  12
ATOM     12  C   UNL     1      -1.310 -15.791  -3.810  0.00  0.00    +0.002 A 
ATOM     13  C   UNL     1      -1.767 -16.193  -2.557  0.00  0.00    +0.011 A 
ATOM     14  C   UNL     1      -2.104 -17.513  -2.338  0.00  0.00    +0.020 A 
ATOM     15  C   UNL     1      -1.991 -18.438  -3.363  0.00  0.00    +0.041 A 
ATOM     16  C   UNL     1      -1.538 -18.043  -4.610  0.00  0.00    +0.020 A 
ATOM     17  C   UNL     1      -1.203 -16.724  -4.840  0.00  0.00    +0.011 A 
ATOM     18 CL   UNL     1      -2.417 -20.097  -3.082  0.00  0.00    -0.084 Cl
ENDBRANCH   8  12
ENDBRANCH   4   6
BRANCH   5  19
ATOM     19  N   UNL     1      -0.344  -9.449  -5.104  0.00  0.00    -0.295 N 
ATOM     20  H   UNL     1       0.609  -9.400  -5.434  0.00  0.00    +0.163 HD
ATOM     21  H   UNL     1      -0.859 -10.167  -5.593  0.00  0.00    +0.163 HD
ENDBRANCH   5  19
BRANCH   1  22
ATOM     22  S   UNL     1      -0.175  -6.961  -3.016  0.00  0.00    -0.075 S 
BRANCH  22  23
ATOM     23  C   UNL     1      -0.150  -6.285  -1.333  0.00  0.00    +0.173 C 
BRANCH  23  25
ATOM     24  N   UNL     1       0.015  -4.064  -0.257  0.00  0.00    -0.285 N 
ATOM     25  C   UNL     1      -0.024  -4.785  -1.395  0.00  0.00    +0.227 C 
ATOM     26  O   UNL     1       0.043  -4.226  -2.470  0.00  0.00    -0.275 OA
ATOM     27  H   UNL     1       0.031  -4.514   0.602  0.00  0.00    +0.155 HD
BRANCH  24  32
ATOM     28  C   UNL     1       0.088   1.604  -0.493  0.00  0.00    +0.044 C 
ATOM     29  C   UNL     1       0.069   0.098  -0.430  0.00  0.00    -0.050 A 
ATOM     30  C   UNL     1       0.701  -0.641  -1.413  0.00  0.00    +0.005 A 
ATOM     31  C   UNL     1       0.685  -2.021  -1.359  0.00  0.00    +0.024 A 
ATOM     32  C   UNL     1       0.034  -2.666  -0.315  0.00  0.00    +0.036 A 
ATOM     33  C   UNL     1      -0.599  -1.920   0.671  0.00  0.00    -0.029 A 
ATOM     34  C   UNL     1      -0.575  -0.540   0.613  0.00  0.00    +0.008 A 
ATOM     35  C   UNL     1      -1.306  -2.616   1.805  0.00  0.00    +0.045 C 
ENDBRANCH  24  32
ENDBRANCH  23  25
ENDBRANCH  22  23
ENDBRANCH   1  22
TORSDOF 7
