REMARK  Name = ZINC19892912
REMARK  7 active torsions:
REMARK  status: ('A' for Active; 'I' for Inactive)
REMARK    1  A    between atoms: C_3  and  C_6
REMARK    2  A    between atoms: N_8  and  C_9
REMARK    3  A    between atoms: C_9  and  C_18
REMARK    4  A    between atoms: C_10  and  C_11
REMARK    5  A    between atoms: N_20  and  C_21
REMARK    6  A    between atoms: C_24  and  S_27
REMARK    7  A    between atoms: S_27  and  N_30
REMARK                            x       y       z     vdW  Elec       q    Type
REMARK                         _______ _______ _______ _____ _____    ______ ____
ROOT
ATOM      1  C   UNL     1      -0.483  -0.372   0.045  0.00  0.00    +0.097 C 
ATOM      2  C   UNL     1      -0.654   0.960   0.216  0.00  0.00    +0.036 C 
ENDROOT
BRANCH   2   3
ATOM      3  C   UNL     1      -1.989   1.557   0.059  0.00  0.00    -0.023 A 
ATOM      4  C   UNL     1      -2.982   0.878  -0.654  0.00  0.00    +0.009 A 
ATOM      5  C   UNL     1      -4.233   1.441  -0.792  0.00  0.00    +0.016 A 
ATOM      6  C   UNL     1      -4.504   2.681  -0.236  0.00  0.00    +0.018 A 
ATOM      7  C   UNL     1      -3.523   3.361   0.467  0.00  0.00    +0.016 A 
ATOM      8  C   UNL     1      -2.270   2.808   0.619  0.00  0.00    +0.009 A 
ATOM      9 BR   UNL     1      -6.220   3.448  -0.438  0.00  0.00    -0.050 Br
ENDBRANCH   2   3
BRANCH   1  12
ATOM     10  C   UNL     1      -1.690  -1.956  -1.254  0.00  0.00    +0.284 C 
ATOM     11  O   UNL     1      -0.855  -1.855  -2.133  0.00  0.00    -0.266 OA
ATOM     12  N   UNL     1      -1.593  -1.200  -0.142  0.00  0.00    -0.275 N 
ATOM     13  H   UNL     1      -2.388  -1.235   0.618  0.00  0.00    +0.155 HD
BRANCH  10  16
ATOM     14  C   UNL     1      -4.157  -4.487  -2.168  0.00  0.00    +0.042 A 
ATOM     15  C   UNL     1      -2.966  -3.790  -2.427  0.00  0.00    +0.054 A 
ATOM     16  C   UNL     1      -2.802  -2.900  -1.404  0.00  0.00    +0.189 A 
ATOM     17  O   UNL     1      -3.838  -3.046  -0.553  0.00  0.00    -0.458 OA
ATOM     18  C   UNL     1      -4.661  -3.998  -1.013  0.00  0.00    +0.196 A 
ENDBRANCH  10  16
ENDBRANCH   1  12
BRANCH   1  19
ATOM     19  C   UNL     1       0.869  -0.947   0.058  0.00  0.00    +0.262 C 
ATOM     20  O   UNL     1       1.836  -0.226   0.221  0.00  0.00    -0.268 OA
ATOM     21  N   UNL     1       1.039  -2.273  -0.112  0.00  0.00    -0.280 N 
ATOM     22  H   UNL     1       0.173  -2.915  -0.333  0.00  0.00    +0.155 HD
BRANCH  21  23
ATOM     23  C   UNL     1       2.316  -2.833  -0.008  0.00  0.00    +0.034 A 
ATOM     24  C   UNL     1       3.424  -2.130  -0.462  0.00  0.00    +0.025 A 
ATOM     25  C   UNL     1       4.684  -2.684  -0.352  0.00  0.00    +0.030 A 
ATOM     26  C   UNL     1       4.842  -3.943   0.198  0.00  0.00    +0.105 A 
ATOM     27  C   UNL     1       3.740  -4.649   0.646  0.00  0.00    +0.030 A 
ATOM     28  C   UNL     1       2.478  -4.098   0.544  0.00  0.00    +0.025 A 
BRANCH  26  29
ATOM     29  S   UNL     1       6.451  -4.649   0.330  0.00  0.00    +0.056 S 
ATOM     30  O   UNL     1       7.370  -3.566   0.342  0.00  0.00    -0.153 OA
ATOM     31  O   UNL     1       6.389  -5.607   1.379  0.00  0.00    -0.153 OA
BRANCH  29  32
ATOM     32  N   UNL     1       6.731  -5.493  -1.066  0.00  0.00    -0.204 NA
ATOM     33  H   UNL     1       7.730  -5.952  -1.023  0.00  0.00    +0.144 HD
ATOM     34  H   UNL     1       6.678  -4.809  -1.926  0.00  0.00    +0.144 HD
ENDBRANCH  29  32
ENDBRANCH  26  29
ENDBRANCH  21  23
ENDBRANCH   1  19
TORSDOF 7
