REMARK  Name = ZINC13145860
REMARK  11 active torsions:
REMARK  status: ('A' for Active; 'I' for Inactive)
REMARK    1  A    between atoms: C_1  and  O_2
REMARK    2  A    between atoms: O_2  and  C_3
REMARK    3  A    between atoms: C_3  and  C_5
REMARK    4  A    between atoms: C_5  and  C_7
REMARK    5  A    between atoms: C_5  and  N_46
REMARK    6  A    between atoms: C_7  and  C_8
REMARK    7  A    between atoms: C_11  and  O_14
REMARK    8  A    between atoms: C_15  and  C_16
REMARK    9  A    between atoms: C_15  and  N_46
REMARK   10  A    between atoms: N_18  and  C_19
REMARK   11  A    between atoms: C_23  and  C_25
REMARK                            x       y       z     vdW  Elec       q    Type
REMARK                         _______ _______ _______ _____ _____    ______ ____
ROOT
ATOM      1  N   UNL     1      -6.026   2.908  -0.239  0.00  0.00    +0.394 N 
ATOM      2  H   UNL     1      -5.893   2.324  -1.073  0.00  0.00    -0.084 HD
ATOM      3  H   UNL     1      -6.024   2.314   0.598  0.00  0.00    -0.084 HD
ENDROOT
BRANCH   1   4
ATOM      4  C   UNL     1      -7.320   3.608  -0.336  0.00  0.00    +0.044 C 
BRANCH   4   5
ATOM      5  C   UNL     1      -7.595   3.961  -1.775  0.00  0.00    +0.293 C 
ATOM      6  O   UNL     1      -6.795   3.669  -2.632  0.00  0.00    -0.253 OA
BRANCH   5   8
ATOM      7  C   UNL     1      -8.926   4.910  -3.510  0.00  0.00    +0.280 C 
ATOM      8  O   UNL     1      -8.728   4.601  -2.105  0.00  0.00    -0.469 OA
ENDBRANCH   5   8
ENDBRANCH   4   5
BRANCH   4   9
ATOM      9  C   UNL     1      -8.428   2.689   0.184  0.00  0.00    +0.030 C 
BRANCH   9  10
ATOM     10  C   UNL     1      -8.221   2.435   1.655  0.00  0.00    -0.048 A 
ATOM     11  C   UNL     1      -7.459   1.358   2.068  0.00  0.00    +0.007 A 
ATOM     12  C   UNL     1      -7.263   1.126   3.416  0.00  0.00    +0.045 A 
ATOM     13  C   UNL     1      -7.841   1.968   4.355  0.00  0.00    +0.117 A 
ATOM     14  C   UNL     1      -8.610   3.045   3.937  0.00  0.00    +0.045 A 
ATOM     15  C   UNL     1      -8.798   3.276   2.588  0.00  0.00    +0.007 A 
BRANCH  13  16
ATOM     16  O   UNL     1      -7.654   1.739   5.681  0.00  0.00    -0.507 OA
ATOM     17  H   UNL     1      -8.321   1.163   6.079  0.00  0.00    +0.292 HD
ENDBRANCH  13  16
ENDBRANCH   9  10
ENDBRANCH   4   9
ENDBRANCH   1   4
BRANCH   1  18
ATOM     18  C   UNL     1      -4.922   3.882  -0.147  0.00  0.00    +0.016 C 
BRANCH  18  19
ATOM     19  C   UNL     1      -3.614   3.140  -0.050  0.00  0.00    +0.200 C 
ATOM     20  O   UNL     1      -3.604   1.927  -0.056  0.00  0.00    -0.278 OA
ATOM     21  N   UNL     1      -2.457   3.823   0.045  0.00  0.00    -0.287 N 
ATOM     22  H   UNL     1      -2.469   4.790   0.127  0.00  0.00    +0.155 HD
BRANCH  21  23
ATOM     23  C   UNL     1      -1.236   3.139   0.024  0.00  0.00    +0.034 A 
ATOM     24  C   UNL     1      -1.099   1.984  -0.735  0.00  0.00    +0.025 A 
ATOM     25  C   UNL     1       0.105   1.307  -0.750  0.00  0.00    +0.022 A 
ATOM     26  C   UNL     1       1.177   1.785  -0.017  0.00  0.00    +0.053 A 
ATOM     27  C   UNL     1       1.045   2.938   0.737  0.00  0.00    +0.075 A 
ATOM     28  C   UNL     1      -0.159   3.615   0.759  0.00  0.00    +0.037 A 
ATOM     29 CL   UNL     1       2.692   0.936  -0.043  0.00  0.00    -0.083 Cl
BRANCH  27  30
ATOM     30  C   UNL     1       2.215   3.455   1.534  0.00  0.00    +0.419 C 
ATOM     31  F   UNL     1       1.840   4.623   2.207  0.00  0.00    -0.166 F 
ATOM     32  F   UNL     1       2.609   2.487   2.464  0.00  0.00    -0.166 F 
ATOM     33  F   UNL     1       3.280   3.735   0.671  0.00  0.00    -0.166 F 
ENDBRANCH  27  30
ENDBRANCH  21  23
ENDBRANCH  18  19
ENDBRANCH   1  18
TORSDOF 10
