REMARK  Name = ZINC36610027
REMARK  16 active torsions:
REMARK  status: ('A' for Active; 'I' for Inactive)
REMARK    1  A    between atoms: C_1  and  C_2
REMARK    2  A    between atoms: C_2  and  C_3
REMARK    3  A    between atoms: C_2  and  C_4
REMARK    4  A    between atoms: C_2  and  C_5
REMARK    5  A    between atoms: C_5  and  C_6
REMARK    6  A    between atoms: C_6  and  C_7
REMARK    7  A    between atoms: C_6  and  C_8
REMARK    8  A    between atoms: C_6  and  N_9
REMARK    9  A    between atoms: C_10  and  C_12
REMARK   10  A    between atoms: C_12  and  C_14
REMARK   11  A    between atoms: C_12  and  N_21
REMARK   12  A    between atoms: C_17  and  O_20
REMARK   13  A    between atoms: N_21  and  C_22
REMARK   14  A    between atoms: C_28  and  C_30
REMARK   15  A    between atoms: C_31  and  O_37
REMARK   16  A    between atoms: C_35  and  O_36
REMARK                            x       y       z     vdW  Elec       q    Type
REMARK                         _______ _______ _______ _____ _____    ______ ____
ROOT
ATOM      1  C   UNL     1       5.286  -0.430  -4.204  0.00  0.00    +0.197 C 
ENDROOT
BRANCH   1   2
ATOM      2  C   UNL     1       5.190  -1.889  -4.570  0.00  0.00    -0.018 A 
ATOM      3  C   UNL     1       6.003  -2.813  -3.940  0.00  0.00    +0.009 A 
ATOM      4  C   UNL     1       5.917  -4.151  -4.273  0.00  0.00    +0.046 A 
ATOM      5  C   UNL     1       5.013  -4.567  -5.240  0.00  0.00    +0.117 A 
ATOM      6  C   UNL     1       4.198  -3.638  -5.870  0.00  0.00    +0.046 A 
ATOM      7  C   UNL     1       4.284  -2.302  -5.530  0.00  0.00    +0.009 A 
BRANCH   5   8
ATOM      8  O   UNL     1       4.927  -5.883  -5.570  0.00  0.00    -0.507 OA
ATOM      9  H   UNL     1       4.287  -6.380  -5.042  0.00  0.00    +0.292 HD
ENDBRANCH   5   8
ENDBRANCH   1   2
BRANCH   1  11
ATOM     10  N   UNL     1       3.563  -0.577  -2.436  0.00  0.00    -0.308 N 
ATOM     11  C   UNL     1       4.820  -0.236  -2.785  0.00  0.00    +0.239 C 
ATOM     12  O   UNL     1       5.575   0.227  -1.956  0.00  0.00    -0.273 OA
ATOM     13  H   UNL     1       2.959  -0.947  -3.098  0.00  0.00    +0.149 HD
BRANCH  10  14
ATOM     14  C   UNL     1       3.110  -0.388  -1.056  0.00  0.00    +0.030 C 
ATOM     15  C   UNL     1       3.350   1.063  -0.634  0.00  0.00    +0.031 C 
ATOM     16  C   UNL     1       3.889  -1.324  -0.130  0.00  0.00    +0.031 C 
BRANCH  14  17
ATOM     17  C   UNL     1       1.616  -0.705  -0.962  0.00  0.00    +0.031 C 
BRANCH  17  19
ATOM     18  C   UNL     1       1.036  -0.982  -3.376  0.00  0.00    +0.010 C 
ATOM     19  C   UNL     1       0.885  -0.078  -2.151  0.00  0.00    -0.036 C 
ATOM     20  C   UNL     1       1.488   1.296  -2.453  0.00  0.00    +0.010 C 
ATOM     21  C   UNL     1      -0.598   0.080  -1.813  0.00  0.00    +0.010 C 
ENDBRANCH  17  19
ENDBRANCH  14  17
ENDBRANCH  10  14
ENDBRANCH   1  11
BRANCH   1  22
ATOM     22  N   UNL     1       6.677   0.013  -4.326  0.00  0.00    -0.251 N 
ATOM     23  C   UNL     1       6.994   1.306  -4.118  0.00  0.00    +0.259 C 
ATOM     24  O   UNL     1       6.140   2.088  -3.743  0.00  0.00    -0.269 OA
BRANCH  22  25
ATOM     25  C   UNL     1       7.677  -0.907  -4.659  0.00  0.00    +0.038 A 
ATOM     26  C   UNL     1       7.707  -1.475  -5.926  0.00  0.00    +0.023 A 
ATOM     27  C   UNL     1       8.696  -2.383  -6.251  0.00  0.00    +0.002 A 
ATOM     28  C   UNL     1       9.656  -2.726  -5.316  0.00  0.00    +0.000 A 
ATOM     29  C   UNL     1       9.629  -2.163  -4.054  0.00  0.00    +0.002 A 
ATOM     30  C   UNL     1       8.646  -1.250  -3.724  0.00  0.00    +0.023 A 
ENDBRANCH  22  25
BRANCH  23  31
ATOM     31  C   UNL     1       8.371   1.773  -4.343  0.00  0.00    +0.120 A 
ATOM     32  C   UNL     1       8.803   2.101  -5.637  0.00  0.00    +0.133 A 
ATOM     33  C   UNL     1      10.102   2.539  -5.838  0.00  0.00    +0.046 A 
ATOM     34  C   UNL     1      10.971   2.654  -4.769  0.00  0.00    +0.007 A 
ATOM     35  C   UNL     1      10.556   2.333  -3.490  0.00  0.00    +0.046 A 
ATOM     36  C   UNL     1       9.260   1.898  -3.266  0.00  0.00    +0.133 A 
BRANCH  36  37
ATOM     37  O   UNL     1       8.854   1.589  -2.009  0.00  0.00    -0.506 OA
ATOM     38  H   UNL     1       9.076   0.689  -1.734  0.00  0.00    +0.292 HD
ENDBRANCH  36  37
BRANCH  32  39
ATOM     39  O   UNL     1       7.952   1.989  -6.688  0.00  0.00    -0.506 OA
ATOM     40  H   UNL     1       7.442   2.790  -6.868  0.00  0.00    +0.292 HD
ENDBRANCH  32  39
ENDBRANCH  23  31
ENDBRANCH   1  22
TORSDOF 11
