REMARK  Name = ZINC11789388
REMARK  5 active torsions:
REMARK  status: ('A' for Active; 'I' for Inactive)
REMARK    1  A    between atoms: C_9  and  C_12
REMARK    2  A    between atoms: C_19  and  C_20
REMARK    3  A    between atoms: C_19  and  N_62
REMARK    4  A    between atoms: N_22  and  C_23
REMARK    5  A    between atoms: C_23  and  C_24
REMARK                            x       y       z     vdW  Elec       q    Type
REMARK                         _______ _______ _______ _____ _____    ______ ____
ROOT
ATOM      1  C   UNL     1       5.583   6.952   2.265  0.00  0.00    +0.000 A 
ATOM      2  C   UNL     1       4.537   6.546   3.073  0.00  0.00    +0.004 A 
ATOM      3  C   UNL     1       3.408   5.976   2.516  0.00  0.00    +0.046 A 
ATOM      4  C   UNL     1       3.329   5.814   1.140  0.00  0.00    +0.123 A 
ATOM      5  C   UNL     1       4.369   6.240   0.335  0.00  0.00    -0.022 A 
ATOM      6  C   UNL     1       5.500   6.798   0.893  0.00  0.00    +0.005 A 
ATOM      7  C   UNL     1       4.242   6.117  -1.171  0.00  0.00    -0.038 C 
ATOM      8  C   UNL     1       2.945   4.071  -1.424  0.00  0.00    -0.027 C 
ATOM      9  C   UNL     1       2.450   3.942   0.000  0.00  0.00    +0.190 C 
ATOM     10  O   UNL     1       2.232   5.233   0.581  0.00  0.00    -0.486 OA
ATOM     11  N   UNL     1       4.292   4.676  -1.514  0.00  0.00    +0.391 N 
ATOM     12  H   UNL     1       4.912   4.200  -0.849  0.00  0.00    -0.080 HD
ENDROOT
BRANCH   9  13
ATOM     13  C   UNL     1       1.157   3.169   0.008  0.00  0.00    +0.026 A 
ATOM     14  C   UNL     1      -0.051   3.842   0.023  0.00  0.00    +0.010 A 
ATOM     15  C   UNL     1      -1.237   3.133   0.030  0.00  0.00    +0.001 A 
ATOM     16  C   UNL     1      -1.218   1.751   0.017  0.00  0.00    +0.003 A 
ATOM     17  C   UNL     1      -0.013   1.076   0.008  0.00  0.00    +0.039 A 
ATOM     18  C   UNL     1       1.177   1.785   0.000  0.00  0.00    +0.130 A 
ATOM     19  F   UNL     1       2.356   1.126  -0.014  0.00  0.00    -0.205 F 
ENDBRANCH   9  13
BRANCH  11  20
ATOM     20  C   UNL     1       4.827   4.500  -2.874  0.00  0.00    +0.019 C 
BRANCH  20  21
ATOM     21  C   UNL     1       3.913   5.118  -3.900  0.00  0.00    +0.197 C 
ATOM     22  O   UNL     1       2.890   5.667  -3.548  0.00  0.00    -0.278 OA
ATOM     23  N   UNL     1       4.232   5.061  -5.208  0.00  0.00    -0.311 N 
ATOM     24  H   UNL     1       5.050   4.623  -5.489  0.00  0.00    +0.149 HD
BRANCH  23  25
ATOM     25  C   UNL     1       3.343   5.663  -6.205  0.00  0.00    +0.161 C 
BRANCH  25  26
ATOM     26  C   UNL     1       3.924   5.463  -7.581  0.00  0.00    +0.083 A 
ATOM     27  C   UNL     1       3.682   4.374  -8.423  0.00  0.00    -0.002 A 
ATOM     28  C   UNL     1       4.390   4.562  -9.561  0.00  0.00    +0.040 A 
ATOM     29  N   UNL     1       5.047   5.734  -9.450  0.00  0.00    -0.281 N 
ATOM     30  H   UNL     1       5.648   6.139 -10.138  0.00  0.00    +0.189 HD
ATOM     31  N   UNL     1       4.738   6.282  -8.197  0.00  0.00    -0.177 NA
ATOM     32  C   UNL     1       4.436   3.615 -10.733  0.00  0.00    +0.055 C 
ATOM     33  C   UNL     1       3.011   3.187 -11.093  0.00  0.00    +0.006 C 
ATOM     34  C   UNL     1       2.627   1.948 -10.290  0.00  0.00    +0.001 C 
ATOM     35  C   UNL     1       3.278   1.978  -8.910  0.00  0.00    +0.005 C 
ATOM     36  C   UNL     1       2.783   3.199  -8.131  0.00  0.00    +0.039 C 
ENDBRANCH  25  26
ENDBRANCH  23  25
ENDBRANCH  20  21
ENDBRANCH  11  20
TORSDOF 5
