REMARK  Name = ZINC63708486
REMARK  10 active torsions:
REMARK  status: ('A' for Active; 'I' for Inactive)
REMARK    1  A    between atoms: C_4  and  C_7
REMARK    2  A    between atoms: C_7  and  C_8
REMARK    3  A    between atoms: C_8  and  N_9
REMARK    4  A    between atoms: C_10  and  C_12
REMARK    5  A    between atoms: C_12  and  S_13
REMARK    6  A    between atoms: S_13  and  C_14
REMARK    7  A    between atoms: N_25  and  N_26
REMARK    8  A    between atoms: C_27  and  C_29
REMARK    9  A    between atoms: C_29  and  C_30
REMARK   10  A    between atoms: C_30  and  C_31
REMARK                            x       y       z     vdW  Elec       q    Type
REMARK                         _______ _______ _______ _____ _____    ______ ____
ROOT
ATOM      1  C   UNL     1       9.485  -3.933   4.033  0.00  0.00    +0.241 C 
ATOM      2  N   UNL     1       9.255  -5.184   3.301  0.00  0.00    -0.316 N 
ATOM      3  C   UNL     1       9.072  -5.130   1.924  0.00  0.00    +0.041 A 
ATOM      4  C   UNL     1       8.307  -6.069   1.252  0.00  0.00    +0.024 A 
ATOM      5  C   UNL     1       8.164  -5.980  -0.119  0.00  0.00    +0.002 A 
ATOM      6  C   UNL     1       8.778  -4.959  -0.827  0.00  0.00    +0.001 A 
ATOM      7  C   UNL     1       9.540  -4.013  -0.173  0.00  0.00    +0.015 A 
ATOM      8  C   UNL     1       9.690  -4.088   1.210  0.00  0.00    +0.059 A 
ATOM      9  C   UNL     1      10.473  -3.088   1.957  0.00  0.00    +0.267 C 
ATOM     10  O   UNL     1      11.153  -2.273   1.364  0.00  0.00    -0.268 OA
ATOM     11  N   UNL     1      10.427  -3.086   3.301  0.00  0.00    -0.186 N 
ATOM     12  H   UNL     1       9.231  -6.033   3.769  0.00  0.00    +0.149 HD
ENDROOT
BRANCH  11  13
ATOM     13  N   UNL     1      11.300  -2.253   4.013  0.00  0.00    -0.229 N 
ATOM     14  C   UNL     1      12.603  -2.580   4.124  0.00  0.00    +0.230 C 
ATOM     15  O   UNL     1      13.019  -3.595   3.607  0.00  0.00    -0.274 OA
ATOM     16  H   UNL     1      10.967  -1.441   4.426  0.00  0.00    +0.173 HD
BRANCH  14  17
ATOM     17  C   UNL     1      13.542  -1.684   4.890  0.00  0.00    +0.102 C 
BRANCH  17  18
ATOM     18  C   UNL     1      14.951  -2.280   4.863  0.00  0.00    +0.042 C 
BRANCH  18  19
ATOM     19  C   UNL     1      15.890  -1.384   5.628  0.00  0.00    -0.041 C 
ATOM     20  C   UNL     1      16.258  -1.509   6.924  0.00  0.00    -0.001 A 
ATOM     21  C   UNL     1      15.907  -2.480   7.968  0.00  0.00    +0.010 A 
ATOM     22  C   UNL     1      16.448  -2.342   9.200  0.00  0.00    +0.001 A 
ATOM     23  C   UNL     1      17.332  -1.298   9.504  0.00  0.00    +0.002 A 
ATOM     24  C   UNL     1      17.702  -0.368   8.598  0.00  0.00    +0.026 A 
ATOM     25  C   UNL     1      17.195  -0.417   7.270  0.00  0.00    +0.043 A 
ATOM     26  N   UNL     1      17.398   0.354   6.230  0.00  0.00    -0.380 N 
ATOM     27  C   UNL     1      16.616  -0.166   5.102  0.00  0.00    +0.144 C 
ATOM     28  H   UNL     1      17.972   1.136   6.208  0.00  0.00    +0.160 HD
ENDBRANCH  18  19
ENDBRANCH  17  18
ENDBRANCH  14  17
ENDBRANCH  11  13
BRANCH   1  29
ATOM     29  S   UNL     1       7.911  -3.053   4.227  0.00  0.00    -0.108 S 
BRANCH  29  30
ATOM     30  C   UNL     1       7.365  -2.749   2.524  0.00  0.00    +0.168 C 
BRANCH  30  32
ATOM     31  N   UNL     1       5.450  -1.678   1.382  0.00  0.00    -0.314 N 
ATOM     32  C   UNL     1       6.050  -2.013   2.541  0.00  0.00    +0.223 C 
ATOM     33  O   UNL     1       5.532  -1.722   3.599  0.00  0.00    -0.275 OA
ATOM     34  H   UNL     1       5.864  -1.911   0.536  0.00  0.00    +0.149 HD
BRANCH  31  35
ATOM     35  C   UNL     1       4.171  -0.963   1.399  0.00  0.00    +0.109 C 
BRANCH  35  36
ATOM     36  C   UNL     1       3.711  -0.707  -0.038  0.00  0.00    +0.054 C 
BRANCH  36  40
ATOM     37  C   UNL     1      -0.017   1.378   0.010  0.00  0.00    +0.000 A 
ATOM     38  C   UNL     1       1.171   2.086   0.002  0.00  0.00    +0.000 A 
ATOM     39  C   UNL     1       2.377   1.411  -0.013  0.00  0.00    +0.004 A 
ATOM     40  C   UNL     1       2.396   0.029  -0.020  0.00  0.00    -0.046 A 
ATOM     41  C   UNL     1       1.208  -0.679  -0.012  0.00  0.00    +0.004 A 
ATOM     42  C   UNL     1       0.002  -0.004   0.002  0.00  0.00    +0.000 A 
ENDBRANCH  36  40
ENDBRANCH  35  36
ENDBRANCH  31  35
ENDBRANCH  30  32
ENDBRANCH  29  30
ENDBRANCH   1  29
TORSDOF 10
