REMARK  Name = ZINC01890560
REMARK  7 active torsions:
REMARK  status: ('A' for Active; 'I' for Inactive)
REMARK    1  A    between atoms: C_1  and  C_2
REMARK    2  A    between atoms: C_2  and  O_4
REMARK    3  A    between atoms: O_4  and  C_5
REMARK    4  A    between atoms: C_8  and  C_11
REMARK    5  A    between atoms: C_11  and  C_13
REMARK    6  A    between atoms: C_15  and  C_38
REMARK    7  A    between atoms: C_38  and  C_40
REMARK                            x       y       z     vdW  Elec       q    Type
REMARK                         _______ _______ _______ _____ _____    ______ ____
ROOT
ATOM      1  C   UNL     1      -0.009  -7.121  -1.812  0.00  0.00    +0.157 C 
ATOM      2  C   UNL     1       1.455  -7.287  -2.311  0.00  0.00    +0.110 C 
ATOM      3  C   UNL     1       1.370  -8.614  -3.091  0.00  0.00    +0.108 C 
ATOM      4  C   UNL     1       1.054  -8.390  -4.530  0.00  0.00    -0.008 A 
ATOM      5  C   UNL     1      -0.018  -7.791  -5.156  0.00  0.00    +0.006 A 
ATOM      6  C   UNL     1       0.003  -7.750  -6.545  0.00  0.00    +0.000 A 
ATOM      7  C   UNL     1       1.051  -8.287  -7.264  0.00  0.00    +0.002 A 
ATOM      8  C   UNL     1       2.133  -8.891  -6.643  0.00  0.00    +0.023 A 
ATOM      9  C   UNL     1       2.125  -8.938  -5.249  0.00  0.00    +0.038 A 
ATOM     10  N   UNL     1       3.063  -9.473  -4.382  0.00  0.00    -0.284 N 
ATOM     11  C   UNL     1       2.699  -9.325  -3.089  0.00  0.00    +0.231 C 
ATOM     12  O   UNL     1       3.321  -9.693  -2.115  0.00  0.00    -0.274 OA
ATOM     13  C   UNL     1       0.293  -9.425  -2.373  0.00  0.00    +0.117 C 
ATOM     14  N   UNL     1      -0.421  -8.486  -1.475  0.00  0.00    -0.311 N 
ATOM     15  C   UNL     1      -1.264  -8.939  -0.469  0.00  0.00    +0.038 A 
ATOM     16  C   UNL     1      -2.371  -8.251  -0.024  0.00  0.00    +0.024 A 
ATOM     17  C   UNL     1      -3.160  -8.798   0.974  0.00  0.00    +0.002 A 
ATOM     18  C   UNL     1      -2.842 -10.029   1.522  0.00  0.00    +0.001 A 
ATOM     19  C   UNL     1      -1.730 -10.726   1.091  0.00  0.00    +0.010 A 
ATOM     20  C   UNL     1      -0.924 -10.186   0.096  0.00  0.00    -0.004 A 
ATOM     21  C   UNL     1       0.297 -10.866  -0.377  0.00  0.00    +0.007 C 
ATOM     22  C   UNL     1       0.883 -10.528  -1.536  0.00  0.00    -0.003 C 
ATOM     23  H   UNL     1       3.884  -9.902  -4.669  0.00  0.00    +0.155 HD
ENDROOT
BRANCH   1  24
ATOM     24  C   UNL     1      -0.056  -6.237  -0.592  0.00  0.00    +0.184 C 
ATOM     25  O   UNL     1      -0.106  -6.733   0.514  0.00  0.00    -0.290 OA
BRANCH  24  29
ATOM     26  C   UNL     1      -0.014  -2.019  -1.026  0.00  0.00    +0.132 A 
ATOM     27  C   UNL     1      -0.072  -2.585   0.243  0.00  0.00    +0.047 A 
ATOM     28  C   UNL     1      -0.086  -3.953   0.390  0.00  0.00    +0.015 A 
ATOM     29  C   UNL     1      -0.042  -4.776  -0.742  0.00  0.00    +0.020 A 
ATOM     30  C   UNL     1       0.016  -4.202  -2.018  0.00  0.00    +0.015 A 
ATOM     31  C   UNL     1       0.024  -2.832  -2.153  0.00  0.00    +0.047 A 
BRANCH  26  32
ATOM     32  O   UNL     1       0.000  -0.669  -1.165  0.00  0.00    -0.426 OA
BRANCH  32  34
ATOM     33  C   UNL     1      -1.205   1.442  -1.600  0.00  0.00    +0.136 C 
ATOM     34  C   UNL     1      -1.138  -0.062  -1.539  0.00  0.00    +0.309 C 
ATOM     35  O   UNL     1      -2.108  -0.722  -1.828  0.00  0.00    -0.251 OA
ENDBRANCH  32  34
ENDBRANCH  26  32
ENDBRANCH  24  29
ENDBRANCH   1  24
BRANCH   2  36
ATOM     36  C   UNL     1       1.848  -6.150  -3.218  0.00  0.00    +0.171 C 
ATOM     37  O   UNL     1       1.637  -6.225  -4.410  0.00  0.00    -0.292 OA
BRANCH  36  38
ATOM     38  C   UNL     1       2.486  -4.949  -2.659  0.00  0.00    +0.036 A 
ATOM     39  C   UNL     1       2.736  -4.860  -1.285  0.00  0.00    +0.013 A 
ATOM     40  C   UNL     1       3.334  -3.731  -0.768  0.00  0.00    +0.001 A 
ATOM     41  C   UNL     1       3.689  -2.686  -1.604  0.00  0.00    +0.001 A 
ATOM     42  C   UNL     1       3.446  -2.764  -2.964  0.00  0.00    +0.021 A 
ATOM     43  C   UNL     1       2.853  -3.890  -3.499  0.00  0.00    +0.051 A 
ATOM     44 CL   UNL     1       2.555  -3.991  -5.206  0.00  0.00    -0.083 Cl
ENDBRANCH  36  38
ENDBRANCH   2  36
TORSDOF 6
