REMARK  Name = ZINC59105008
REMARK  6 active torsions:
REMARK  status: ('A' for Active; 'I' for Inactive)
REMARK    1  A    between atoms: C_4  and  N_7
REMARK    2  A    between atoms: C_8  and  N_27
REMARK    3  A    between atoms: C_10  and  C_25
REMARK    4  A    between atoms: C_12  and  C_14
REMARK    5  A    between atoms: C_14  and  C_23
REMARK    6  A    between atoms: C_15  and  C_16
REMARK                            x       y       z     vdW  Elec       q    Type
REMARK                         _______ _______ _______ _____ _____    ______ ____
ROOT
ATOM      1  N   UNL     1       3.618  -0.647  -0.036  0.00  0.00    -0.206 N 
ATOM      2  C   UNL     1       3.783  -2.110  -0.052  0.00  0.00    +0.185 C 
ATOM      3  C   UNL     1       5.312  -2.303  -0.065  0.00  0.00    +0.179 C 
ATOM      4  C   UNL     1       5.858  -0.893  -0.056  0.00  0.00    +0.097 C 
ATOM      5  N   UNL     1       4.878  -0.052  -0.046  0.00  0.00    -0.180 NA
ENDROOT
BRANCH   1   9
ATOM      6  C   UNL     1      -0.017   1.379   0.010  0.00  0.00    +0.000 A 
ATOM      7  C   UNL     1       1.169   2.090   0.002  0.00  0.00    +0.002 A 
ATOM      8  C   UNL     1       2.377   1.421  -0.013  0.00  0.00    +0.025 A 
ATOM      9  C   UNL     1       2.400   0.032  -0.021  0.00  0.00    +0.053 A 
ATOM     10  C   UNL     1       1.206  -0.680  -0.013  0.00  0.00    +0.025 A 
ATOM     11  C   UNL     1       0.002  -0.004   0.002  0.00  0.00    +0.002 A 
ENDBRANCH   1   9
BRANCH   2  12
ATOM     12  N   UNL     1       3.194  -2.708   1.153  0.00  0.00    -0.310 NA
ATOM     13  H   UNL     1       2.203  -2.524   1.201  0.00  0.00    +0.120 HD
ATOM     14  H   UNL     1       3.380  -3.699   1.192  0.00  0.00    +0.120 HD
ENDBRANCH   2  12
BRANCH   4  15
ATOM     15  C   UNL     1       7.283  -0.535  -0.063  0.00  0.00    +0.079 C 
ATOM     16  C   UNL     1       8.244  -1.527  -0.080  0.00  0.00    +0.067 C 
BRANCH  16  17
ATOM     17  C   UNL     1       9.612  -1.184  -0.087  0.00  0.00    +0.132 A 
ATOM     18  C   UNL     1      10.674  -2.068  -0.109  0.00  0.00    +0.065 A 
ATOM     19  C   UNL     1      11.842  -1.290  -0.108  0.00  0.00    +0.070 A 
ATOM     20  C   UNL     1      11.459   0.007  -0.086  0.00  0.00    +0.179 A 
ATOM     21  O   UNL     1      10.118   0.068  -0.079  0.00  0.00    -0.449 OA
ATOM     22  I   UNL     1      12.751   1.657  -0.073  0.00  0.00    +0.000 I 
ATOM     23 BR   UNL     1      13.620  -1.935  -0.133  0.00  0.00    -0.046 Br
ENDBRANCH  16  17
BRANCH  15  24
ATOM     24  C   UNL     1       7.675   0.842  -0.053  0.00  0.00    +0.101 C 
ATOM     25  N   UNL     1       7.986   1.935  -0.044  0.00  0.00    -0.191 NA
ENDBRANCH  15  24
ENDBRANCH   4  15
BRANCH   3  26
ATOM     26  C   UNL     1       5.750  -3.037   1.133  0.00  0.00    +0.076 C 
ATOM     27  N   UNL     1       6.088  -3.604   2.058  0.00  0.00    -0.196 NA
ENDBRANCH   3  26
TORSDOF 6
