REMARK  Name = ZINC04791471
REMARK  10 active torsions:
REMARK  status: ('A' for Active; 'I' for Inactive)
REMARK    1  A    between atoms: C_1  and  O_2
REMARK    2  A    between atoms: O_2  and  C_3
REMARK    3  A    between atoms: C_6  and  C_9
REMARK    4  A    between atoms: C_9  and  N_10
REMARK    5  A    between atoms: C_16  and  C_23
REMARK    6  A    between atoms: N_25  and  C_26
REMARK    7  A    between atoms: C_26  and  C_27
REMARK    8  A    between atoms: C_27  and  C_28
REMARK    9  A    between atoms: C_31  and  S_34
REMARK   10  A    between atoms: S_34  and  N_37
REMARK                            x       y       z     vdW  Elec       q    Type
REMARK                         _______ _______ _______ _____ _____    ______ ____
ROOT
ATOM      1  N   UNL     1       1.620  -2.797   5.383  0.00  0.00    -0.256 N 
ATOM      2  C   UNL     1       1.431  -1.856   6.334  0.00  0.00    +0.265 A 
ATOM      3  O   UNL     1       2.052  -0.811   6.309  0.00  0.00    -0.267 OA
ATOM      4  C   UNL     1       0.451  -2.129   7.404  0.00  0.00    +0.063 A 
ATOM      5  C   UNL     1       0.203  -1.207   8.418  0.00  0.00    +0.016 A 
ATOM      6  C   UNL     1      -0.721  -1.501   9.397  0.00  0.00    +0.014 A 
ATOM      7  C   UNL     1      -1.407  -2.719   9.376  0.00  0.00    +0.039 A 
ATOM      8  C   UNL     1      -1.163  -3.646   8.365  0.00  0.00    +0.039 A 
ATOM      9  C   UNL     1      -0.236  -3.355   7.377  0.00  0.00    +0.056 A 
ATOM     10  N   UNL     1       0.036  -4.251   6.352  0.00  0.00    -0.307 N 
ATOM     11  H   UNL     1      -0.431  -5.101   6.321  0.00  0.00    +0.170 HD
ATOM     12  C   UNL     1       0.935  -3.951   5.399  0.00  0.00    +0.330 A 
ATOM     13  O   UNL     1       1.139  -4.761   4.516  0.00  0.00    -0.246 OA
ENDROOT
BRANCH   7  14
ATOM     14  C   UNL     1      -2.396  -3.025  10.434  0.00  0.00    +0.244 C 
ATOM     15  O   UNL     1      -2.994  -4.083  10.418  0.00  0.00    -0.270 OA
ATOM     16  N   UNL     1      -2.634  -2.131  11.413  0.00  0.00    -0.311 N 
ATOM     17  H   UNL     1      -2.157  -1.287  11.426  0.00  0.00    +0.149 HD
BRANCH  16  18
ATOM     18  C   UNL     1      -3.613  -2.434  12.460  0.00  0.00    +0.109 C 
BRANCH  18  19
ATOM     19  C   UNL     1      -3.691  -1.262  13.440  0.00  0.00    +0.054 C 
BRANCH  19  20
ATOM     20  C   UNL     1      -4.699  -1.574  14.517  0.00  0.00    -0.046 A 
ATOM     21  C   UNL     1      -6.025  -1.224  14.345  0.00  0.00    +0.005 A 
ATOM     22  C   UNL     1      -6.949  -1.510  15.332  0.00  0.00    +0.029 A 
ATOM     23  C   UNL     1      -6.546  -2.146  16.492  0.00  0.00    +0.105 A 
ATOM     24  C   UNL     1      -5.220  -2.497  16.664  0.00  0.00    +0.029 A 
ATOM     25  C   UNL     1      -4.297  -2.214  15.674  0.00  0.00    +0.005 A 
BRANCH  23  26
ATOM     26  S   UNL     1      -7.724  -2.510  17.751  0.00  0.00    +0.056 S 
ATOM     27  O   UNL     1      -6.997  -2.618  18.968  0.00  0.00    -0.153 OA
ATOM     28  O   UNL     1      -8.795  -1.592  17.583  0.00  0.00    -0.153 OA
BRANCH  26  29
ATOM     29  N   UNL     1      -8.336  -4.015  17.430  0.00  0.00    -0.204 NA
ATOM     30  H   UNL     1      -8.023  -4.511  16.657  0.00  0.00    +0.144 HD
ATOM     31  H   UNL     1      -9.006  -4.401  18.015  0.00  0.00    +0.144 HD
ENDBRANCH  26  29
ENDBRANCH  23  26
ENDBRANCH  19  20
ENDBRANCH  18  19
ENDBRANCH  16  18
ENDBRANCH   7  14
BRANCH   1  32
ATOM     32  C   UNL     1       2.587  -2.550   4.310  0.00  0.00    +0.165 C 
BRANCH  32  36
ATOM     33  C   UNL     1       0.626  -0.618   1.042  0.00  0.00    +0.120 A 
ATOM     34  C   UNL     1       1.202   0.138   2.051  0.00  0.00    +0.046 A 
ATOM     35  C   UNL     1       1.835  -0.488   3.107  0.00  0.00    +0.009 A 
ATOM     36  C   UNL     1       1.895  -1.869   3.158  0.00  0.00    -0.027 A 
ATOM     37  C   UNL     1       1.322  -2.625   2.152  0.00  0.00    +0.009 A 
ATOM     38  C   UNL     1       0.682  -2.003   1.098  0.00  0.00    +0.046 A 
BRANCH  33  40
ATOM     39  C   UNL     1      -0.017   1.425   0.010  0.00  0.00    +0.277 C 
ATOM     40  O   UNL     1       0.002  -0.004   0.002  0.00  0.00    -0.495 OA
ENDBRANCH  33  40
ENDBRANCH  32  36
ENDBRANCH   1  32
TORSDOF 9
