REMARK  Name = ZINC43222936
REMARK  7 active torsions:
REMARK  status: ('A' for Active; 'I' for Inactive)
REMARK    1  A    between atoms: C_1  and  C_2
REMARK    2  A    between atoms: C_7  and  C_10
REMARK    3  A    between atoms: C_11  and  C_13
REMARK    4  A    between atoms: C_18  and  C_20
REMARK    5  A    between atoms: N_22  and  C_23
REMARK    6  A    between atoms: C_23  and  C_25
REMARK    7  A    between atoms: C_23  and  C_26
REMARK                            x       y       z     vdW  Elec       q    Type
REMARK                         _______ _______ _______ _____ _____    ______ ____
ROOT
ATOM      1  C   UNL     1      -2.516  -2.826  -3.532  0.00  0.00    +0.068 C 
ATOM      2  C   UNL     1      -1.886  -2.088  -2.332  0.00  0.00    -0.069 C 
ATOM      3  N   UNL     1      -2.518  -2.705  -1.138  0.00  0.00    +0.380 N 
ATOM      4  C   UNL     1      -2.596  -4.151  -1.473  0.00  0.00    -0.069 C 
ATOM      5  C   UNL     1      -2.983  -4.184  -2.970  0.00  0.00    +0.068 C 
ATOM      6  H   UNL     1      -1.944  -2.563  -0.321  0.00  0.00    -0.086 HD
ATOM      7  H   UNL     1      -3.442  -2.326  -0.992  0.00  0.00    -0.086 HD
ENDROOT
BRANCH   1  16
ATOM      8  C   UNL     1      -5.346   1.432  -7.004  0.00  0.00    +0.039 C 
ATOM      9  C   UNL     1      -4.271   0.462  -6.509  0.00  0.00    +0.133 C 
ATOM     10  C   UNL     1      -4.639  -0.038  -5.107  0.00  0.00    +0.139 C 
ATOM     11  N   UNL     1      -3.507  -0.817  -4.580  0.00  0.00    -0.296 N 
ATOM     12  C   UNL     1      -2.168  -0.209  -4.629  0.00  0.00    +0.139 C 
ATOM     13  C   UNL     1      -1.920   0.300  -6.054  0.00  0.00    +0.133 C 
ATOM     14  O   UNL     1      -3.010   1.134  -6.453  0.00  0.00    -0.371 OA
ATOM     15  C   UNL     1      -1.809  -0.890  -7.009  0.00  0.00    +0.039 C 
ATOM     16  C   UNL     1      -3.692  -2.049  -4.066  0.00  0.00    +0.218 C 
ATOM     17  O   UNL     1      -4.803  -2.532  -4.034  0.00  0.00    -0.275 OA
ENDBRANCH   1  16
BRANCH   5  18
ATOM     18  C   UNL     1      -2.273  -5.314  -3.671  0.00  0.00    +0.215 C 
ATOM     19  O   UNL     1      -1.464  -5.073  -4.542  0.00  0.00    -0.276 OA
ATOM     20  N   UNL     1      -2.536  -6.591  -3.329  0.00  0.00    -0.309 N 
ATOM     21  H   UNL     1      -3.182  -6.783  -2.632  0.00  0.00    +0.149 HD
BRANCH  20  22
ATOM     22  C   UNL     1      -1.845  -7.688  -4.010  0.00  0.00    +0.101 C 
ATOM     23  C   UNL     1      -1.837  -8.924  -3.108  0.00  0.00    +0.033 C 
BRANCH  22  24
ATOM     24  C   UNL     1      -2.561  -8.010  -5.297  0.00  0.00    -0.020 A 
ATOM     25  C   UNL     1      -3.877  -7.697  -5.444  0.00  0.00    +0.006 A 
ATOM     26  C   UNL     1      -4.555  -7.987  -6.626  0.00  0.00    +0.001 A 
ATOM     27  C   UNL     1      -3.921  -8.593  -7.668  0.00  0.00    +0.008 A 
ATOM     28  C   UNL     1      -2.563  -8.931  -7.552  0.00  0.00    -0.018 A 
ATOM     29  C   UNL     1      -1.871  -8.630  -6.352  0.00  0.00    -0.013 A 
ATOM     30  C   UNL     1      -0.510  -8.964  -6.239  0.00  0.00    +0.009 A 
ATOM     31  C   UNL     1       0.125  -9.564  -7.282  0.00  0.00    +0.001 A 
ATOM     32  C   UNL     1      -0.554  -9.854  -8.465  0.00  0.00    +0.001 A 
ATOM     33  C   UNL     1      -1.875  -9.558  -8.606  0.00  0.00    +0.008 A 
ENDBRANCH  22  24
ENDBRANCH  20  22
ENDBRANCH   5  18
TORSDOF 4
