REMARK  Name = ZINC63896804
REMARK  9 active torsions:
REMARK  status: ('A' for Active; 'I' for Inactive)
REMARK    1  A    between atoms: C_7  and  C_10
REMARK    2  A    between atoms: C_10  and  C_11
REMARK    3  A    between atoms: C_11  and  C_12
REMARK    4  A    between atoms: C_12  and  C_13
REMARK    5  A    between atoms: C_13  and  O_15
REMARK    6  A    between atoms: O_15  and  C_16
REMARK    7  A    between atoms: C_16  and  C_17
REMARK    8  A    between atoms: N_19  and  C_20
REMARK    9  A    between atoms: C_22  and  C_30
REMARK                            x       y       z     vdW  Elec       q    Type
REMARK                         _______ _______ _______ _____ _____    ______ ____
ROOT
ATOM      1  C   UNL     1      -1.712  -6.734  -4.485  0.00  0.00    +0.327 C 
ENDROOT
BRANCH   1   2
ATOM      2  C   UNL     1      -2.647  -7.914  -4.562  0.00  0.00    +0.252 C 
ATOM      3  O   UNL     1      -3.119  -8.381  -3.547  0.00  0.00    -0.272 OA
ATOM      4  N   UNL     1      -2.959  -8.449  -5.759  0.00  0.00    -0.299 N 
ATOM      5  H   UNL     1      -2.581  -8.076  -6.571  0.00  0.00    +0.150 HD
BRANCH   4   6
ATOM      6  C   UNL     1      -3.868  -9.596  -5.834  0.00  0.00    +0.151 C 
ATOM      7  C   UNL     1      -4.846  -9.468  -7.024  0.00  0.00    +0.132 C 
ATOM      8  C   UNL     1      -4.301 -10.145  -8.268  0.00  0.00    -0.046 C 
ATOM      9  C   UNL     1      -3.343 -11.040  -8.106  0.00  0.00    -0.013 C 
ATOM     10  S   UNL     1      -2.986 -11.124  -6.359  0.00  0.00    -0.106 S 
ATOM     11  C   UNL     1      -2.905 -11.654  -9.414  0.00  0.00    +0.042 C 
ATOM     12  C   UNL     1      -4.038 -11.306 -10.404  0.00  0.00    +0.009 C 
ATOM     13  C   UNL     1      -4.616 -10.029  -9.764  0.00  0.00    +0.033 C 
BRANCH   7  14
ATOM     14  C   UNL     1      -5.073  -8.008  -7.320  0.00  0.00    +0.220 C 
ATOM     15  O   UNL     1      -4.762  -7.553  -8.400  0.00  0.00    -0.275 OA
ATOM     16  N   UNL     1      -5.622  -7.208  -6.385  0.00  0.00    -0.329 N 
ATOM     17  H   UNL     1      -5.871  -7.572  -5.521  0.00  0.00    +0.145 HD
ATOM     18  H   UNL     1      -5.768  -6.269  -6.575  0.00  0.00    +0.145 HD
ENDBRANCH   7  14
ENDBRANCH   4   6
ENDBRANCH   1   2
BRANCH   1  19
ATOM     19  O   UNL     1      -1.539  -6.352  -3.119  0.00  0.00    -0.455 OA
BRANCH  19  20
ATOM     20  C   UNL     1      -0.729  -5.309  -2.876  0.00  0.00    +0.308 C 
ATOM     21  O   UNL     1      -0.185  -4.740  -3.793  0.00  0.00    -0.251 OA
BRANCH  20  22
ATOM     22  C   UNL     1      -0.499  -4.848  -1.460  0.00  0.00    +0.121 C 
BRANCH  22  23
ATOM     23  C   UNL     1       0.457  -3.653  -1.462  0.00  0.00    +0.015 C 
BRANCH  23  24
ATOM     24  C   UNL     1       0.691  -3.186  -0.024  0.00  0.00    +0.034 C 
BRANCH  24  31
ATOM     25  C   UNL     1      -0.016   1.348   0.009  0.00  0.00    +0.001 A 
ATOM     26  C   UNL     1       1.166   2.101   0.002  0.00  0.00    +0.002 A 
ATOM     27  C   UNL     1       2.391   1.535  -0.013  0.00  0.00    +0.026 A 
ATOM     28  C   UNL     1       2.529   0.120  -0.022  0.00  0.00    +0.043 A 
ATOM     29  N   UNL     1       3.587  -0.654  -0.037  0.00  0.00    -0.380 N 
ATOM     30  C   UNL     1       3.143  -2.053  -0.041  0.00  0.00    +0.144 C 
ATOM     31  C   UNL     1       1.631  -2.008  -0.025  0.00  0.00    -0.042 C 
ATOM     32  C   UNL     1       1.295  -0.698  -0.014  0.00  0.00    -0.001 A 
ATOM     33  C   UNL     1       0.002  -0.004   0.002  0.00  0.00    +0.010 A 
ATOM     34  H   UNL     1       4.509  -0.353  -0.045  0.00  0.00    +0.160 HD
ENDBRANCH  24  31
ENDBRANCH  23  24
ENDBRANCH  22  23
ENDBRANCH  20  22
ENDBRANCH  19  20
ENDBRANCH   1  19
TORSDOF 9
