REMARK  Name = ZINC21247108
REMARK  9 active torsions:
REMARK  status: ('A' for Active; 'I' for Inactive)
REMARK    1  A    between atoms: C_1  and  C_2
REMARK    2  A    between atoms: C_2  and  C_3
REMARK    3  A    between atoms: C_2  and  O_4
REMARK    4  A    between atoms: O_4  and  C_5
REMARK    5  A    between atoms: C_8  and  C_13
REMARK    6  A    between atoms: C_10  and  O_11
REMARK    7  A    between atoms: O_11  and  C_12
REMARK    8  A    between atoms: C_18  and  C_28
REMARK    9  A    between atoms: C_33  and  C_34
REMARK                            x       y       z     vdW  Elec       q    Type
REMARK                         _______ _______ _______ _____ _____    ______ ____
ROOT
ATOM      1  C   UNL     1       6.022   4.522  -4.396  0.00  0.00    +0.032 C 
ATOM      2  C   UNL     1       5.011   5.664  -4.318  0.00  0.00    +0.059 C 
ATOM      3  C   UNL     1       4.462   5.772  -2.905  0.00  0.00    +0.017 C 
ATOM      4  C   UNL     1       4.308   4.672  -2.150  0.00  0.00    +0.036 C 
ATOM      5  C   UNL     1       3.741   4.629  -0.750  0.00  0.00    +0.136 C 
ATOM      6  N   UNL     1       3.593   5.926  -0.124  0.00  0.00    -0.331 N 
ATOM      7  C   UNL     1       2.710   6.875  -0.634  0.00  0.00    +0.049 A 
ATOM      8  C   UNL     1       1.602   7.293   0.086  0.00  0.00    +0.025 A 
ATOM      9  C   UNL     1       0.727   8.205  -0.480  0.00  0.00    +0.002 A 
ATOM     10  C   UNL     1       0.953   8.694  -1.754  0.00  0.00    +0.002 A 
ATOM     11  C   UNL     1       2.069   8.291  -2.469  0.00  0.00    +0.025 A 
ATOM     12  C   UNL     1       2.955   7.396  -1.896  0.00  0.00    +0.052 A 
ATOM     13  N   UNL     1       4.146   7.033  -2.514  0.00  0.00    -0.316 N 
ATOM     14  C   UNL     1       4.693   3.405  -2.650  0.00  0.00    +0.163 C 
ATOM     15  O   UNL     1       4.530   2.425  -1.950  0.00  0.00    -0.292 OA
ATOM     16  C   UNL     1       5.296   3.228  -4.011  0.00  0.00    +0.088 C 
ATOM     17  H   UNL     1       4.184   6.175   0.769  0.00  0.00    +0.147 HD
ATOM     18  H   UNL     1       4.858   7.855  -2.681  0.00  0.00    +0.152 HD
ENDROOT
BRANCH   1  22
ATOM     19  C   UNL     1       7.533   4.199  -8.384  0.00  0.00    +0.162 A 
ATOM     20  C   UNL     1       6.177   4.051  -8.140  0.00  0.00    +0.050 A 
ATOM     21  C   UNL     1       5.692   4.151  -6.849  0.00  0.00    +0.008 A 
ATOM     22  C   UNL     1       6.557   4.409  -5.801  0.00  0.00    -0.040 A 
ATOM     23  C   UNL     1       7.910   4.557  -6.038  0.00  0.00    +0.053 A 
ATOM     24  C   UNL     1       8.403   4.453  -7.329  0.00  0.00    +0.162 A 
BRANCH  24  25
ATOM     25  O   UNL     1       9.735   4.598  -7.564  0.00  0.00    -0.491 OA
ATOM     26  C   UNL     1      10.569   4.857  -6.433  0.00  0.00    +0.277 C 
ENDBRANCH  24  25
BRANCH  19  27
ATOM     27  O   UNL     1       8.011   4.096  -9.653  0.00  0.00    -0.486 OA
BRANCH  27  29
ATOM     28  C   UNL     1       6.472   5.264 -11.104  0.00  0.00    +0.051 C 
ATOM     29  C   UNL     1       7.052   3.909 -10.695  0.00  0.00    +0.167 C 
ATOM     30  C   UNL     1       7.731   3.260 -11.903  0.00  0.00    +0.051 C 
ENDBRANCH  27  29
ENDBRANCH  19  27
ENDBRANCH   1  22
BRANCH   5  31
ATOM     31  C   UNL     1       2.388   3.966  -0.803  0.00  0.00    -0.011 A 
ATOM     32  C   UNL     1       1.670   3.953  -1.984  0.00  0.00    +0.006 A 
ATOM     33  C   UNL     1       0.430   3.345  -2.033  0.00  0.00    +0.000 A 
ATOM     34  C   UNL     1      -0.091   2.746  -0.900  0.00  0.00    +0.001 A 
ATOM     35  C   UNL     1       0.624   2.765   0.282  0.00  0.00    +0.013 A 
ATOM     36  C   UNL     1       1.865   3.373   0.330  0.00  0.00    +0.060 A 
BRANCH  36  37
ATOM     37  C   UNL     1       2.647   3.387   1.618  0.00  0.00    +0.418 C 
ATOM     38  F   UNL     1       1.893   2.782   2.629  0.00  0.00    -0.166 F 
ATOM     39  F   UNL     1       3.844   2.683   1.445  0.00  0.00    -0.166 F 
ATOM     40  F   UNL     1       2.932   4.709   1.976  0.00  0.00    -0.166 F 
ENDBRANCH  36  37
ENDBRANCH   5  31
TORSDOF 6
