REMARK  Name = ZINC64392110
REMARK  8 active torsions:
REMARK  status: ('A' for Active; 'I' for Inactive)
REMARK    1  A    between atoms: C_1  and  O_2
REMARK    2  A    between atoms: O_2  and  C_3
REMARK    3  A    between atoms: C_5  and  C_11
REMARK    4  A    between atoms: C_7  and  O_9
REMARK    5  A    between atoms: O_9  and  C_10
REMARK    6  A    between atoms: C_13  and  C_17
REMARK    7  A    between atoms: N_27  and  C_30
REMARK    8  A    between atoms: C_30  and  C_31
REMARK                            x       y       z     vdW  Elec       q    Type
REMARK                         _______ _______ _______ _____ _____    ______ ____
ROOT
ATOM      1  C   UNL     1      -3.088  -6.960  -1.657  0.00  0.00    +0.006 A 
ATOM      2  C   UNL     1      -2.612  -6.255  -2.751  0.00  0.00    +0.009 A 
ATOM      3  C   UNL     1      -2.483  -6.873  -3.977  0.00  0.00    +0.016 A 
ATOM      4  C   UNL     1      -2.835  -8.214  -4.110  0.00  0.00    +0.063 A 
ATOM      5  C   UNL     1      -3.318  -8.928  -3.000  0.00  0.00    +0.056 A 
ATOM      6  C   UNL     1      -3.436  -8.291  -1.774  0.00  0.00    +0.034 A 
ATOM      7  N   UNL     1      -3.661 -10.262  -3.162  0.00  0.00    -0.307 N 
ATOM      8  H   UNL     1      -3.996 -10.768  -2.405  0.00  0.00    +0.170 HD
ATOM      9  C   UNL     1      -3.534 -10.862  -4.358  0.00  0.00    +0.330 A 
ATOM     10  O   UNL     1      -3.846 -12.033  -4.458  0.00  0.00    -0.246 OA
ATOM     11  N   UNL     1      -3.078 -10.223  -5.447  0.00  0.00    -0.256 N 
ATOM     12  C   UNL     1      -2.717  -8.922  -5.397  0.00  0.00    +0.265 A 
ATOM     13  O   UNL     1      -2.305  -8.351  -6.388  0.00  0.00    -0.267 OA
ENDROOT
BRANCH   1  16
ATOM     14  C   UNL     1      -2.547  -4.151   0.015  0.00  0.00    +0.134 C 
ATOM     15  N   UNL     1      -3.506  -4.842  -0.519  0.00  0.00    -0.339 N 
ATOM     16  C   UNL     1      -3.222  -6.269  -0.324  0.00  0.00    +0.274 C 
ATOM     17  O   UNL     1      -1.978  -6.317   0.390  0.00  0.00    -0.243 OA
ATOM     18  N   UNL     1      -1.593  -4.964   0.574  0.00  0.00    -0.247 N 
ATOM     19  H   UNL     1      -0.788  -4.663   1.023  0.00  0.00    +0.196 HD
ATOM     20  H   UNL     1      -4.282  -4.476  -0.972  0.00  0.00    +0.164 HD
BRANCH  14  23
ATOM     21  C   UNL     1      -1.200  -0.637   0.010  0.00  0.00    +0.124 A 
ATOM     22  C   UNL     1      -1.253  -2.022   0.009  0.00  0.00    +0.057 A 
ATOM     23  C   UNL     1      -2.487  -2.671   0.017  0.00  0.00    +0.024 A 
ATOM     24  C   UNL     1      -3.663  -1.923   0.027  0.00  0.00    +0.057 A 
ATOM     25  C   UNL     1      -3.603  -0.539   0.028  0.00  0.00    +0.124 A 
ATOM     26  C   UNL     1      -2.373   0.103   0.025  0.00  0.00    +0.091 A 
BRANCH  21  28
ATOM     27  C   UNL     1      -0.017   1.425   0.010  0.00  0.00    +0.277 C 
ATOM     28  O   UNL     1       0.002  -0.004   0.002  0.00  0.00    -0.495 OA
ENDBRANCH  21  28
BRANCH  25  29
ATOM     29  O   UNL     1      -4.750   0.190   0.037  0.00  0.00    -0.495 OA
ATOM     30  C   UNL     1      -4.613   1.613   0.038  0.00  0.00    +0.277 C 
ENDBRANCH  25  29
ENDBRANCH  14  23
ENDBRANCH   1  16
BRANCH  11  31
ATOM     31  C   UNL     1      -2.970 -10.951  -6.714  0.00  0.00    +0.165 C 
BRANCH  31  32
ATOM     32  C   UNL     1      -4.261 -10.819  -7.481  0.00  0.00    -0.027 A 
ATOM     33  C   UNL     1      -5.272 -11.743  -7.296  0.00  0.00    +0.007 A 
ATOM     34  C   UNL     1      -6.456 -11.623  -7.999  0.00  0.00    +0.020 A 
ATOM     35  C   UNL     1      -6.630 -10.577  -8.887  0.00  0.00    +0.041 A 
ATOM     36  C   UNL     1      -5.617  -9.651  -9.072  0.00  0.00    +0.020 A 
ATOM     37  C   UNL     1      -4.436  -9.770  -8.364  0.00  0.00    +0.007 A 
ATOM     38 CL   UNL     1      -8.116 -10.425  -9.771  0.00  0.00    -0.084 Cl
ENDBRANCH  31  32
ENDBRANCH  11  31
TORSDOF 6
