REMARK  Name = ZINC08765855
REMARK  8 active torsions:
REMARK  status: ('A' for Active; 'I' for Inactive)
REMARK    1  A    between atoms: C_6  and  C_7
REMARK    2  A    between atoms: C_12  and  O_18
REMARK    3  A    between atoms: O_18  and  C_19
REMARK    4  A    between atoms: C_21  and  O_34
REMARK    5  A    between atoms: C_23  and  O_33
REMARK    6  A    between atoms: C_25  and  O_32
REMARK    7  A    between atoms: C_27  and  C_30
REMARK    8  A    between atoms: C_30  and  O_31
REMARK                            x       y       z     vdW  Elec       q    Type
REMARK                         _______ _______ _______ _____ _____    ______ ____
ROOT
ATOM      1  C   UNL     1      -1.740  -4.789   5.196  0.00  0.00    +0.064 A 
ATOM      2  C   UNL     1      -1.215  -3.935   6.113  0.00  0.00    +0.208 A 
ATOM      3  O   UNL     1      -1.230  -2.610   5.951  0.00  0.00    -0.462 OA
ATOM      4  C   UNL     1      -1.761  -2.001   4.872  0.00  0.00    +0.142 A 
ATOM      5  C   UNL     1      -1.740  -0.617   4.760  0.00  0.00    +0.092 A 
ATOM      6  C   UNL     1      -2.297  -0.008   3.648  0.00  0.00    +0.128 A 
ATOM      7  C   UNL     1      -2.869  -0.772   2.633  0.00  0.00    +0.047 A 
ATOM      8  C   UNL     1      -2.893  -2.135   2.725  0.00  0.00    +0.019 A 
ATOM      9  C   UNL     1      -2.341  -2.763   3.842  0.00  0.00    +0.065 A 
ATOM     10  C   UNL     1      -2.349  -4.231   3.977  0.00  0.00    +0.200 A 
ATOM     11  O   UNL     1      -2.836  -4.948   3.120  0.00  0.00    -0.286 OA
ENDROOT
BRANCH   1  17
ATOM     12  C   UNL     1      -2.862  -7.014   5.280  0.00  0.00    +0.010 A 
ATOM     13  C   UNL     1      -2.819  -8.378   5.483  0.00  0.00    +0.016 A 
ATOM     14  C   UNL     1      -1.629  -8.991   5.835  0.00  0.00    +0.018 A 
ATOM     15  C   UNL     1      -0.475  -8.241   5.980  0.00  0.00    +0.016 A 
ATOM     16  C   UNL     1      -0.506  -6.877   5.773  0.00  0.00    +0.010 A 
ATOM     17  C   UNL     1      -1.702  -6.255   5.419  0.00  0.00    -0.011 A 
ATOM     18 BR   UNL     1      -1.579 -10.860   6.119  0.00  0.00    -0.050 Br
ENDBRANCH   1  17
BRANCH   6  19
ATOM     19  O   UNL     1      -2.280   1.345   3.543  0.00  0.00    -0.461 OA
BRANCH  19  20
ATOM     20  C   UNL     1      -2.864   1.912   2.369  0.00  0.00    +0.339 C 
ATOM     21  C   UNL     1      -2.864   3.438   2.485  0.00  0.00    +0.214 C 
ATOM     22  C   UNL     1      -1.417   3.935   2.570  0.00  0.00    +0.180 C 
ATOM     23  C   UNL     1      -0.647   3.445   1.340  0.00  0.00    +0.177 C 
ATOM     24  C   UNL     1      -0.733   1.918   1.269  0.00  0.00    +0.179 C 
ATOM     25  O   UNL     1      -2.106   1.522   1.223  0.00  0.00    -0.331 OA
BRANCH  23  26
ATOM     26  O   UNL     1      -1.221   4.011   0.160  0.00  0.00    -0.386 OA
ATOM     27  H   UNL     1      -1.200   4.978   0.138  0.00  0.00    +0.210 HD
ENDBRANCH  23  26
BRANCH  22  28
ATOM     28  O   UNL     1      -1.403   5.364   2.604  0.00  0.00    -0.386 OA
ATOM     29  H   UNL     1      -1.880   5.744   3.355  0.00  0.00    +0.210 HD
ENDBRANCH  22  28
BRANCH  21  30
ATOM     30  O   UNL     1      -3.573   3.829   3.662  0.00  0.00    -0.383 OA
ATOM     31  H   UNL     1      -4.496   3.542   3.678  0.00  0.00    +0.210 HD
ENDBRANCH  21  30
BRANCH  24  32
ATOM     32  C   UNL     1      -0.017   1.425   0.010  0.00  0.00    +0.190 C 
BRANCH  32  33
ATOM     33  O   UNL     1       0.002  -0.004   0.002  0.00  0.00    -0.392 OA
ATOM     34  H   UNL     1       0.442  -0.387  -0.769  0.00  0.00    +0.210 HD
ENDBRANCH  32  33
ENDBRANCH  24  32
ENDBRANCH  19  20
ENDBRANCH   6  19
TORSDOF 8
