REMARK  Name = ZINC36003288
REMARK  14 active torsions:
REMARK  status: ('A' for Active; 'I' for Inactive)
REMARK    1  A    between atoms: C_1  and  C_2
REMARK    2  A    between atoms: C_2  and  O_3
REMARK    3  A    between atoms: O_3  and  C_4
REMARK    4  A    between atoms: C_4  and  C_6
REMARK    5  A    between atoms: C_7  and  C_23
REMARK    6  A    between atoms: N_8  and  C_22
REMARK    7  A    between atoms: C_12  and  C_14
REMARK    8  A    between atoms: C_17  and  O_20
REMARK    9  A    between atoms: O_20  and  C_21
REMARK   10  A    between atoms: C_23  and  N_24
REMARK   11  A    between atoms: N_33  and  C_34
REMARK   12  A    between atoms: C_34  and  C_35
REMARK   13  A    between atoms: C_34  and  C_36
REMARK   14  A    between atoms: C_34  and  C_37
REMARK                            x       y       z     vdW  Elec       q    Type
REMARK                         _______ _______ _______ _____ _____    ______ ____
ROOT
ATOM      1  C   UNL     1       0.599  -2.814  -3.040  0.00  0.00    +0.076 C 
ATOM      2  C   UNL     1       1.588  -3.707  -2.822  0.00  0.00    +0.010 C 
ATOM      3  N   UNL     1       2.772  -3.626  -3.498  0.00  0.00    -0.264 N 
ATOM      4  C   UNL     1       3.045  -2.682  -4.407  0.00  0.00    +0.307 C 
ATOM      5  O   UNL     1       4.129  -2.692  -4.957  0.00  0.00    -0.252 OA
ATOM      6  N   UNL     1       2.158  -1.721  -4.732  0.00  0.00    -0.288 N 
ATOM      7  C   UNL     1       0.846  -1.723  -4.063  0.00  0.00    +0.143 C 
ATOM      8  C   UNL     1       3.801  -4.629  -3.212  0.00  0.00    +0.139 C 
ATOM      9  H   UNL     1       2.377  -1.046  -5.393  0.00  0.00    +0.151 HD
ENDROOT
BRANCH   7  10
ATOM     10  C   UNL     1       0.679  -0.394  -3.374  0.00  0.00    -0.022 A 
ATOM     11  C   UNL     1       1.708   0.121  -2.607  0.00  0.00    +0.009 A 
ATOM     12  C   UNL     1       1.557   1.340  -1.975  0.00  0.00    +0.046 A 
ATOM     13  C   UNL     1       0.372   2.048  -2.110  0.00  0.00    +0.120 A 
ATOM     14  C   UNL     1      -0.659   1.530  -2.880  0.00  0.00    +0.046 A 
ATOM     15  C   UNL     1      -0.501   0.313  -3.515  0.00  0.00    +0.009 A 
BRANCH  13  16
ATOM     16  O   UNL     1       0.221   3.247  -1.488  0.00  0.00    -0.495 OA
ATOM     17  C   UNL     1      -1.026   3.920  -1.671  0.00  0.00    +0.277 C 
ENDBRANCH  13  16
ENDBRANCH   7  10
BRANCH   1  18
ATOM     18  C   UNL     1      -0.628  -2.896  -2.341  0.00  0.00    +0.339 C 
ATOM     19  O   UNL     1      -0.853  -3.847  -1.616  0.00  0.00    -0.245 OA
BRANCH  18  20
ATOM     20  O   UNL     1      -1.550  -1.920  -2.478  0.00  0.00    -0.462 OA
BRANCH  20  22
ATOM     21  C   UNL     1      -3.680  -0.874  -2.024  0.00  0.00    +0.048 C 
ATOM     22  C   UNL     1      -2.766  -2.069  -1.743  0.00  0.00    +0.229 C 
ENDBRANCH  20  22
ENDBRANCH  18  20
ENDBRANCH   1  18
BRANCH   2  23
ATOM     23  C   UNL     1       1.382  -4.810  -1.817  0.00  0.00    -0.026 C 
BRANCH  23  24
ATOM     24  N   UNL     1       0.642  -5.913  -2.445  0.00  0.00    +0.384 N 
ATOM     25  C   UNL     1       0.221  -6.841  -1.398  0.00  0.00    -0.077 C 
ATOM     26  C   UNL     1      -1.060  -7.524  -1.822  0.00  0.00    +0.000 C 
ATOM     27  C   UNL     1      -0.725  -8.857  -2.516  0.00  0.00    +0.107 C 
ATOM     28  N   UNL     1       0.459  -8.718  -3.388  0.00  0.00    -0.287 N 
ATOM     29  C   UNL     1       0.670  -7.559  -4.230  0.00  0.00    +0.091 C 
ATOM     30  C   UNL     1       1.457  -6.480  -3.450  0.00  0.00    -0.059 C 
ATOM     31  C   UNL     1       1.376  -9.706  -3.399  0.00  0.00    +0.303 C 
ATOM     32  O   UNL     1       1.173 -10.732  -2.779  0.00  0.00    -0.253 OA
ATOM     33  N   UNL     1       2.518  -9.556  -4.099  0.00  0.00    -0.294 N 
ATOM     34  H   UNL     1       2.714  -8.712  -4.533  0.00  0.00    +0.151 HD
ATOM     35  H   UNL     1      -0.184  -5.533  -2.881  0.00  0.00    -0.081 HD
BRANCH  33  36
ATOM     36  C   UNL     1       3.465 -10.670  -4.203  0.00  0.00    +0.028 C 
ATOM     37  C   UNL     1       2.777 -11.863  -4.869  0.00  0.00    +0.031 C 
ATOM     38  C   UNL     1       4.668 -10.240  -5.044  0.00  0.00    +0.031 C 
ATOM     39  C   UNL     1       3.938 -11.070  -2.804  0.00  0.00    +0.031 C 
ENDBRANCH  33  36
ENDBRANCH  23  24
ENDBRANCH   2  23
TORSDOF 8
