REMARK  Name = ZINC11605504
REMARK  12 active torsions:
REMARK  status: ('A' for Active; 'I' for Inactive)
REMARK    1  A    between atoms: C_1  and  C_2
REMARK    2  A    between atoms: C_3  and  C_14
REMARK    3  A    between atoms: C_4  and  C_13
REMARK    4  A    between atoms: C_8  and  C_12
REMARK    5  A    between atoms: N_10  and  C_11
REMARK    6  A    between atoms: C_14  and  C_15
REMARK    7  A    between atoms: C_15  and  C_16
REMARK    8  A    between atoms: N_18  and  C_19
REMARK    9  A    between atoms: C_19  and  C_20
REMARK   10  A    between atoms: C_20  and  C_21
REMARK   11  A    between atoms: C_24  and  S_27
REMARK   12  A    between atoms: S_27  and  N_30
REMARK                            x       y       z     vdW  Elec       q    Type
REMARK                         _______ _______ _______ _____ _____    ______ ____
ROOT
ATOM      1  C   UNL     1       0.301   1.031   4.394  0.00  0.00    +0.213 C 
ATOM      2  O   UNL     1       1.471   1.262   4.619  0.00  0.00    -0.276 OA
ATOM      3  N   UNL     1      -0.643   1.415   5.276  0.00  0.00    -0.315 N 
ATOM      4  H   UNL     1      -1.578   1.229   5.096  0.00  0.00    +0.149 HD
ENDROOT
BRANCH   1   5
ATOM      5  C   UNL     1      -0.095   0.313   3.130  0.00  0.00    +0.100 C 
BRANCH   5   6
ATOM      6  C   UNL     1       1.157  -0.008   2.311  0.00  0.00    +0.046 C 
BRANCH   6   9
ATOM      7  C   UNL     1       0.562   1.491  -0.102  0.00  0.00    +0.045 C 
ATOM      8  C   UNL     1       0.480  -0.014  -0.090  0.00  0.00    -0.033 A 
ATOM      9  C   UNL     1       0.760  -0.726   1.047  0.00  0.00    -0.022 A 
ATOM     10  C   UNL     1       0.676  -2.111   1.028  0.00  0.00    +0.044 A 
ATOM     11  N   UNL     1       0.333  -2.765  -0.060  0.00  0.00    -0.232 NA
ATOM     12  C   UNL     1       0.050  -2.130  -1.191  0.00  0.00    +0.159 A 
ATOM     13  C   UNL     1       0.110  -0.723  -1.239  0.00  0.00    +0.045 A 
ATOM     14  C   UNL     1      -0.259  -0.340  -2.597  0.00  0.00    +0.069 A 
ATOM     15  N   UNL     1      -0.512  -1.431  -3.261  0.00  0.00    -0.174 NA
ATOM     16  N   UNL     1      -0.325  -2.547  -2.439  0.00  0.00    -0.249 N 
ATOM     17  C   UNL     1      -0.518  -3.942  -2.845  0.00  0.00    +0.174 C 
ATOM     18  C   UNL     1      -0.334   1.066  -3.135  0.00  0.00    +0.068 C 
ATOM     19  C   UNL     1       0.987  -2.883   2.284  0.00  0.00    +0.066 C 
ENDBRANCH   6   9
ENDBRANCH   5   6
ENDBRANCH   1   5
BRANCH   3  20
ATOM     20  C   UNL     1      -0.257   2.112   6.505  0.00  0.00    +0.109 C 
BRANCH  20  21
ATOM     21  C   UNL     1      -1.510   2.433   7.323  0.00  0.00    +0.054 C 
BRANCH  21  22
ATOM     22  C   UNL     1      -1.113   3.151   8.588  0.00  0.00    -0.046 A 
ATOM     23  C   UNL     1      -0.837   2.430   9.734  0.00  0.00    +0.005 A 
ATOM     24  C   UNL     1      -0.469   3.088  10.893  0.00  0.00    +0.029 A 
ATOM     25  C   UNL     1      -0.386   4.468  10.907  0.00  0.00    +0.105 A 
ATOM     26  C   UNL     1      -0.667   5.189   9.762  0.00  0.00    +0.029 A 
ATOM     27  C   UNL     1      -1.031   4.531   8.602  0.00  0.00    +0.005 A 
BRANCH  25  28
ATOM     28  S   UNL     1       0.079   5.306  12.385  0.00  0.00    +0.056 S 
ATOM     29  O   UNL     1       0.819   4.376  13.165  0.00  0.00    -0.153 OA
ATOM     30  O   UNL     1       0.613   6.562  11.989  0.00  0.00    -0.153 OA
BRANCH  28  31
ATOM     31  N   UNL     1      -1.312   5.627  13.225  0.00  0.00    -0.204 NA
ATOM     32  H   UNL     1      -2.170   5.352  12.865  0.00  0.00    +0.144 HD
ATOM     33  H   UNL     1      -1.269   6.089  14.076  0.00  0.00    +0.144 HD
ENDBRANCH  28  31
ENDBRANCH  25  28
ENDBRANCH  21  22
ENDBRANCH  20  21
ENDBRANCH   3  20
TORSDOF 8
