REMARK  Name = ZINC39664739
REMARK  8 active torsions:
REMARK  status: ('A' for Active; 'I' for Inactive)
REMARK    1  A    between atoms: C_1  and  N_2
REMARK    2  A    between atoms: N_2  and  C_3
REMARK    3  A    between atoms: N_2  and  C_4
REMARK    4  A    between atoms: C_4  and  C_5
REMARK    5  A    between atoms: C_5  and  C_7
REMARK    6  A    between atoms: C_5  and  N_13
REMARK    7  A    between atoms: C_14  and  C_16
REMARK    8  A    between atoms: C_27  and  C_29
REMARK                            x       y       z     vdW  Elec       q    Type
REMARK                         _______ _______ _______ _____ _____    ______ ____
ROOT
ATOM      1  C   UNL     1      -2.124   3.693   1.453  0.00  0.00    +0.100 C 
ATOM      2  C   UNL     1      -2.206   3.920   2.979  0.00  0.00    +0.121 C 
ATOM      3  N   UNL     1      -3.491   4.630   3.183  0.00  0.00    -0.296 N 
ATOM      4  C   UNL     1      -4.426   3.979   2.235  0.00  0.00    +0.115 C 
ATOM      5  C   UNL     1      -3.583   3.731   0.968  0.00  0.00    -0.004 C 
ATOM      6  C   UNL     1      -3.964   2.397   0.334  0.00  0.00    -0.010 C 
ATOM      7  C   UNL     1      -5.400   2.480  -0.193  0.00  0.00    -0.082 C 
ATOM      8  N   UNL     1      -5.500   3.561  -1.181  0.00  0.00    +0.379 N 
ATOM      9  C   UNL     1      -5.222   4.852  -0.540  0.00  0.00    -0.082 C 
ATOM     10  C   UNL     1      -3.779   4.870  -0.028  0.00  0.00    -0.010 C 
ATOM     11  C   UNL     1      -3.750   5.640   4.037  0.00  0.00    +0.249 C 
ATOM     12  O   UNL     1      -4.885   6.056   4.159  0.00  0.00    -0.270 OA
ATOM     13  H   UNL     1      -4.831   3.403  -1.919  0.00  0.00    -0.086 HD
ATOM     14  H   UNL     1      -6.431   3.574  -1.570  0.00  0.00    -0.086 HD
ENDROOT
BRANCH  11  15
ATOM     15  C   UNL     1      -2.654   6.241   4.824  0.00  0.00    +0.073 A 
ATOM     16  C   UNL     1      -1.618   5.440   5.309  0.00  0.00    +0.016 A 
ATOM     17  C   UNL     1      -0.598   6.006   6.043  0.00  0.00    +0.002 A 
ATOM     18  C   UNL     1      -0.597   7.366   6.302  0.00  0.00    +0.023 A 
ATOM     19  C   UNL     1      -1.618   8.168   5.827  0.00  0.00    +0.077 A 
ATOM     20  C   UNL     1      -2.647   7.614   5.083  0.00  0.00    +0.154 A 
ATOM     21  F   UNL     1      -3.642   8.398   4.614  0.00  0.00    -0.203 F 
ATOM     22 CL   UNL     1      -1.608   9.872   6.157  0.00  0.00    -0.081 Cl
ENDBRANCH  11  15
BRANCH   1  24
ATOM     23  N   UNL     1      -0.797   2.171   0.023  0.00  0.00    -0.310 N 
ATOM     24  C   UNL     1      -1.507   2.350   1.155  0.00  0.00    +0.219 C 
ATOM     25  O   UNL     1      -1.650   1.431   1.933  0.00  0.00    -0.275 OA
ATOM     26  H   UNL     1      -0.621   2.924  -0.563  0.00  0.00    +0.149 HD
BRANCH  23  27
ATOM     27  C   UNL     1      -0.291   0.840  -0.321  0.00  0.00    +0.087 C 
BRANCH  27  28
ATOM     28  C   UNL     1       0.858   0.974  -1.287  0.00  0.00    -0.029 A 
ATOM     29  C   UNL     1       0.807   1.917  -2.296  0.00  0.00    +0.005 A 
ATOM     30  C   UNL     1       1.861   2.040  -3.182  0.00  0.00    +0.000 A 
ATOM     31  C   UNL     1       2.966   1.219  -3.058  0.00  0.00    +0.000 A 
ATOM     32  C   UNL     1       3.018   0.276  -2.049  0.00  0.00    +0.000 A 
ATOM     33  C   UNL     1       1.966   0.157  -1.160  0.00  0.00    +0.005 A 
ENDBRANCH  27  28
BRANCH  27  34
ATOM     34  C   UNL     1      -1.409   0.021  -0.969  0.00  0.00    -0.052 C 
BRANCH  34  36
ATOM     35  C   UNL     1      -0.706  -2.010   0.096  0.00  0.00    -0.097 C 
ATOM     36  N   UNL     1      -0.942  -1.352  -1.197  0.00  0.00    +0.377 N 
ATOM     37  C   UNL     1      -1.961  -2.099  -1.946  0.00  0.00    -0.097 C 
ATOM     38  H   UNL     1      -0.083  -1.332  -1.726  0.00  0.00    -0.083 HD
ENDBRANCH  34  36
ENDBRANCH  27  34
ENDBRANCH  23  27
ENDBRANCH   1  24
TORSDOF 6
