REMARK  Name = ZINC36610336
REMARK  17 active torsions:
REMARK  status: ('A' for Active; 'I' for Inactive)
REMARK    1  A    between atoms: C_1  and  C_2
REMARK    2  A    between atoms: C_2  and  C_4
REMARK    3  A    between atoms: C_2  and  C_10
REMARK    4  A    between atoms: C_10  and  C_12
REMARK    5  A    between atoms: C_10  and  N_23
REMARK    6  A    between atoms: N_14  and  C_15
REMARK    7  A    between atoms: C_15  and  C_16
REMARK    8  A    between atoms: C_15  and  C_17
REMARK    9  A    between atoms: C_15  and  C_18
REMARK   10  A    between atoms: C_18  and  C_19
REMARK   11  A    between atoms: C_19  and  C_20
REMARK   12  A    between atoms: C_19  and  C_21
REMARK   13  A    between atoms: C_19  and  C_22
REMARK   14  A    between atoms: N_23  and  C_24
REMARK   15  A    between atoms: C_30  and  C_32
REMARK   16  A    between atoms: C_36  and  O_39
REMARK   17  A    between atoms: C_37  and  O_38
REMARK                            x       y       z     vdW  Elec       q    Type
REMARK                         _______ _______ _______ _____ _____    ______ ____
ROOT
ATOM      1  C   UNL     1      -3.008   0.092  -1.529  0.00  0.00    +0.174 C 
ENDROOT
BRANCH   1   2
ATOM      2  C   UNL     1      -4.389   0.502  -1.969  0.00  0.00    +0.235 C 
ATOM      3  O   UNL     1      -5.205  -0.342  -2.271  0.00  0.00    -0.274 OA
ATOM      4  N   UNL     1      -4.718   1.808  -2.028  0.00  0.00    -0.309 N 
ATOM      5  H   UNL     1      -4.044   2.486  -1.863  0.00  0.00    +0.149 HD
BRANCH   4   6
ATOM      6  C   UNL     1      -6.093   2.204  -2.342  0.00  0.00    +0.030 C 
ATOM      7  C   UNL     1      -6.361   1.978  -3.832  0.00  0.00    +0.031 C 
ATOM      8  C   UNL     1      -7.067   1.363  -1.515  0.00  0.00    +0.031 C 
BRANCH   6   9
ATOM      9  C   UNL     1      -6.286   3.685  -2.009  0.00  0.00    +0.031 C 
BRANCH   9  10
ATOM     10  C   UNL     1      -5.737   3.968  -0.609  0.00  0.00    -0.036 C 
ATOM     11  C   UNL     1      -4.211   3.857  -0.629  0.00  0.00    +0.010 C 
ATOM     12  C   UNL     1      -6.139   5.380  -0.179  0.00  0.00    +0.010 C 
ATOM     13  C   UNL     1      -6.310   2.951   0.379  0.00  0.00    +0.010 C 
ENDBRANCH   9  10
ENDBRANCH   6   9
ENDBRANCH   4   6
ENDBRANCH   1   2
BRANCH   1  14
ATOM     14  N   UNL     1      -2.979  -1.354  -1.297  0.00  0.00    -0.255 N 
ATOM     15  C   UNL     1      -2.504  -1.840  -0.133  0.00  0.00    +0.255 C 
ATOM     16  O   UNL     1      -2.000  -1.089   0.680  0.00  0.00    -0.269 OA
BRANCH  14  17
ATOM     17  C   UNL     1      -3.443  -2.230  -2.283  0.00  0.00    +0.037 A 
ATOM     18  C   UNL     1      -4.682  -2.841  -2.143  0.00  0.00    +0.023 A 
ATOM     19  C   UNL     1      -5.138  -3.706  -3.119  0.00  0.00    +0.002 A 
ATOM     20  C   UNL     1      -4.362  -3.963  -4.235  0.00  0.00    +0.000 A 
ATOM     21  C   UNL     1      -3.127  -3.356  -4.377  0.00  0.00    +0.002 A 
ATOM     22  C   UNL     1      -2.668  -2.486  -3.407  0.00  0.00    +0.023 A 
ENDBRANCH  14  17
BRANCH  15  23
ATOM     23  C   UNL     1      -2.596  -3.284   0.155  0.00  0.00    +0.082 A 
ATOM     24  C   UNL     1      -2.693  -4.205  -0.892  0.00  0.00    +0.017 A 
ATOM     25  C   UNL     1      -2.779  -5.552  -0.619  0.00  0.00    +0.005 A 
ATOM     26  C   UNL     1      -2.770  -6.003   0.691  0.00  0.00    +0.049 A 
ATOM     27  C   UNL     1      -2.674  -5.104   1.739  0.00  0.00    +0.159 A 
ATOM     28  C   UNL     1      -2.581  -3.740   1.479  0.00  0.00    +0.171 A 
BRANCH  28  29
ATOM     29  O   UNL     1      -2.482  -2.855   2.504  0.00  0.00    -0.503 OA
ATOM     30  H   UNL     1      -3.333  -2.536   2.832  0.00  0.00    +0.292 HD
ENDBRANCH  28  29
BRANCH  27  31
ATOM     31  O   UNL     1      -2.667  -5.554   3.022  0.00  0.00    -0.503 OA
ATOM     32  H   UNL     1      -1.784  -5.746   3.367  0.00  0.00    +0.292 HD
ENDBRANCH  27  31
ENDBRANCH  15  23
ENDBRANCH   1  14
BRANCH   1  34
ATOM     33  C   UNL     1      -2.104   1.947  -2.938  0.00  0.00    +0.015 C 
ATOM     34  C   UNL     1      -1.996   0.455  -2.618  0.00  0.00    +0.046 C 
BRANCH  34  35
ATOM     35  C   UNL     1      -0.604   0.144  -2.133  0.00  0.00    -0.042 A 
ATOM     36  C   UNL     1      -0.204   0.550  -0.874  0.00  0.00    +0.004 A 
ATOM     37  C   UNL     1       1.074   0.265  -0.429  0.00  0.00    +0.000 A 
ATOM     38  C   UNL     1       1.952  -0.426  -1.244  0.00  0.00    +0.000 A 
ATOM     39  C   UNL     1       1.551  -0.832  -2.503  0.00  0.00    +0.000 A 
ATOM     40  C   UNL     1       0.272  -0.551  -2.946  0.00  0.00    +0.004 A 
ENDBRANCH  34  35
ENDBRANCH   1  34
TORSDOF 11
