REMARK  Name = ZINC43743212
REMARK  5 active torsions:
REMARK  status: ('A' for Active; 'I' for Inactive)
REMARK    1  A    between atoms: C_1  and  C_2
REMARK    2  A    between atoms: C_12  and  N_17
REMARK    3  A    between atoms: N_17  and  C_18
REMARK    4  A    between atoms: C_18  and  C_19
REMARK    5  A    between atoms: C_26  and  C_39
REMARK                            x       y       z     vdW  Elec       q    Type
REMARK                         _______ _______ _______ _____ _____    ______ ____
ROOT
ATOM      1  N   UNL     1       1.048  -6.534   1.696  0.00  0.00    +0.385 N 
ATOM      2  H   UNL     1       0.819  -6.625   0.718  0.00  0.00    -0.085 HD
ATOM      3  H   UNL     1       1.981  -6.162   1.790  0.00  0.00    -0.085 HD
ENDROOT
BRANCH   1  15
ATOM      4  C   UNL     1      -0.018   1.503   0.010  0.00  0.00    +0.044 C 
ATOM      5  C   UNL     1       0.002  -0.004   0.002  0.00  0.00    -0.050 A 
ATOM      6  C   UNL     1       0.006  -0.686  -1.207  0.00  0.00    +0.005 A 
ATOM      7  C   UNL     1       0.024  -2.063  -1.236  0.00  0.00    +0.026 A 
ATOM      8  C   UNL     1       0.040  -2.780  -0.045  0.00  0.00    +0.047 A 
ATOM      9  C   UNL     1       0.036  -2.084   1.179  0.00  0.00    +0.003 A 
ATOM     10  C   UNL     1       0.023  -0.688   1.184  0.00  0.00    +0.013 A 
ATOM     11  C   UNL     1       0.055  -3.108   2.219  0.00  0.00    -0.021 A 
ATOM     12  C   UNL     1       0.068  -4.306   1.604  0.00  0.00    +0.006 A 
ATOM     13  N   UNL     1       0.060  -4.126   0.250  0.00  0.00    -0.359 N 
ATOM     14  H   UNL     1       0.066  -4.840  -0.407  0.00  0.00    +0.166 HD
ATOM     15  C   UNL     1       0.091  -5.626   2.341  0.00  0.00    -0.024 C 
ATOM     16  C   UNL     1       0.516  -5.367   3.791  0.00  0.00    -0.009 C 
ATOM     17  C   UNL     1      -0.332  -4.237   4.379  0.00  0.00    +0.003 C 
ATOM     18  C   UNL     1       0.057  -2.911   3.713  0.00  0.00    +0.037 C 
ENDBRANCH   1  15
BRANCH   1  19
ATOM     19  C   UNL     1       0.981  -7.853   2.339  0.00  0.00    -0.067 C 
BRANCH  19  20
ATOM     20  C   UNL     1       1.978  -8.800   1.668  0.00  0.00    +0.087 C 
ATOM     21  C   UNL     1       1.884 -10.211   2.277  0.00  0.00    +0.042 C 
ATOM     22  C   UNL     1       1.036 -11.149   1.456  0.00  0.00    +0.014 C 
ATOM     23  C   UNL     1       1.640 -11.392   0.073  0.00  0.00    +0.030 C 
ATOM     24  C   UNL     1       3.038 -11.995   0.270  0.00  0.00    -0.023 C 
ATOM     25  C   UNL     1       3.631 -12.357  -1.092  0.00  0.00    +0.007 C 
ATOM     26  C   UNL     1       2.775 -13.434  -1.760  0.00  0.00    +0.003 C 
ATOM     27  C   UNL     1       1.371 -12.882  -2.021  0.00  0.00    +0.037 C 
ATOM     28  C   UNL     1       0.768 -12.379  -0.705  0.00  0.00    +0.096 C 
ATOM     29  C   UNL     1      -0.749 -12.221  -0.614  0.00  0.00    +0.196 C 
ATOM     30  O   UNL     1      -0.048 -13.282   0.040  0.00  0.00    -0.368 OA
ATOM     31  C   UNL     1       3.913 -10.951   0.957  0.00  0.00    +0.052 C 
ATOM     32  C   UNL     1       3.369 -10.619   2.335  0.00  0.00    +0.181 C 
ATOM     33  O   UNL     1       3.994  -9.358   2.707  0.00  0.00    -0.461 OA
ATOM     34  C   UNL     1       3.407  -8.381   1.975  0.00  0.00    +0.309 C 
ATOM     35  O   UNL     1       3.929  -7.348   1.626  0.00  0.00    -0.251 OA
ATOM     36  C   UNL     1       2.938 -13.252   1.137  0.00  0.00    +0.011 C 
ENDBRANCH  19  20
ENDBRANCH   1  19
TORSDOF 3
