REMARK  Name = ZINC37326348
REMARK  4 active torsions:
REMARK  status: ('A' for Active; 'I' for Inactive)
REMARK    1  A    between atoms: C_3  and  N_9
REMARK    2  A    between atoms: N_9  and  S_10
REMARK    3  A    between atoms: S_10  and  C_13
REMARK    4  A    between atoms: C_17  and  C_18
REMARK                            x       y       z     vdW  Elec       q    Type
REMARK                         _______ _______ _______ _____ _____    ______ ____
ROOT
ATOM      1  S   UNL     1       5.026   1.322   0.086  0.00  0.00    +0.093 S 
ATOM      2  O   UNL     1       5.017   0.635   1.330  0.00  0.00    -0.148 OA
ATOM      3  O   UNL     1       5.210   0.651  -1.153  0.00  0.00    -0.148 OA
ENDROOT
BRANCH   1   4
ATOM      4  C   UNL     1       6.294   2.540   0.192  0.00  0.00    +0.132 A 
ATOM      5  C   UNL     1       7.081   2.679   1.308  0.00  0.00    +0.037 A 
ATOM      6  C   UNL     1       8.041   3.639   1.323  0.00  0.00    +0.048 A 
ATOM      7  S   UNL     1       7.905   4.382  -0.177  0.00  0.00    -0.088 S 
ATOM      8  C   UNL     1       6.566   3.417  -0.851  0.00  0.00    +0.127 A 
BRANCH   8   9
ATOM      9  C   UNL     1       5.941   3.519  -2.119  0.00  0.00    +0.395 C 
ATOM     10  O   UNL     1       5.023   2.763  -2.412  0.00  0.00    -0.240 OA
ATOM     11  O   UNL     1       6.318   4.364  -2.922  0.00  0.00    -0.240 OA
ENDBRANCH   8   9
ENDBRANCH   1   4
BRANCH   1  12
ATOM     12  N   UNL     1       3.582   2.126  -0.021  0.00  0.00    -0.096 NA
BRANCH  12  15
ATOM     13  C   UNL     1       1.212  -0.683  -0.086  0.00  0.00    +0.003 A 
ATOM     14  C   UNL     1       2.400   0.022  -0.080  0.00  0.00    +0.028 A 
ATOM     15  C   UNL     1       2.382   1.410  -0.028  0.00  0.00    +0.094 A 
ATOM     16  C   UNL     1       1.168   2.085   0.018  0.00  0.00    +0.084 A 
ATOM     17  C   UNL     1      -0.017   1.373   0.011  0.00  0.00    +0.061 A 
ATOM     18  C   UNL     1       0.006  -0.010  -0.041  0.00  0.00    +0.021 A 
ATOM     19 CL   UNL     1      -1.535   2.214   0.069  0.00  0.00    -0.082 Cl
ATOM     20 CL   UNL     1       1.140   3.820   0.084  0.00  0.00    -0.080 Cl
ENDBRANCH  12  15
ENDBRANCH   1  12
TORSDOF 4
