REMARK  Name = ZINC10031583
REMARK  17 active torsions:
REMARK  status: ('A' for Active; 'I' for Inactive)
REMARK    1  A    between atoms: C_1  and  C_2
REMARK    2  A    between atoms: C_2  and  C_3
REMARK    3  A    between atoms: C_6  and  C_9
REMARK    4  A    between atoms: C_9  and  C_11
REMARK    5  A    between atoms: C_9  and  N_64
REMARK    6  A    between atoms: C_11  and  C_12
REMARK    7  A    between atoms: C_11  and  C_13
REMARK    8  A    between atoms: C_14  and  C_15
REMARK    9  A    between atoms: C_14  and  N_64
REMARK   10  A    between atoms: N_17  and  C_18
REMARK   11  A    between atoms: C_19  and  C_28
REMARK   12  A    between atoms: C_20  and  C_27
REMARK   13  A    between atoms: C_21  and  C_23
REMARK   14  A    between atoms: N_25  and  C_26
REMARK   15  A    between atoms: C_28  and  O_30
REMARK   16  A    between atoms: O_30  and  C_31
REMARK   17  A    between atoms: C_31  and  C_32
REMARK                            x       y       z     vdW  Elec       q    Type
REMARK                         _______ _______ _______ _____ _____    ______ ____
ROOT
ATOM      1  C   UNL     1      -0.994   1.460  -1.162  0.00  0.00    +0.201 C 
ATOM      2  O   UNL     1      -2.092   1.944  -0.983  0.00  0.00    -0.278 OA
ATOM      3  N   UNL     1      -0.540   1.263  -2.415  0.00  0.00    -0.281 N 
ATOM      4  H   UNL     1       0.337   0.875  -2.558  0.00  0.00    +0.155 HD
ENDROOT
BRANCH   3   5
ATOM      5  C   UNL     1      -1.325   1.613  -3.497  0.00  0.00    +0.087 A 
ATOM      6  C   UNL     1      -1.036   1.489  -4.860  0.00  0.00    +0.091 A 
ATOM      7  C   UNL     1      -1.997   1.916  -5.764  0.00  0.00    -0.015 A 
ATOM      8  C   UNL     1      -3.161   2.429  -5.260  0.00  0.00    +0.079 A 
ATOM      9  S   UNL     1      -2.914   2.306  -3.499  0.00  0.00    -0.068 S 
ATOM     10  C   UNL     1      -1.767   1.819  -7.250  0.00  0.00    +0.046 C 
BRANCH   8  11
ATOM     11  C   UNL     1      -4.323   2.945  -5.987  0.00  0.00    +0.251 C 
ATOM     12  O   UNL     1      -4.327   2.950  -7.204  0.00  0.00    -0.270 OA
ATOM     13  N   UNL     1      -5.389   3.414  -5.308  0.00  0.00    -0.314 N 
ATOM     14  C   UNL     1      -6.551   3.929  -6.035  0.00  0.00    +0.128 C 
ATOM     15  H   UNL     1      -5.386   3.409  -4.338  0.00  0.00    +0.149 HD
ENDBRANCH   8  11
BRANCH   6  16
ATOM     16  C   UNL     1       0.240   0.927  -5.317  0.00  0.00    +0.342 C 
ATOM     17  O   UNL     1       0.343  -0.269  -5.510  0.00  0.00    -0.245 OA
BRANCH  16  18
ATOM     18  O   UNL     1       1.298   1.737  -5.524  0.00  0.00    -0.461 OA
BRANCH  18  19
ATOM     19  C   UNL     1       2.528   1.113  -5.976  0.00  0.00    +0.229 C 
ATOM     20  C   UNL     1       3.607   2.182  -6.154  0.00  0.00    +0.048 C 
ENDBRANCH  18  19
ENDBRANCH  16  18
ENDBRANCH   6  16
ENDBRANCH   3   5
BRANCH   1  21
ATOM     21  C   UNL     1      -0.138   1.078   0.018  0.00  0.00    +0.016 C 
BRANCH  21  22
ATOM     22  N   UNL     1      -0.862   1.395   1.264  0.00  0.00    +0.389 N 
ATOM     23  H   UNL     1      -1.038   2.405   1.305  0.00  0.00    -0.084 HD
ATOM     24  H   UNL     1      -1.757   0.890   1.273  0.00  0.00    -0.084 HD
BRANCH  22  25
ATOM     25  C   UNL     1      -0.065   0.991   2.437  0.00  0.00    -0.038 C 
BRANCH  25  29
ATOM     26  C   UNL     1      -0.814  -3.120   3.325  0.00  0.00    -0.048 A 
ATOM     27  C   UNL     1       0.467  -2.613   3.430  0.00  0.00    +0.004 A 
ATOM     28  C   UNL     1       0.710  -1.282   3.143  0.00  0.00    +0.002 A 
ATOM     29  C   UNL     1      -0.329  -0.460   2.750  0.00  0.00    -0.061 A 
ATOM     30  C   UNL     1      -1.611  -0.966   2.649  0.00  0.00    +0.002 A 
ATOM     31  C   UNL     1      -1.853  -2.297   2.932  0.00  0.00    +0.004 A 
BRANCH  26  33
ATOM     32  C   UNL     1      -1.418  -4.717   5.123  0.00  0.00    +0.009 C 
ATOM     33  C   UNL     1      -1.079  -4.570   3.639  0.00  0.00    +0.032 C 
ENDBRANCH  26  33
ENDBRANCH  25  29
BRANCH  25  34
ATOM     34  C   UNL     1      -0.464   1.852   3.636  0.00  0.00    -0.027 C 
ATOM     35  C   UNL     1      -0.068   3.307   3.374  0.00  0.00    +0.006 C 
ATOM     36  C   UNL     1      -1.977   1.765   3.846  0.00  0.00    +0.006 C 
ENDBRANCH  25  34
ENDBRANCH  22  25
ENDBRANCH  21  22
ENDBRANCH   1  21
TORSDOF 11
