REMARK  Name = ZINC31186008
REMARK  7 active torsions:
REMARK  status: ('A' for Active; 'I' for Inactive)
REMARK    1  A    between atoms: C_1  and  C_2
REMARK    2  A    between atoms: C_4  and  C_16
REMARK    3  A    between atoms: C_6  and  C_11
REMARK    4  A    between atoms: N_18  and  C_19
REMARK    5  A    between atoms: C_22  and  O_25
REMARK    6  A    between atoms: O_25  and  C_26
REMARK    7  A    between atoms: C_26  and  C_27
REMARK                            x       y       z     vdW  Elec       q    Type
REMARK                         _______ _______ _______ _____ _____    ______ ____
ROOT
ATOM      1  C   UNL     1      -1.250   3.433   0.086  0.00  0.00    +0.249 C 
ATOM      2  O   UNL     1      -0.228   4.061  -0.110  0.00  0.00    -0.270 OA
ATOM      3  N   UNL     1      -1.207   2.090   0.186  0.00  0.00    -0.281 N 
ATOM      4  H   UNL     1      -2.140   1.514   0.278  0.00  0.00    +0.155 HD
ENDROOT
BRANCH   1   8
ATOM      5  C   UNL     1      -0.160   6.016   1.614  0.00  0.00    +0.070 C 
ATOM      6  C   UNL     1      -1.638   6.280   1.479  0.00  0.00    +0.091 A 
ATOM      7  C   UNL     1      -2.620   5.402   0.848  0.00  0.00    +0.076 A 
ATOM      8  C   UNL     1      -2.542   4.143   0.215  0.00  0.00    +0.053 A 
ATOM      9  C   UNL     1      -3.715   3.593  -0.289  0.00  0.00    +0.045 A 
ATOM     10  C   UNL     1      -4.917   4.297  -0.139  0.00  0.00    +0.111 A 
ATOM     11  N   UNL     1      -4.953   5.479   0.461  0.00  0.00    -0.207 NA
ATOM     12  C   UNL     1      -3.864   6.048   0.952  0.00  0.00    +0.260 A 
ATOM     13  O   UNL     1      -3.647   7.215   1.592  0.00  0.00    -0.334 OA
ATOM     14  N   UNL     1      -2.273   7.331   1.903  0.00  0.00    -0.080 NA
BRANCH  10  15
ATOM     15  C   UNL     1      -6.165   3.715  -0.667  0.00  0.00    +0.153 A 
ATOM     16  C   UNL     1      -7.402   4.280  -0.597  0.00  0.00    +0.051 A 
ATOM     17  C   UNL     1      -8.291   3.388  -1.224  0.00  0.00    +0.042 A 
ATOM     18  C   UNL     1      -7.565   2.329  -1.635  0.00  0.00    +0.196 A 
ATOM     19  O   UNL     1      -6.282   2.530  -1.296  0.00  0.00    -0.461 OA
ENDBRANCH  10  15
ENDBRANCH   1   8
BRANCH   3  20
ATOM     20  C   UNL     1       0.026   1.426   0.174  0.00  0.00    +0.034 A 
ATOM     21  C   UNL     1       1.062   1.900  -0.620  0.00  0.00    +0.027 A 
ATOM     22  C   UNL     1       2.276   1.242  -0.636  0.00  0.00    +0.047 A 
ATOM     23  C   UNL     1       2.461   0.108   0.141  0.00  0.00    +0.121 A 
ATOM     24  C   UNL     1       1.426  -0.366   0.934  0.00  0.00    +0.047 A 
ATOM     25  C   UNL     1       0.212   0.290   0.952  0.00  0.00    +0.027 A 
BRANCH  23  26
ATOM     26  O   UNL     1       3.656  -0.540   0.124  0.00  0.00    -0.483 OA
BRANCH  26  27
ATOM     27  C   UNL     1       4.676   0.003  -0.716  0.00  0.00    +0.324 C 
BRANCH  27  28
ATOM     28  C   UNL     1       5.920  -0.841  -0.605  0.00  0.00    +0.248 C 
ATOM     29  O   UNL     1       5.931  -1.812   0.122  0.00  0.00    -0.272 OA
ATOM     30  N   UNL     1       7.020  -0.516  -1.313  0.00  0.00    -0.327 N 
ATOM     31  H   UNL     1       7.928  -1.132  -1.232  0.00  0.00    +0.145 HD
ATOM     32  H   UNL     1       7.010   0.364  -1.972  0.00  0.00    +0.145 HD
ENDBRANCH  27  28
ENDBRANCH  26  27
ENDBRANCH  23  26
ENDBRANCH   3  20
TORSDOF 6
