REMARK  Name = ZINC63384496
REMARK  11 active torsions:
REMARK  status: ('A' for Active; 'I' for Inactive)
REMARK    1  A    between atoms: CD1_1  and  CG1_2
REMARK    2  A    between atoms: CG1_2  and  CB_3
REMARK    3  A    between atoms: CB_3  and  CG2_5
REMARK    4  A    between atoms: CB_3  and  CA_6
REMARK    5  A    between atoms: CA_6  and  C_8
REMARK    6  A    between atoms: CA_6  and  N_26
REMARK    7  A    between atoms: N_10  and  CA_11
REMARK    8  A    between atoms: CA_11  and  CB_13
REMARK    9  A    between atoms: CA_11  and  C_23
REMARK   10  A    between atoms: CB_13  and  CG_14
REMARK   11  A    between atoms: C_31  and  O_39
REMARK                            x       y       z     vdW  Elec       q    Type
REMARK                         _______ _______ _______ _____ _____    ______ ____
ROOT
ATOM      1  CA  TRP A   1      -3.303   0.088   2.203  0.00  0.00    +0.163 C 
ENDROOT
BRANCH   1   2
ATOM      2  N   TRP A   1      -4.468  -0.202   3.042  0.00  0.00    -0.287 N 
ATOM      3  C   UNK A   0      -4.601  -1.415   3.613  0.00  0.00    +0.308 C 
ATOM      4  O   UNK A   0      -3.755  -2.269   3.432  0.00  0.00    -0.252 OA
ATOM      5  N   UNK A   0      -5.673  -1.683   4.385  0.00  0.00    -0.245 N 
ATOM      6  C   UNK A   0      -6.720  -0.675   4.621  0.00  0.00    +0.210 C 
ATOM      7  C   UNK A   0      -7.151  -0.745   6.062  0.00  0.00    +0.206 C 
ATOM      8  N   UNK A   0      -7.061  -1.841   6.747  0.00  0.00    -0.214 NA
ATOM      9  C   UNK A   0      -6.557  -2.992   6.203  0.00  0.00    +0.089 A 
ATOM     10  C   UNK A   0      -5.843  -2.936   4.994  0.00  0.00    +0.064 A 
ATOM     11  C   UNK A   0      -5.326  -4.086   4.432  0.00  0.00    +0.026 A 
ATOM     12  C   UNK A   0      -5.519  -5.304   5.061  0.00  0.00    +0.002 A 
ATOM     13  C   UNK A   0      -6.229  -5.372   6.247  0.00  0.00    +0.002 A 
ATOM     14  C   UNK A   0      -6.745  -4.221   6.829  0.00  0.00    +0.030 A 
ATOM     15  H   TRP A   1      -5.143   0.479   3.186  0.00  0.00    +0.151 HD
BRANCH   7  16
ATOM     16  O   UNK A   0      -7.644   0.362   6.656  0.00  0.00    -0.494 OA
ATOM     17  H   UNK A   0      -7.897   0.233   7.580  0.00  0.00    +0.293 HD
ENDBRANCH   7  16
ENDBRANCH   1   2
BRANCH   1  18
ATOM     18  C   TRP A   1      -3.048   1.574   2.194  0.00  0.00    +0.234 C 
ATOM     19  O   TRP A   1      -3.927   2.342   2.523  0.00  0.00    -0.274 OA
ATOM     20  N   TRP A   1      -1.843   2.048   1.820  0.00  0.00    -0.300 N 
ATOM     21  H   TRP A   1      -1.163   1.440   1.492  0.00  0.00    +0.150 HD
BRANCH  20  22
ATOM     22  CA  TRP A   1      -1.561   3.483   1.909  0.00  0.00    +0.190 C 
BRANCH  22  23
ATOM     23  C   TRP A   1      -2.007   4.163   0.640  0.00  0.00    +0.376 C 
ATOM     24  O   TRP A   1      -2.221   3.502  -0.362  0.00  0.00    -0.244 OA
ATOM     25  OXT TRP A   1      -2.154   5.373   0.616  0.00  0.00    -0.244 OA
ENDBRANCH  22  23
BRANCH  22  26
ATOM     26  CB  TRP A   1      -0.058   3.697   2.101  0.00  0.00    +0.067 C 
BRANCH  26  27
ATOM     27  CG  TRP A   1       0.365   3.124   3.429  0.00  0.00    -0.039 C 
ATOM     28  CD2 TRP A   1       0.882   1.895   3.657  0.00  0.00    -0.001 A 
ATOM     29  CE3 TRP A   1       1.192   0.767   2.771  0.00  0.00    +0.010 A 
ATOM     30  CZ3 TRP A   1       1.715  -0.361   3.304  0.00  0.00    +0.001 A 
ATOM     31  CH2 TRP A   1       1.966  -0.479   4.677  0.00  0.00    +0.002 A 
ATOM     32  CZ2 TRP A   1       1.707   0.513   5.554  0.00  0.00    +0.026 A 
ATOM     33  CE2 TRP A   1       1.157   1.745   5.104  0.00  0.00    +0.043 A 
ATOM     34  NE1 TRP A   1       0.823   2.838   5.745  0.00  0.00    -0.380 N 
ATOM     35  CD1 TRP A   1       0.303   3.809   4.776  0.00  0.00    +0.144 C 
ATOM     36  HE1 TRP A   1       0.909   2.983   6.701  0.00  0.00    +0.160 HD
ENDBRANCH  26  27
ENDBRANCH  22  26
ENDBRANCH  20  22
ENDBRANCH   1  18
BRANCH   1  37
ATOM     37  CB  TRP A   1      -3.570  -0.392   0.775  0.00  0.00    +0.015 C 
ATOM     38  CG2 TRP A   1      -4.882   0.213   0.271  0.00  0.00    +0.010 C 
BRANCH  37  40
ATOM     39  CD1 TRP A   1      -2.316  -2.525   1.123  0.00  0.00    +0.004 C 
ATOM     40  CG1 TRP A   1      -3.673  -1.918   0.761  0.00  0.00    +0.002 C 
ENDBRANCH  37  40
ENDBRANCH   1  37
TORSDOF 9
