REMARK  Name = ZINC40146929
REMARK  13 active torsions:
REMARK  status: ('A' for Active; 'I' for Inactive)
REMARK    1  A    between atoms: C_1  and  C_2
REMARK    2  A    between atoms: C_5  and  S_8
REMARK    3  A    between atoms: S_8  and  N_11
REMARK    4  A    between atoms: N_11  and  C_12
REMARK    5  A    between atoms: C_12  and  C_14
REMARK    6  A    between atoms: C_12  and  C_15
REMARK    7  A    between atoms: N_17  and  C_18
REMARK    8  A    between atoms: C_18  and  C_20
REMARK    9  A    between atoms: C_18  and  C_31
REMARK   10  A    between atoms: C_20  and  N_21
REMARK   11  A    between atoms: C_31  and  C_32
REMARK   12  A    between atoms: C_31  and  C_33
REMARK   13  A    between atoms: C_31  and  C_34
REMARK                            x       y       z     vdW  Elec       q    Type
REMARK                         _______ _______ _______ _____ _____    ______ ____
ROOT
ATOM      1  C   UNL     1       3.793  -4.387   1.159  0.00  0.00    +0.232 C 
ATOM      2  O   UNL     1       3.782  -4.167  -0.034  0.00  0.00    -0.274 OA
ATOM      3  N   UNL     1       4.942  -4.273   1.855  0.00  0.00    -0.312 N 
ATOM      4  H   UNL     1       4.950  -4.449   2.808  0.00  0.00    +0.149 HD
ENDROOT
BRANCH   1   5
ATOM      5  C   UNL     1       2.522  -4.787   1.863  0.00  0.00    +0.159 C 
ATOM      6  C   UNL     1       2.705  -6.165   2.501  0.00  0.00    +0.035 C 
BRANCH   5   7
ATOM      7  N   UNL     1       1.423  -4.839   0.895  0.00  0.00    -0.178 NA
ATOM      8  H   UNL     1       1.591  -5.135  -0.014  0.00  0.00    +0.149 HD
BRANCH   7   9
ATOM      9  S   UNL     1      -0.104  -4.394   1.352  0.00  0.00    +0.059 S 
ATOM     10  O   UNL     1      -0.380  -5.075   2.568  0.00  0.00    -0.153 OA
ATOM     11  O   UNL     1      -0.928  -4.526   0.201  0.00  0.00    -0.153 OA
BRANCH   9  16
ATOM     12  C   UNL     1       0.071   1.490   2.675  0.00  0.00    +0.044 C 
ATOM     13  C   UNL     1       0.027   0.021   2.345  0.00  0.00    -0.050 A 
ATOM     14  C   UNL     1      -0.255  -0.389   1.055  0.00  0.00    +0.005 A 
ATOM     15  C   UNL     1      -0.295  -1.738   0.752  0.00  0.00    +0.029 A 
ATOM     16  C   UNL     1      -0.052  -2.675   1.738  0.00  0.00    +0.105 A 
ATOM     17  C   UNL     1       0.231  -2.265   3.027  0.00  0.00    +0.029 A 
ATOM     18  C   UNL     1       0.275  -0.917   3.330  0.00  0.00    +0.005 A 
ENDBRANCH   9  16
ENDBRANCH   7   9
ENDBRANCH   5   7
ENDBRANCH   1   5
BRANCH   3  19
ATOM     19  C   UNL     1       6.177  -3.884   1.170  0.00  0.00    +0.062 C 
BRANCH  19  20
ATOM     20  C   UNL     1       7.074  -5.111   1.000  0.00  0.00    -0.021 C 
ATOM     21  C   UNL     1       6.342  -6.167   0.168  0.00  0.00    +0.012 C 
ATOM     22  C   UNL     1       8.364  -4.705   0.285  0.00  0.00    +0.012 C 
ATOM     23  C   UNL     1       7.413  -5.690   2.374  0.00  0.00    +0.012 C 
ENDBRANCH  19  20
BRANCH  19  24
ATOM     24  C   UNL     1       6.910  -2.829   2.002  0.00  0.00    -0.055 C 
BRANCH  24  25
ATOM     25  N   UNL     1       6.019  -1.684   2.234  0.00  0.00    +0.384 N 
ATOM     26  C   UNL     1       5.749  -1.003   0.959  0.00  0.00    -0.074 C 
ATOM     27  C   UNL     1       4.595  -0.021   1.165  0.00  0.00    +0.017 C 
ATOM     28  C   UNL     1       4.877   0.853   2.361  0.00  0.00    -0.048 A 
ATOM     29  C   UNL     1       4.146   2.020   2.519  0.00  0.00    +0.004 A 
ATOM     30  C   UNL     1       4.374   2.843   3.604  0.00  0.00    +0.000 A 
ATOM     31  C   UNL     1       5.336   2.502   4.536  0.00  0.00    +0.000 A 
ATOM     32  C   UNL     1       6.065   1.341   4.378  0.00  0.00    +0.002 A 
ATOM     33  C   UNL     1       5.839   0.513   3.288  0.00  0.00    -0.061 A 
ATOM     34  C   UNL     1       6.663  -0.740   3.152  0.00  0.00    -0.043 C 
ATOM     35  H   UNL     1       5.152  -2.007   2.636  0.00  0.00    -0.081 HD
ENDBRANCH  24  25
ENDBRANCH  19  24
ENDBRANCH   3  19
TORSDOF 8
