REMARK  Name = ZINC04794682
REMARK  8 active torsions:
REMARK  status: ('A' for Active; 'I' for Inactive)
REMARK    1  A    between atoms: C_1  and  C_2
REMARK    2  A    between atoms: C_2  and  C_3
REMARK    3  A    between atoms: C_6  and  C_9
REMARK    4  A    between atoms: C_18  and  N_27
REMARK    5  A    between atoms: C_20  and  C_26
REMARK    6  A    between atoms: C_22  and  C_24
REMARK    7  A    between atoms: C_24  and  C_25
REMARK    8  A    between atoms: N_27  and  C_28
REMARK                            x       y       z     vdW  Elec       q    Type
REMARK                         _______ _______ _______ _____ _____    ______ ____
ROOT
ATOM      1  C   UNL     1       2.076  -0.437   0.059  0.00  0.00    +0.251 C 
ATOM      2  O   UNL     1       0.995  -0.950  -0.153  0.00  0.00    -0.270 OA
ATOM      3  N   UNL     1       2.150   0.866   0.394  0.00  0.00    -0.264 N 
ATOM      4  C   UNL     1       0.987   1.640   0.504  0.00  0.00    +0.042 A 
ATOM      5  C   UNL     1      -0.209   1.140   0.002  0.00  0.00    +0.024 A 
ATOM      6  C   UNL     1      -1.366   1.887   0.100  0.00  0.00    +0.002 A 
ATOM      7  C   UNL     1      -1.335   3.128   0.709  0.00  0.00    +0.000 A 
ATOM      8  C   UNL     1      -0.148   3.627   1.208  0.00  0.00    +0.007 A 
ATOM      9  C   UNL     1       1.019   2.887   1.107  0.00  0.00    -0.006 A 
ATOM     10  C   UNL     1       2.297   3.464   1.657  0.00  0.00    +0.107 C 
ATOM     11  C   UNL     1       3.316   2.354   1.915  0.00  0.00    +0.031 C 
ATOM     12  C   UNL     1       3.451   1.500   0.648  0.00  0.00    +0.086 C 
ATOM     13  C   UNL     1       2.838   1.479   3.076  0.00  0.00    +0.011 C 
ENDROOT
BRANCH   1  17
ATOM     14  C   UNL     1       5.622  -2.754  -0.251  0.00  0.00    -0.048 A 
ATOM     15  C   UNL     1       4.418  -3.373   0.035  0.00  0.00    +0.004 A 
ATOM     16  C   UNL     1       3.263  -2.626   0.138  0.00  0.00    +0.013 A 
ATOM     17  C   UNL     1       3.310  -1.244  -0.048  0.00  0.00    +0.037 A 
ATOM     18  C   UNL     1       4.527  -0.626  -0.342  0.00  0.00    +0.013 A 
ATOM     19  C   UNL     1       5.676  -1.384  -0.437  0.00  0.00    +0.004 A 
BRANCH  14  21
ATOM     20  C   UNL     1       7.064  -4.036  -1.809  0.00  0.00    +0.009 C 
ATOM     21  C   UNL     1       6.880  -3.576  -0.361  0.00  0.00    +0.032 C 
ENDBRANCH  14  21
ENDBRANCH   1  17
BRANCH  12  22
ATOM     22  C   UNL     1       3.836   2.387  -0.537  0.00  0.00    +0.020 C 
ATOM     23  C   UNL     1       3.670   1.600  -1.839  0.00  0.00    +0.006 C 
ENDBRANCH  12  22
BRANCH  10  24
ATOM     24  N   UNL     1       2.852   4.415   0.691  0.00  0.00    -0.337 N 
ATOM     25  H   UNL     1       2.431   4.529  -0.175  0.00  0.00    +0.147 HD
BRANCH  24  26
ATOM     26  C   UNL     1       3.989   5.158   1.017  0.00  0.00    +0.028 A 
ATOM     27  C   UNL     1       4.481   5.144   2.316  0.00  0.00    +0.023 A 
ATOM     28  C   UNL     1       5.607   5.876   2.635  0.00  0.00    +0.002 A 
ATOM     29  C   UNL     1       6.240   6.631   1.664  0.00  0.00    +0.000 A 
ATOM     30  C   UNL     1       5.750   6.652   0.371  0.00  0.00    +0.002 A 
ATOM     31  C   UNL     1       4.627   5.918   0.045  0.00  0.00    +0.023 A 
ENDBRANCH  24  26
ENDBRANCH  10  24
TORSDOF 5
