REMARK  Name = ZINC22807681
REMARK  7 active torsions:
REMARK  status: ('A' for Active; 'I' for Inactive)
REMARK    1  A    between atoms: C_8  and  C_10
REMARK    2  A    between atoms: C_17  and  O_31
REMARK    3  A    between atoms: C_18  and  C_21
REMARK    4  A    between atoms: C_21  and  N_22
REMARK    5  A    between atoms: N_25  and  C_28
REMARK    6  A    between atoms: C_28  and  C_29
REMARK    7  A    between atoms: C_29  and  O_30
REMARK                            x       y       z     vdW  Elec       q    Type
REMARK                         _______ _______ _______ _____ _____    ______ ____
ROOT
ATOM      1  C   UNL     1       3.726  -3.286  -0.051  0.00  0.00    +0.096 C 
ATOM      2  C   UNL     1       5.086  -3.209  -0.065  0.00  0.00    +0.179 C 
ATOM      3  C   UNL     1       6.018  -4.343  -0.085  0.00  0.00    +0.232 C 
ATOM      4  O   UNL     1       5.747  -5.532  -0.094  0.00  0.00    -0.283 OA
ATOM      5  C   UNL     1       7.356  -3.723  -0.093  0.00  0.00    +0.068 A 
ATOM      6  C   UNL     1       8.650  -4.244  -0.112  0.00  0.00    +0.019 A 
ATOM      7  C   UNL     1       9.724  -3.400  -0.115  0.00  0.00    +0.046 A 
ATOM      8  C   UNL     1       9.530  -2.021  -0.100  0.00  0.00    +0.122 A 
ATOM      9  C   UNL     1       8.251  -1.489  -0.081  0.00  0.00    +0.020 A 
ATOM     10  C   UNL     1       7.147  -2.334  -0.078  0.00  0.00    +0.144 A 
ATOM     11  O   UNL     1       5.822  -2.073  -0.067  0.00  0.00    -0.451 OA
ENDROOT
BRANCH   1  19
ATOM     12  C   UNL     1      -0.016   1.362   0.009  0.00  0.00    +0.001 A 
ATOM     13  C   UNL     1       1.170   2.082   0.002  0.00  0.00    +0.004 A 
ATOM     14  C   UNL     1       2.387   1.434  -0.013  0.00  0.00    +0.047 A 
ATOM     15  C   UNL     1       2.431   0.046  -0.021  0.00  0.00    +0.136 A 
ATOM     16  C   UNL     1       1.226  -0.682  -0.013  0.00  0.00    +0.021 A 
ATOM     17  C   UNL     1       0.002  -0.004   0.002  0.00  0.00    +0.011 A 
ATOM     18  C   UNL     1       1.587  -2.053  -0.024  0.00  0.00    +0.058 A 
ATOM     19  C   UNL     1       2.950  -2.102  -0.038  0.00  0.00    +0.133 A 
ATOM     20  O   UNL     1       3.444  -0.845  -0.036  0.00  0.00    -0.455 OA
ENDBRANCH   1  19
BRANCH   8  21
ATOM     21  O   UNL     1      10.604  -1.190  -0.102  0.00  0.00    -0.506 OA
ATOM     22  H   UNL     1      10.906  -0.941  -0.986  0.00  0.00    +0.292 HD
ENDBRANCH   8  21
BRANCH   9  23
ATOM     23  C   UNL     1       8.056   0.005  -0.064  0.00  0.00    -0.035 C 
BRANCH  23  24
ATOM     24  N   UNL     1       7.978   0.504  -1.444  0.00  0.00    +0.384 N 
ATOM     25  C   UNL     1       9.266   0.286  -2.116  0.00  0.00    -0.063 C 
ATOM     26  C   UNL     1       9.179   0.789  -3.559  0.00  0.00    +0.066 C 
ATOM     27  N   UNL     1       8.844   2.220  -3.557  0.00  0.00    -0.304 NA
ATOM     28  C   UNL     1       7.569   2.456  -2.865  0.00  0.00    +0.066 C 
ATOM     29  C   UNL     1       7.669   1.940  -1.428  0.00  0.00    -0.063 C 
ATOM     30  H   UNL     1       7.252   0.009  -1.940  0.00  0.00    -0.081 HD
BRANCH  27  31
ATOM     31  C   UNL     1       8.808   2.754  -4.925  0.00  0.00    +0.112 C 
BRANCH  31  32
ATOM     32  C   UNL     1       8.705   4.280  -4.874  0.00  0.00    +0.171 C 
BRANCH  32  33
ATOM     33  O   UNL     1       9.893   4.818  -4.290  0.00  0.00    -0.394 OA
ATOM     34  H   UNL     1       9.898   5.783  -4.226  0.00  0.00    +0.209 HD
ENDBRANCH  32  33
ENDBRANCH  31  32
ENDBRANCH  27  31
ENDBRANCH  23  24
ENDBRANCH   9  23
TORSDOF 7
