REMARK  Name = ZINC08788765
REMARK  8 active torsions:
REMARK  status: ('A' for Active; 'I' for Inactive)
REMARK    1  A    between atoms: C_1  and  C_2
REMARK    2  A    between atoms: C_2  and  C_3
REMARK    3  A    between atoms: C_3  and  C_4
REMARK    4  A    between atoms: C_7  and  S_21
REMARK    5  A    between atoms: N_8  and  N_9
REMARK    6  A    between atoms: C_10  and  C_11
REMARK    7  A    between atoms: C_14  and  O_19
REMARK    8  A    between atoms: C_16  and  O_17
REMARK                            x       y       z     vdW  Elec       q    Type
REMARK                         _______ _______ _______ _____ _____    ______ ____
ROOT
ATOM      1  N   UNL     1       2.147   1.813   2.436  0.00  0.00    -0.171 NA
ATOM      2  C   UNL     1       2.184   0.674   3.058  0.00  0.00    +0.145 C 
ENDROOT
BRANCH   2   3
ATOM      3  C   UNL     1       1.790   0.596   4.475  0.00  0.00    +0.039 A 
ATOM      4  C   UNL     1       1.828  -0.629   5.147  0.00  0.00    +0.032 A 
ATOM      5  C   UNL     1       1.459  -0.698   6.473  0.00  0.00    +0.061 A 
ATOM      6  C   UNL     1       1.047   0.448   7.146  0.00  0.00    +0.148 A 
ATOM      7  C   UNL     1       1.006   1.669   6.487  0.00  0.00    +0.102 A 
ATOM      8  C   UNL     1       1.380   1.751   5.156  0.00  0.00    +0.143 A 
ATOM      9 BR   UNL     1       0.445   3.222   7.408  0.00  0.00    -0.043 Br
ATOM     10 BR   UNL     1       1.512  -2.355   7.382  0.00  0.00    -0.046 Br
BRANCH   8  11
ATOM     11  O   UNL     1       1.344   2.946   4.511  0.00  0.00    -0.505 OA
ATOM     12  H   UNL     1       0.498   3.137   4.083  0.00  0.00    +0.292 HD
ENDBRANCH   8  11
BRANCH   6  13
ATOM     13  O   UNL     1       0.685   0.372   8.453  0.00  0.00    -0.504 OA
ATOM     14  H   UNL     1       1.415   0.509   9.072  0.00  0.00    +0.292 HD
ENDBRANCH   6  13
ENDBRANCH   2   3
BRANCH   1  19
ATOM     15  C   UNL     1       3.776   2.123   0.590  0.00  0.00    +0.156 A 
ATOM     16  N   UNL     1       3.684   2.116  -0.711  0.00  0.00    -0.132 NA
ATOM     17  N   UNL     1       2.471   1.888  -1.067  0.00  0.00    -0.121 NA
ATOM     18  C   UNL     1       1.714   1.735  -0.005  0.00  0.00    +0.209 A 
ATOM     19  N   UNL     1       2.523   1.887   1.088  0.00  0.00    -0.191 N 
BRANCH  18  20
ATOM     20  S   UNL     1      -0.017   1.406   0.010  0.00  0.00    -0.102 S 
ATOM     21  H   UNL     1       0.002  -0.004   0.002  0.00  0.00    +0.110 HD
ENDBRANCH  18  20
BRANCH  15  22
ATOM     22  C   UNL     1       5.029   2.355   1.396  0.00  0.00    +0.078 C 
BRANCH  22  24
ATOM     23  C   UNL     1       6.455   4.085   2.498  0.00  0.00    +0.004 C 
ATOM     24  C   UNL     1       5.183   3.850   1.680  0.00  0.00    +0.004 C 
ENDBRANCH  22  24
ENDBRANCH  15  22
ENDBRANCH   1  19
TORSDOF 7
