REMARK  Name = ZINC60710173
REMARK  7 active torsions:
REMARK  status: ('A' for Active; 'I' for Inactive)
REMARK    1  A    between atoms: C_1  and  C_2
REMARK    2  A    between atoms: C_4  and  N_28
REMARK    3  A    between atoms: C_6  and  S_8
REMARK    4  A    between atoms: S_8  and  C_9
REMARK    5  A    between atoms: C_9  and  C_10
REMARK    6  A    between atoms: C_9  and  C_11
REMARK    7  A    between atoms: C_17  and  C_22
REMARK                            x       y       z     vdW  Elec       q    Type
REMARK                         _______ _______ _______ _____ _____    ______ ____
ROOT
ATOM      1  C   UNL     1       0.216  -5.458   3.460  0.00  0.00    +0.124 A 
ATOM      2  N   UNL     1      -0.202  -4.968   4.655  0.00  0.00    -0.309 N 
ATOM      3  H   UNL     1      -0.586  -4.079   4.697  0.00  0.00    +0.170 HD
ATOM      4  C   UNL     1      -0.094  -5.694   5.784  0.00  0.00    +0.260 A 
ATOM      5  O   UNL     1      -0.475  -5.240   6.850  0.00  0.00    -0.267 OA
ATOM      6  C   UNL     1       0.474  -7.006   5.714  0.00  0.00    +0.080 A 
ATOM      7  C   UNL     1       0.695  -7.973   6.782  0.00  0.00    +0.004 A 
ATOM      8  C   UNL     1       1.255  -9.168   6.473  0.00  0.00    +0.056 A 
ATOM      9  S   UNL     1       1.519  -9.057   4.714  0.00  0.00    -0.076 S 
ATOM     10  C   UNL     1       0.878  -7.426   4.437  0.00  0.00    +0.116 A 
ATOM     11  N   UNL     1       0.733  -6.653   3.364  0.00  0.00    -0.225 NA
ENDROOT
BRANCH   7  12
ATOM     12  C   UNL     1       0.314  -7.657   8.179  0.00  0.00    -0.017 A 
ATOM     13  C   UNL     1       0.715  -6.453   8.758  0.00  0.00    +0.008 A 
ATOM     14  C   UNL     1       0.357  -6.163  10.059  0.00  0.00    +0.001 A 
ATOM     15  C   UNL     1      -0.398  -7.064  10.789  0.00  0.00    +0.000 A 
ATOM     16  C   UNL     1      -0.798  -8.260  10.220  0.00  0.00    +0.001 A 
ATOM     17  C   UNL     1      -0.451  -8.558   8.918  0.00  0.00    +0.008 A 
ENDBRANCH   7  12
BRANCH   1  18
ATOM     18  C   UNL     1       0.075  -4.610   2.222  0.00  0.00    +0.117 C 
ATOM     19  C   UNL     1      -1.231  -4.963   1.508  0.00  0.00    +0.027 C 
BRANCH  18  20
ATOM     20  S   UNL     1       0.053  -2.857   2.690  0.00  0.00    -0.075 S 
BRANCH  20  26
ATOM     21  C   UNL     1      -0.018   1.503   0.010  0.00  0.00    +0.066 C 
ATOM     22  C   UNL     1       0.002  -0.004   0.002  0.00  0.00    +0.044 A 
ATOM     23  C   UNL     1       0.006  -0.696  -1.194  0.00  0.00    +0.066 A 
ATOM     24  C   UNL     1       0.025  -2.091  -1.157  0.00  0.00    +0.121 A 
ATOM     25  N   UNL     1       0.039  -2.705   0.022  0.00  0.00    -0.207 NA
ATOM     26  C   UNL     1       0.035  -2.005   1.147  0.00  0.00    +0.191 A 
ATOM     27  N   UNL     1       0.022  -0.679   1.141  0.00  0.00    -0.227 NA
BRANCH  24  28
ATOM     28  N   UNL     1       0.029  -2.826  -2.331  0.00  0.00    -0.343 N 
ATOM     29  H   UNL     1       0.018  -2.371  -3.188  0.00  0.00    +0.144 HD
ATOM     30  H   UNL     1       0.042  -3.795  -2.297  0.00  0.00    +0.144 HD
ENDBRANCH  24  28
ENDBRANCH  20  26
ENDBRANCH  18  20
ENDBRANCH   1  18
TORSDOF 5
