REMARK  Name = ZINC21588924
REMARK  11 active torsions:
REMARK  status: ('A' for Active; 'I' for Inactive)
REMARK    1  A    between atoms: C_1  and  C_2
REMARK    2  A    between atoms: C_5  and  C_10
REMARK    3  A    between atoms: C_7  and  O_8
REMARK    4  A    between atoms: O_8  and  C_9
REMARK    5  A    between atoms: N_12  and  C_13
REMARK    6  A    between atoms: N_12  and  C_21
REMARK    7  A    between atoms: C_13  and  C_14
REMARK    8  A    between atoms: C_14  and  C_15
REMARK    9  A    between atoms: C_22  and  N_37
REMARK   10  A    between atoms: N_23  and  C_30
REMARK   11  A    between atoms: C_30  and  C_31
REMARK                            x       y       z     vdW  Elec       q    Type
REMARK                         _______ _______ _______ _____ _____    ______ ____
ROOT
ATOM      1  C   UNL     1      -0.862  -0.920   0.176  0.00  0.00    +0.251 C 
ATOM      2  O   UNL     1       0.277  -0.496   0.217  0.00  0.00    -0.270 OA
ATOM      3  N   UNL     1      -1.091  -2.202  -0.171  0.00  0.00    -0.260 N 
ENDROOT
BRANCH   3   4
ATOM      4  C   UNL     1      -2.414  -2.675  -0.290  0.00  0.00    +0.140 A 
ATOM      5  C   UNL     1      -3.268  -2.140  -1.233  0.00  0.00    +0.128 A 
ATOM      6  N   UNL     1      -4.552  -2.625  -1.328  0.00  0.00    -0.276 N 
ATOM      7  C   UNL     1      -4.973  -3.602  -0.505  0.00  0.00    +0.331 A 
ATOM      8  O   UNL     1      -6.113  -4.013  -0.601  0.00  0.00    -0.246 OA
ATOM      9  N   UNL     1      -4.157  -4.131   0.424  0.00  0.00    -0.273 N 
ATOM     10  H   UNL     1      -4.523  -4.929   1.087  0.00  0.00    +0.173 HD
ATOM     11  C   UNL     1      -2.889  -3.696   0.555  0.00  0.00    +0.277 A 
ATOM     12  O   UNL     1      -2.157  -4.183   1.401  0.00  0.00    -0.266 OA
BRANCH   5  13
ATOM     13  N   UNL     1      -2.839  -1.139  -2.071  0.00  0.00    -0.343 N 
ATOM     14  H   UNL     1      -3.525  -0.718  -2.821  0.00  0.00    +0.144 HD
ATOM     15  H   UNL     1      -1.810  -0.759  -1.992  0.00  0.00    +0.144 HD
ENDBRANCH   5  13
BRANCH   6  16
ATOM     16  C   UNL     1      -5.467  -2.071  -2.329  0.00  0.00    +0.163 C 
BRANCH  16  17
ATOM     17  C   UNL     1      -6.188  -0.882  -1.746  0.00  0.00    -0.028 A 
ATOM     18  C   UNL     1      -7.325  -1.069  -0.983  0.00  0.00    +0.005 A 
ATOM     19  C   UNL     1      -7.983   0.021  -0.445  0.00  0.00    +0.000 A 
ATOM     20  C   UNL     1      -7.509   1.299  -0.678  0.00  0.00    +0.000 A 
ATOM     21  C   UNL     1      -6.375   1.486  -1.446  0.00  0.00    +0.000 A 
ATOM     22  C   UNL     1      -5.714   0.395  -1.980  0.00  0.00    +0.005 A 
ENDBRANCH  16  17
ENDBRANCH   6  16
ENDBRANCH   3   4
BRANCH   1  27
ATOM     23  C   UNL     1      -5.281   2.539   1.464  0.00  0.00    +0.047 C 
ATOM     24  C   UNL     1      -4.124   1.635   1.126  0.00  0.00    -0.009 A 
ATOM     25  C   UNL     1      -4.267   0.264   1.232  0.00  0.00    +0.007 A 
ATOM     26  C   UNL     1      -3.212  -0.570   0.925  0.00  0.00    +0.013 A 
ATOM     27  C   UNL     1      -1.995  -0.030   0.505  0.00  0.00    +0.041 A 
ATOM     28  C   UNL     1      -1.852   1.354   0.399  0.00  0.00    +0.059 A 
ATOM     29  C   UNL     1      -2.918   2.182   0.709  0.00  0.00    +0.124 A 
BRANCH  29  30
ATOM     30  O   UNL     1      -2.783   3.530   0.607  0.00  0.00    -0.495 OA
ATOM     31  C   UNL     1      -1.514   4.024   0.172  0.00  0.00    +0.277 C 
ENDBRANCH  29  30
ENDBRANCH   1  27
BRANCH   3  32
ATOM     32  C   UNL     1       0.035  -3.105  -0.424  0.00  0.00    +0.118 C 
BRANCH  32  33
ATOM     33  C   UNL     1       0.553  -3.660   0.905  0.00  0.00    +0.050 C 
BRANCH  33  34
ATOM     34  C   UNL     1       1.750  -4.539   0.650  0.00  0.00    -0.072 C 
ATOM     35  C   UNL     1       2.926  -4.008   0.754  0.00  0.00    -0.028 C 
ATOM     36  C   UNL     1       4.208  -4.753   0.521  0.00  0.00    +0.027 C 
ATOM     37  C   UNL     1       3.957  -6.262   0.571  0.00  0.00    +0.004 C 
ATOM     38  C   UNL     1       2.761  -6.585  -0.333  0.00  0.00    +0.005 C 
ATOM     39  C   UNL     1       1.504  -5.977   0.297  0.00  0.00    +0.030 C 
ENDBRANCH  33  34
ENDBRANCH  32  33
ENDBRANCH   3  32
TORSDOF 9
