REMARK  Name = ZINC13056171
REMARK  7 active torsions:
REMARK  status: ('A' for Active; 'I' for Inactive)
REMARK    1  A    between atoms: C_1  and  C_2
REMARK    2  A    between atoms: C_5  and  C_31
REMARK    3  A    between atoms: N_8  and  C_10
REMARK    4  A    between atoms: C_10  and  C_11
REMARK    5  A    between atoms: N_13  and  C_14
REMARK    6  A    between atoms: C_17  and  S_20
REMARK    7  A    between atoms: S_20  and  N_23
REMARK                            x       y       z     vdW  Elec       q    Type
REMARK                         _______ _______ _______ _____ _____    ______ ____
ROOT
ATOM      1  C   UNL     1       5.197  -1.915   3.138  0.00  0.00    +0.033 A 
ATOM      2  C   UNL     1       5.615  -1.092   2.100  0.00  0.00    +0.025 A 
ATOM      3  C   UNL     1       6.922  -0.649   2.055  0.00  0.00    +0.031 A 
ATOM      4  C   UNL     1       7.815  -1.024   3.043  0.00  0.00    +0.113 A 
ATOM      5  C   UNL     1       7.402  -1.844   4.077  0.00  0.00    +0.031 A 
ATOM      6  C   UNL     1       6.095  -2.285   4.131  0.00  0.00    +0.025 A 
ENDROOT
BRANCH   1   9
ATOM      7  C   UNL     1       3.594  -3.583   3.694  0.00  0.00    +0.201 C 
ATOM      8  O   UNL     1       4.496  -4.325   4.021  0.00  0.00    -0.278 OA
ATOM      9  N   UNL     1       3.874  -2.366   3.186  0.00  0.00    -0.287 N 
ATOM     10  H   UNL     1       3.157  -1.803   2.854  0.00  0.00    +0.155 HD
BRANCH   7  11
ATOM     11  C   UNL     1       2.161  -4.021   3.856  0.00  0.00    +0.019 C 
BRANCH  11  17
ATOM     12  C   UNL     1       3.383  -8.701   3.104  0.00  0.00    +0.005 C 
ATOM     13  C   UNL     1       2.761  -7.718   4.097  0.00  0.00    -0.031 C 
ATOM     14  C   UNL     1       1.333  -8.161   4.430  0.00  0.00    +0.003 C 
ATOM     15  C   UNL     1       0.693  -7.129   5.362  0.00  0.00    -0.031 C 
ATOM     16  C   UNL     1       0.732  -5.753   4.694  0.00  0.00    -0.075 C 
ATOM     17  N   UNL     1       2.124  -5.374   4.426  0.00  0.00    +0.386 N 
ATOM     18  C   UNL     1       2.724  -6.320   3.476  0.00  0.00    -0.075 C 
ATOM     19  C   UNL     1      -0.759  -7.522   5.639  0.00  0.00    +0.005 C 
ATOM     20  H   UNL     1       2.648  -5.389   5.288  0.00  0.00    -0.081 HD
ENDBRANCH  11  17
ENDBRANCH   7  11
ENDBRANCH   1   9
BRANCH   4  21
ATOM     21  S   UNL     1       9.482  -0.456   2.982  0.00  0.00    +0.100 S 
ATOM     22  O   UNL     1      10.256  -1.389   3.723  0.00  0.00    -0.146 OA
ATOM     23  O   UNL     1       9.757  -0.148   1.622  0.00  0.00    -0.146 OA
BRANCH  21  24
ATOM     24  N   UNL     1       9.542   0.975   3.813  0.00  0.00    -0.118 NA
ATOM     25  C   UNL     1      10.662   1.612   3.923  0.00  0.00    +0.117 C 
ATOM     26  C   UNL     1      11.929   1.049   3.283  0.00  0.00    +0.073 C 
ATOM     27  C   UNL     1      12.291   1.959   2.129  0.00  0.00    +0.008 C 
ATOM     28  C   UNL     1      13.187   3.131   2.535  0.00  0.00    +0.002 C 
ATOM     29  C   UNL     1      12.755   3.789   3.846  0.00  0.00    +0.019 C 
ATOM     30  C   UNL     1      11.258   3.973   3.957  0.00  0.00    +0.102 C 
ATOM     31  N   UNL     1      10.713   2.751   4.584  0.00  0.00    -0.331 N 
ATOM     32  H   UNL     1      10.388   2.790   5.498  0.00  0.00    +0.147 HD
ENDBRANCH  21  24
ENDBRANCH   4  21
TORSDOF 5
