REMARK  Name = ZINC22066084
REMARK  14 active torsions:
REMARK  status: ('A' for Active; 'I' for Inactive)
REMARK    1  A    between atoms: C_1  and  C_2
REMARK    2  A    between atoms: C_2  and  C_3
REMARK    3  A    between atoms: C_2  and  N_4
REMARK    4  A    between atoms: N_4  and  C_5
REMARK    5  A    between atoms: C_5  and  C_6
REMARK    6  A    between atoms: C_6  and  C_8
REMARK    7  A    between atoms: C_6  and  O_20
REMARK    8  A    between atoms: C_8  and  O_9
REMARK    9  A    between atoms: O_9  and  C_10
REMARK   10  A    between atoms: O_20  and  C_21
REMARK   11  A    between atoms: C_23  and  O_37
REMARK   12  A    between atoms: C_25  and  O_36
REMARK   13  A    between atoms: C_27  and  O_35
REMARK   14  A    between atoms: C_29  and  C_32
REMARK                            x       y       z     vdW  Elec       q    Type
REMARK                         _______ _______ _______ _____ _____    ______ ____
ROOT
ATOM      1  C   UNL     1       0.019   1.514   0.159  0.00  0.00    +0.142 C 
ENDROOT
BRANCH   1   2
ATOM      2  C   UNL     1      -0.445   2.312   1.379  0.00  0.00    -0.047 C 
BRANCH   2   3
ATOM      3  N   UNL     1       0.336   1.907   2.555  0.00  0.00    +0.382 N 
ATOM      4  H   UNL     1       1.398   2.126   2.366  0.00  0.00    -0.085 HD
ATOM      5  H   UNL     1       0.207   0.826   2.709  0.00  0.00    -0.085 HD
BRANCH   3   7
ATOM      6  C   UNL     1       0.280   1.832   5.002  0.00  0.00    -0.014 C 
ATOM      7  C   UNL     1      -0.106   2.630   3.755  0.00  0.00    -0.078 C 
ATOM      8  C   UNL     1       0.566   4.003   3.800  0.00  0.00    -0.014 C 
ENDBRANCH   3   7
ENDBRANCH   2   3
ENDBRANCH   1   2
BRANCH   1   9
ATOM      9  C   UNL     1      -0.835   1.892  -1.053  0.00  0.00    +0.258 C 
BRANCH   9  10
ATOM     10  O   UNL     1      -0.788   3.307  -1.246  0.00  0.00    -0.489 OA
BRANCH  10  11
ATOM     11  C   UNL     1      -1.498   3.811  -2.288  0.00  0.00    +0.128 A 
ATOM     12  C   UNL     1      -2.211   2.976  -3.102  0.00  0.00    +0.046 A 
ATOM     13  C   UNL     1      -2.949   3.478  -4.171  0.00  0.00    +0.004 A 
ATOM     14  C   UNL     1      -2.972   4.812  -4.444  0.00  0.00    +0.009 A 
ATOM     15  C   UNL     1      -2.247   5.702  -3.634  0.00  0.00    -0.014 A 
ATOM     16  C   UNL     1      -1.500   5.197  -2.541  0.00  0.00    +0.024 A 
ATOM     17  C   UNL     1      -0.776   6.088  -1.732  0.00  0.00    +0.012 A 
ATOM     18  C   UNL     1      -0.800   7.421  -2.006  0.00  0.00    +0.001 A 
ATOM     19  C   UNL     1      -1.535   7.918  -3.081  0.00  0.00    +0.001 A 
ATOM     20  C   UNL     1      -2.249   7.085  -3.887  0.00  0.00    +0.008 A 
ENDBRANCH  10  11
ENDBRANCH   9  10
ENDBRANCH   1   9
BRANCH   1  21
ATOM     21  O   UNL     1       1.390   1.813  -0.113  0.00  0.00    -0.344 OA
BRANCH  21  22
ATOM     22  C   UNL     1       2.075   0.792  -0.842  0.00  0.00    +0.283 C 
ATOM     23  C   UNL     1       3.420   1.332  -1.335  0.00  0.00    +0.201 C 
ATOM     24  C   UNL     1       4.287   1.701  -0.127  0.00  0.00    +0.179 C 
ATOM     25  C   UNL     1       4.447   0.468   0.768  0.00  0.00    +0.185 C 
ATOM     26  C   UNL     1       3.062  -0.038   1.180  0.00  0.00    +0.265 C 
ATOM     27  O   UNL     1       2.297  -0.334   0.009  0.00  0.00    -0.331 OA
BRANCH  26  28
ATOM     28  C   UNL     1       3.210  -1.286   2.012  0.00  0.00    +0.387 C 
ATOM     29  O   UNL     1       2.841  -2.350   1.575  0.00  0.00    -0.243 OA
ATOM     30  O   UNL     1       3.751  -1.214   3.238  0.00  0.00    -0.243 OA
ENDBRANCH  26  28
BRANCH  25  31
ATOM     31  O   UNL     1       5.194   0.819   1.935  0.00  0.00    -0.386 OA
ATOM     32  H   UNL     1       5.410   0.058   2.699  0.00  0.00    +0.210 HD
ENDBRANCH  25  31
BRANCH  24  33
ATOM     33  O   UNL     1       5.571   2.138  -0.576  0.00  0.00    -0.386 OA
ATOM     34  H   UNL     1       6.333   2.447   0.155  0.00  0.00    +0.210 HD
ENDBRANCH  24  33
BRANCH  23  35
ATOM     35  O   UNL     1       4.082   0.330  -2.109  0.00  0.00    -0.384 OA
ATOM     36  H   UNL     1       5.068   0.537  -2.549  0.00  0.00    +0.210 HD
ENDBRANCH  23  35
ENDBRANCH  21  22
ENDBRANCH   1  21
TORSDOF 12
