REMARK  Name = ZINC02686942
REMARK  7 active torsions:
REMARK  status: ('A' for Active; 'I' for Inactive)
REMARK    1  A    between atoms: C_1  and  C_2
REMARK    2  A    between atoms: C_5  and  N_8
REMARK    3  A    between atoms: C_9  and  C_11
REMARK    4  A    between atoms: C_11  and  C_12
REMARK    5  A    between atoms: N_16  and  C_24
REMARK    6  A    between atoms: C_24  and  C_25
REMARK    7  A    between atoms: N_27  and  C_28
REMARK                            x       y       z     vdW  Elec       q    Type
REMARK                         _______ _______ _______ _____ _____    ______ ____
ROOT
ATOM      1  C   UNL     1       6.003   2.062  -0.361  0.00  0.00    +0.166 C 
ATOM      2  C   UNL     1       7.321   1.330  -0.362  0.00  0.00    +0.241 C 
ATOM      3  O   UNL     1       7.889   1.116   0.688  0.00  0.00    -0.273 OA
ATOM      4  N   UNL     1       7.874   0.912  -1.515  0.00  0.00    -0.259 N 
ATOM      5  C   UNL     1       7.316   1.266  -2.749  0.00  0.00    +0.058 A 
ATOM      6  C   UNL     1       7.762   0.675  -3.921  0.00  0.00    +0.025 A 
ATOM      7  C   UNL     1       7.194   1.029  -5.131  0.00  0.00    +0.002 A 
ATOM      8  C   UNL     1       6.182   1.970  -5.179  0.00  0.00    +0.002 A 
ATOM      9  C   UNL     1       5.733   2.568  -4.015  0.00  0.00    +0.025 A 
ATOM     10  C   UNL     1       6.301   2.221  -2.801  0.00  0.00    +0.049 A 
ATOM     11  N   UNL     1       5.880   2.828  -1.609  0.00  0.00    -0.331 N 
ATOM     12  H   UNL     1       5.466   3.847  -1.590  0.00  0.00    +0.147 HD
ENDROOT
BRANCH   1  13
ATOM     13  C   UNL     1       4.857   1.052  -0.264  0.00  0.00    +0.127 C 
BRANCH  13  15
ATOM     14  N   UNL     1       2.394   1.100  -0.040  0.00  0.00    -0.285 N 
ATOM     15  C   UNL     1       3.548   1.789  -0.140  0.00  0.00    +0.219 C 
ATOM     16  O   UNL     1       3.534   3.002  -0.129  0.00  0.00    -0.275 OA
ATOM     17  H   UNL     1       2.413   0.002   0.027  0.00  0.00    +0.155 HD
BRANCH  14  22
ATOM     18  C   UNL     1      -2.562   3.860   0.037  0.00  0.00    +0.044 C 
ATOM     19  C   UNL     1      -1.245   3.127   0.016  0.00  0.00    -0.050 A 
ATOM     20  C   UNL     1      -1.150   1.897  -0.609  0.00  0.00    +0.005 A 
ATOM     21  C   UNL     1       0.054   1.220  -0.625  0.00  0.00    +0.023 A 
ATOM     22  C   UNL     1       1.172   1.781  -0.022  0.00  0.00    +0.033 A 
ATOM     23  C   UNL     1       1.075   3.019   0.600  0.00  0.00    +0.023 A 
ATOM     24  C   UNL     1      -0.133   3.688   0.617  0.00  0.00    +0.005 A 
ENDBRANCH  14  22
ENDBRANCH  13  15
ENDBRANCH   1  13
BRANCH   4  25
ATOM     25  C   UNL     1       9.076   0.075  -1.479  0.00  0.00    +0.209 C 
BRANCH  25  26
ATOM     26  C   UNL     1       8.676  -1.377  -1.434  0.00  0.00    +0.235 C 
ATOM     27  O   UNL     1       7.502  -1.683  -1.432  0.00  0.00    -0.274 OA
ATOM     28  N   UNL     1       9.622  -2.336  -1.395  0.00  0.00    -0.284 N 
ATOM     29  H   UNL     1      10.684  -2.058  -1.319  0.00  0.00    +0.155 HD
BRANCH  28  30
ATOM     30  C   UNL     1       9.254  -3.685  -1.451  0.00  0.00    +0.034 A 
ATOM     31  C   UNL     1       8.082  -4.113  -0.841  0.00  0.00    +0.025 A 
ATOM     32  C   UNL     1       7.719  -5.444  -0.902  0.00  0.00    +0.022 A 
ATOM     33  C   UNL     1       8.527  -6.353  -1.561  0.00  0.00    +0.041 A 
ATOM     34  C   UNL     1       9.698  -5.931  -2.166  0.00  0.00    +0.022 A 
ATOM     35  C   UNL     1      10.063  -4.600  -2.113  0.00  0.00    +0.025 A 
ATOM     36 CL   UNL     1       8.070  -8.027  -1.631  0.00  0.00    -0.084 Cl
ENDBRANCH  28  30
ENDBRANCH  25  26
ENDBRANCH   4  25
TORSDOF 6
