REMARK  Name = ZINC36638022
REMARK  11 active torsions:
REMARK  status: ('A' for Active; 'I' for Inactive)
REMARK    1  A    between atoms: C_1  and  C_2
REMARK    2  A    between atoms: C_2  and  N_3
REMARK    3  A    between atoms: N_3  and  C_4
REMARK    4  A    between atoms: N_3  and  C_6
REMARK    5  A    between atoms: C_4  and  C_5
REMARK    6  A    between atoms: C_6  and  C_7
REMARK    7  A    between atoms: C_7  and  N_8
REMARK    8  A    between atoms: C_12  and  O_18
REMARK    9  A    between atoms: O_18  and  C_19
REMARK   10  A    between atoms: C_19  and  C_20
REMARK   11  A    between atoms: C_21  and  C_23
REMARK                            x       y       z     vdW  Elec       q    Type
REMARK                         _______ _______ _______ _____ _____    ______ ____
ROOT
ATOM      1  N   UNL     1      -1.075  -3.732   1.919  0.00  0.00    -0.248 N 
ATOM      2  C   UNL     1      -0.068  -4.593   1.516  0.00  0.00    +0.168 A 
ATOM      3  N   UNL     1       0.014  -5.894   1.671  0.00  0.00    -0.221 NA
ATOM      4  C   UNL     1       1.066  -6.613   1.222  0.00  0.00    +0.122 A 
ATOM      5  C   UNL     1       1.278  -8.012   1.323  0.00  0.00    +0.147 A 
ATOM      6  C   UNL     1       2.415  -8.588   0.808  0.00  0.00    +0.048 A 
ATOM      7  C   UNL     1       3.388  -7.828   0.175  0.00  0.00    +0.005 A 
ATOM      8  C   UNL     1       3.212  -6.462   0.059  0.00  0.00    +0.017 A 
ATOM      9  C   UNL     1       2.079  -5.876   0.571  0.00  0.00    +0.044 A 
ATOM     10  S   UNL     1       1.446  -4.217   0.644  0.00  0.00    -0.052 S 
ATOM     11  C   UNL     1      -2.152  -4.213   2.572  0.00  0.00    +0.253 C 
ATOM     12  O   UNL     1      -2.200  -5.388   2.881  0.00  0.00    -0.270 OA
ENDROOT
BRANCH  11  13
ATOM     13  C   UNL     1      -3.273  -3.313   2.911  0.00  0.00    +0.050 A 
ATOM     14  C   UNL     1      -3.049  -2.176   3.690  0.00  0.00    +0.014 A 
ATOM     15  C   UNL     1      -4.100  -1.340   4.002  0.00  0.00    +0.001 A 
ATOM     16  C   UNL     1      -5.375  -1.625   3.547  0.00  0.00    +0.001 A 
ATOM     17  C   UNL     1      -5.605  -2.750   2.776  0.00  0.00    +0.015 A 
ATOM     18  C   UNL     1      -4.561  -3.593   2.450  0.00  0.00    +0.025 A 
ATOM     19  I   UNL     1      -4.910  -5.291   1.274  0.00  0.00    -0.043 I 
ENDBRANCH  11  13
BRANCH   1  20
ATOM     20  C   UNL     1      -0.970  -2.299   1.637  0.00  0.00    +0.097 C 
BRANCH  20  21
ATOM     21  C   UNL     1      -1.730  -1.976   0.348  0.00  0.00    -0.059 C 
BRANCH  21  22
ATOM     22  N   UNL     1      -1.624  -0.538   0.065  0.00  0.00    +0.380 N 
ATOM     23  H   UNL     1      -1.946  -0.013   0.864  0.00  0.00    -0.082 HD
BRANCH  22  25
ATOM     24  C   UNL     1      -0.091   1.321  -0.371  0.00  0.00    -0.017 C 
ATOM     25  C   UNL     1      -0.223  -0.196  -0.213  0.00  0.00    -0.082 C 
ENDBRANCH  22  25
BRANCH  22  26
ATOM     26  C   UNL     1      -2.451  -0.208  -1.104  0.00  0.00    -0.082 C 
ATOM     27  C   UNL     1      -3.926  -0.432  -0.765  0.00  0.00    -0.017 C 
ENDBRANCH  22  26
ENDBRANCH  21  22
ENDBRANCH  20  21
ENDBRANCH   1  20
BRANCH   5  28
ATOM     28  O   UNL     1       0.347  -8.791   1.937  0.00  0.00    -0.490 OA
BRANCH  28  29
ATOM     29  C   UNL     1       0.619 -10.192   2.007  0.00  0.00    +0.226 C 
ATOM     30  C   UNL     1      -0.532 -10.899   2.727  0.00  0.00    +0.048 C 
ENDBRANCH  28  29
ENDBRANCH   5  28
TORSDOF 8
