REMARK  Name = ZINC24105124
REMARK  7 active torsions:
REMARK  status: ('A' for Active; 'I' for Inactive)
REMARK    1  A    between atoms: C_1  and  C_2
REMARK    2  A    between atoms: C_5  and  C_8
REMARK    3  A    between atoms: C_11  and  S_14
REMARK    4  A    between atoms: N_12  and  N_13
REMARK    5  A    between atoms: S_14  and  C_15
REMARK    6  A    between atoms: C_15  and  C_16
REMARK    7  A    between atoms: C_22  and  C_27
REMARK                            x       y       z     vdW  Elec       q    Type
REMARK                         _______ _______ _______ _____ _____    ______ ____
ROOT
ATOM      1  C   UNL     1       0.210  -9.149   0.274  0.00  0.00    +0.151 C 
ENDROOT
BRANCH   1   2
ATOM      2  C   UNL     1       0.407 -10.489   0.935  0.00  0.00    +0.121 A 
ATOM      3  N   UNL     1       0.235 -11.623   0.209  0.00  0.00    -0.310 N 
ATOM      4  H   UNL     1      -0.012 -11.556  -0.727  0.00  0.00    +0.170 HD
ATOM      5  C   UNL     1       0.401 -12.839   0.761  0.00  0.00    +0.260 A 
ATOM      6  O   UNL     1       0.244 -13.848   0.095  0.00  0.00    -0.267 OA
ATOM      7  C   UNL     1       0.766 -12.930   2.142  0.00  0.00    +0.083 A 
ATOM      8  C   UNL     1       1.002 -14.116   2.958  0.00  0.00    +0.039 A 
ATOM      9  C   UNL     1       1.343 -13.952   4.261  0.00  0.00    +0.059 A 
ATOM     10  S   UNL     1       1.365 -12.181   4.463  0.00  0.00    -0.076 S 
ATOM     11  C   UNL     1       0.921 -11.706   2.812  0.00  0.00    +0.116 A 
ATOM     12  N   UNL     1       0.745 -10.540   2.196  0.00  0.00    -0.226 NA
BRANCH   8  13
ATOM     13  C   UNL     1       0.872 -15.468   2.377  0.00  0.00    +0.136 A 
ATOM     14  C   UNL     1       1.785 -16.471   2.478  0.00  0.00    +0.050 A 
ATOM     15  C   UNL     1       1.255 -17.575   1.780  0.00  0.00    +0.042 A 
ATOM     16  C   UNL     1       0.058 -17.196   1.294  0.00  0.00    +0.196 A 
ATOM     17  O   UNL     1      -0.173 -15.924   1.661  0.00  0.00    -0.463 OA
ENDBRANCH   8  13
ENDBRANCH   1   2
BRANCH   1  18
ATOM     18  S   UNL     1       0.514  -7.829   1.481  0.00  0.00    -0.077 S 
BRANCH  18  22
ATOM     19  C   UNL     1       0.058  -4.251  -0.021  0.00  0.00    +0.182 A 
ATOM     20  N   UNL     1      -0.205  -5.029  -1.045  0.00  0.00    -0.127 NA
ATOM     21  N   UNL     1      -0.094  -6.262  -0.700  0.00  0.00    -0.121 NA
ATOM     22  C   UNL     1       0.247  -6.346   0.567  0.00  0.00    +0.209 A 
ATOM     23  N   UNL     1       0.361  -5.071   1.041  0.00  0.00    -0.224 N 
BRANCH  19  28
ATOM     24  C   UNL     1      -0.018   1.503   0.010  0.00  0.00    +0.044 C 
ATOM     25  C   UNL     1       0.002  -0.004   0.002  0.00  0.00    -0.050 A 
ATOM     26  C   UNL     1       0.006  -0.686  -1.202  0.00  0.00    +0.004 A 
ATOM     27  C   UNL     1       0.024  -2.066  -1.216  0.00  0.00    +0.012 A 
ATOM     28  C   UNL     1       0.039  -2.773  -0.013  0.00  0.00    +0.021 A 
ATOM     29  C   UNL     1       0.036  -2.079   1.198  0.00  0.00    +0.012 A 
ATOM     30  C   UNL     1       0.023  -0.699   1.198  0.00  0.00    +0.004 A 
ENDBRANCH  19  28
BRANCH  23  31
ATOM     31  N   UNL     1       0.701  -4.689   2.308  0.00  0.00    -0.295 N 
ATOM     32  H   UNL     1      -0.117  -4.601   2.891  0.00  0.00    +0.163 HD
ATOM     33  H   UNL     1       1.367  -5.330   2.713  0.00  0.00    +0.163 HD
ENDBRANCH  23  31
ENDBRANCH  18  22
ENDBRANCH   1  18
TORSDOF 6
