REMARK  Name = ZINC36371652
REMARK  11 active torsions:
REMARK  status: ('A' for Active; 'I' for Inactive)
REMARK    1  A    between atoms: C_1  and  C_2
REMARK    2  A    between atoms: C_2  and  C_4
REMARK    3  A    between atoms: C_2  and  C_10
REMARK    4  A    between atoms: C_4  and  C_5
REMARK    5  A    between atoms: C_5  and  C_6
REMARK    6  A    between atoms: C_6  and  C_7
REMARK    7  A    between atoms: C_7  and  C_8
REMARK    8  A    between atoms: C_7  and  C_9
REMARK    9  A    between atoms: C_16  and  C_35
REMARK   10  A    between atoms: C_27  and  C_34
REMARK   11  A    between atoms: C_29  and  O_30
REMARK                            x       y       z     vdW  Elec       q    Type
REMARK                         _______ _______ _______ _____ _____    ______ ____
ROOT
ATOM      1  C   UNL     1       0.662  -1.014  -1.119  0.00  0.00    -0.002 C 
ATOM      2  C   UNL     1      -0.178  -0.900  -2.407  0.00  0.00    +0.004 C 
ATOM      3  C   UNL     1      -0.208  -2.309  -3.037  0.00  0.00    +0.004 C 
ATOM      4  C   UNL     1       0.045  -3.262  -1.831  0.00  0.00    -0.001 C 
ATOM      5  C   UNL     1       1.109  -2.480  -1.035  0.00  0.00    -0.026 C 
ATOM      6  C   UNL     1       1.260  -2.962   0.389  0.00  0.00    +0.007 C 
ATOM      7  C   UNL     1      -0.086  -2.986   1.114  0.00  0.00    +0.005 C 
ATOM      8  C   UNL     1      -1.032  -3.917   0.347  0.00  0.00    +0.002 C 
ATOM      9  C   UNL     1      -1.272  -3.344  -1.056  0.00  0.00    -0.003 C 
ATOM     10  C   UNL     1      -2.266  -4.211  -1.831  0.00  0.00    +0.004 C 
ATOM     11  C   UNL     1      -3.608  -4.239  -1.093  0.00  0.00    +0.005 C 
ATOM     12  C   UNL     1      -3.483  -3.426   0.195  0.00  0.00    +0.007 C 
ATOM     13  C   UNL     1      -2.359  -4.019   1.100  0.00  0.00    -0.004 C 
ATOM     14  C   UNL     1      -2.268  -3.344   2.433  0.00  0.00    +0.029 C 
ATOM     15  C   UNL     1      -3.291  -2.686   2.978  0.00  0.00    +0.156 C 
ATOM     16  C   UNL     1      -4.577  -2.581   2.273  0.00  0.00    +0.197 C 
ATOM     17  O   UNL     1      -5.447  -1.832   2.666  0.00  0.00    -0.289 OA
ATOM     18  C   UNL     1      -4.805  -3.454   0.970  0.00  0.00    +0.087 C 
ATOM     19  C   UNL     1      -2.675  -5.497   1.340  0.00  0.00    +0.016 C 
ATOM     20  C   UNL     1       2.461  -2.627  -1.736  0.00  0.00    +0.012 C 
ENDROOT
BRANCH   1  22
ATOM     21  C   UNL     1      -0.786   0.744  -0.091  0.00  0.00    +0.008 C 
ATOM     22  C   UNL     1      -0.189  -0.652   0.100  0.00  0.00    -0.010 C 
BRANCH  22  23
ATOM     23  C   UNL     1       0.686  -0.665   1.355  0.00  0.00    +0.003 C 
BRANCH  23  24
ATOM     24  C   UNL     1      -0.081  -0.031   2.518  0.00  0.00    +0.001 C 
BRANCH  24  25
ATOM     25  C   UNL     1       0.737  -0.168   3.803  0.00  0.00    +0.003 C 
BRANCH  25  26
ATOM     26  C   UNL     1       0.002   0.525   4.952  0.00  0.00    -0.017 C 
ATOM     27  C   UNL     1      -1.313  -0.206   5.230  0.00  0.00    +0.007 C 
ATOM     28  C   UNL     1       0.876   0.496   6.208  0.00  0.00    +0.007 C 
ENDBRANCH  25  26
ENDBRANCH  24  25
ENDBRANCH  23  24
ENDBRANCH  22  23
ENDBRANCH   1  22
BRANCH  15  29
ATOM     29  O   UNL     1      -3.143  -2.103   4.199  0.00  0.00    -0.504 OA
ATOM     30  H   UNL     1      -3.935  -1.648   4.516  0.00  0.00    +0.292 HD
ENDBRANCH  15  29
TORSDOF 6
