REMARK  Name = ZINC51093954
REMARK  6 active torsions:
REMARK  status: ('A' for Active; 'I' for Inactive)
REMARK    1  A    between atoms: C_1  and  O_2
REMARK    2  A    between atoms: O_2  and  C_3
REMARK    3  A    between atoms: C_8  and  N_10
REMARK    4  A    between atoms: C_11  and  C_13
REMARK    5  A    between atoms: C_17  and  N_19
REMARK    6  A    between atoms: N_19  and  N_20
REMARK                            x       y       z     vdW  Elec       q    Type
REMARK                         _______ _______ _______ _____ _____    ______ ____
ROOT
ATOM      1  C   UNL     1       4.729  -2.573  -0.699  0.00  0.00    +0.146 A 
ATOM      2  C   UNL     1       5.342  -3.498  -1.541  0.00  0.00    +0.072 A 
ATOM      3  C   UNL     1       6.692  -3.357  -1.835  0.00  0.00    +0.026 A 
ATOM      4  C   UNL     1       7.383  -2.297  -1.277  0.00  0.00    +0.046 A 
ATOM      5  C   UNL     1       6.709  -1.407  -0.441  0.00  0.00    +0.133 A 
ATOM      6  N   UNL     1       5.423  -1.563  -0.184  0.00  0.00    -0.225 NA
ATOM      7 CL   UNL     1       4.428  -4.812  -2.215  0.00  0.00    -0.081 Cl
ENDROOT
BRANCH   1   9
ATOM      8  N   UNL     1       2.690  -1.818   0.431  0.00  0.00    -0.305 N 
ATOM      9  C   UNL     1       3.291  -2.713  -0.379  0.00  0.00    +0.264 C 
ATOM     10  O   UNL     1       2.651  -3.634  -0.847  0.00  0.00    -0.268 OA
ATOM     11  H   UNL     1       3.201  -1.083   0.804  0.00  0.00    +0.149 HD
BRANCH   8  16
ATOM     12  C   UNL     1       0.673  -0.582   1.123  0.00  0.00    +0.138 C 
ATOM     13  C   UNL     1      -0.335  -0.898   2.255  0.00  0.00    +0.033 C 
ATOM     14  C   UNL     1       0.388  -2.008   3.058  0.00  0.00    +0.004 C 
ATOM     15  C   UNL     1       1.082  -2.864   1.979  0.00  0.00    +0.025 C 
ATOM     16  C   UNL     1       1.267  -1.956   0.747  0.00  0.00    +0.102 C 
BRANCH  12  18
ATOM     17  C   UNL     1      -0.017   1.425   0.010  0.00  0.00    +0.194 C 
ATOM     18  O   UNL     1       0.002  -0.004   0.002  0.00  0.00    -0.378 OA
ENDBRANCH  12  18
ENDBRANCH   8  16
ENDBRANCH   1   9
BRANCH   5  19
ATOM     19  N   UNL     1       7.398  -0.339   0.123  0.00  0.00    -0.268 N 
ATOM     20  H   UNL     1       8.341  -0.217  -0.065  0.00  0.00    +0.167 HD
BRANCH  19  21
ATOM     21  N   UNL     1       6.745   0.538   0.943  0.00  0.00    -0.255 NA
ATOM     22  H   UNL     1       6.307   0.055   1.713  0.00  0.00    +0.140 HD
ATOM     23  H   UNL     1       7.371   1.256   1.275  0.00  0.00    +0.140 HD
ENDBRANCH  19  21
ENDBRANCH   5  19
TORSDOF 5
