REMARK  Name = ZINC02132098
REMARK  8 active torsions:
REMARK  status: ('A' for Active; 'I' for Inactive)
REMARK    1  A    between atoms: C_1  and  C_2
REMARK    2  A    between atoms: C_16  and  C_18
REMARK    3  A    between atoms: C_18  and  C_19
REMARK    4  A    between atoms: C_19  and  C_20
REMARK    5  A    between atoms: N_25  and  C_28
REMARK    6  A    between atoms: C_28  and  C_29
REMARK    7  A    between atoms: C_32  and  O_35
REMARK    8  A    between atoms: O_35  and  C_36
REMARK                            x       y       z     vdW  Elec       q    Type
REMARK                         _______ _______ _______ _____ _____    ______ ____
ROOT
ATOM      1  C   UNL     1      -0.080   5.351   0.026  0.00  0.00    +0.046 C 
ATOM      2  C   UNL     1      -0.053   3.844   0.020  0.00  0.00    -0.028 A 
ATOM      3  C   UNL     1      -1.236   3.135   0.030  0.00  0.00    +0.025 A 
ATOM      4  C   UNL     1      -1.221   1.752   0.017  0.00  0.00    +0.042 A 
ATOM      5  C   UNL     1      -0.013   1.076   0.008  0.00  0.00    +0.024 A 
ATOM      6  C   UNL     1       1.170   1.780   0.000  0.00  0.00    -0.026 A 
ATOM      7  C   UNL     1       1.167   3.172   0.005  0.00  0.00    +0.039 A 
ATOM      8  N   UNL     1       2.477   3.658  -0.006  0.00  0.00    -0.286 N 
ATOM      9  C   UNL     1       3.387   2.666  -0.013  0.00  0.00    +0.211 C 
ATOM     10  O   UNL     1       4.593   2.789  -0.021  0.00  0.00    -0.277 OA
ATOM     11  C   UNL     1       2.616   1.373  -0.010  0.00  0.00    +0.050 C 
ATOM     12  C   UNL     1       2.955   0.518  -1.237  0.00  0.00    +0.088 C 
ATOM     13  C   UNL     1       4.009  -0.502  -0.722  0.00  0.00    +0.073 C 
ATOM     14  C   UNL     1       4.206  -0.152   0.768  0.00  0.00    -0.057 C 
ATOM     15  C   UNL     1       3.295  -1.829  -0.834  0.00  0.00    +0.224 C 
ATOM     16  O   UNL     1       3.763  -2.905  -0.526  0.00  0.00    -0.275 OA
ATOM     17  N   UNL     1       2.067  -1.633  -1.328  0.00  0.00    -0.237 N 
ATOM     18  C   UNL     1       1.772  -0.355  -1.591  0.00  0.00    +0.225 C 
ATOM     19  O   UNL     1       0.719   0.042  -2.042  0.00  0.00    -0.275 OA
ATOM     20 CL   UNL     1      -2.714   0.865   0.020  0.00  0.00    -0.084 Cl
ATOM     21  H   UNL     1       2.704   4.601  -0.008  0.00  0.00    +0.155 HD
ATOM     22  N   UNL     1       2.974   0.551   1.133  0.00  0.00    +0.394 N 
ATOM     23  H   UNL     1       2.226  -0.124   1.332  0.00  0.00    -0.083 HD
ATOM     24  H   UNL     1       3.132   1.140   1.958  0.00  0.00    -0.083 HD
ENDROOT
BRANCH  14  25
ATOM     25  C   UNL     1       4.387  -1.427   1.595  0.00  0.00    -0.006 C 
BRANCH  25  26
ATOM     26  C   UNL     1       4.628  -1.055   3.059  0.00  0.00    +0.094 C 
BRANCH  26  27
ATOM     27  C   UNL     1       4.806  -2.311   3.873  0.00  0.00    +0.210 C 
ATOM     28  O   UNL     1       4.746  -3.396   3.335  0.00  0.00    -0.276 OA
ATOM     29  N   UNL     1       5.032  -2.228   5.199  0.00  0.00    -0.329 N 
ATOM     30  H   UNL     1       5.080  -1.359   5.630  0.00  0.00    +0.145 HD
ATOM     31  H   UNL     1       5.146  -3.036   5.723  0.00  0.00    +0.145 HD
ENDBRANCH  26  27
ENDBRANCH  25  26
ENDBRANCH  14  25
BRANCH  17  32
ATOM     32  C   UNL     1       1.122  -2.728  -1.560  0.00  0.00    +0.151 C 
BRANCH  32  33
ATOM     33  C   UNL     1       0.294  -2.949  -0.321  0.00  0.00    -0.029 A 
ATOM     34  C   UNL     1       0.723  -3.839   0.646  0.00  0.00    +0.009 A 
ATOM     35  C   UNL     1      -0.032  -4.039   1.786  0.00  0.00    +0.046 A 
ATOM     36  C   UNL     1      -1.227  -3.354   1.954  0.00  0.00    +0.120 A 
ATOM     37  C   UNL     1      -1.657  -2.466   0.980  0.00  0.00    +0.046 A 
ATOM     38  C   UNL     1      -0.896  -2.265  -0.155  0.00  0.00    +0.009 A 
BRANCH  36  39
ATOM     39  O   UNL     1      -1.974  -3.553   3.072  0.00  0.00    -0.495 OA
ATOM     40  C   UNL     1      -1.468  -4.482   4.033  0.00  0.00    +0.277 C 
ENDBRANCH  36  39
ENDBRANCH  32  33
ENDBRANCH  17  32
TORSDOF 6
