REMARK  Name = ZINC59309967
REMARK  13 active torsions:
REMARK  status: ('A' for Active; 'I' for Inactive)
REMARK    1  A    between atoms: C_1  and  C_2
REMARK    2  A    between atoms: C_2  and  C_3
REMARK    3  A    between atoms: C_3  and  C_4
REMARK    4  A    between atoms: C_4  and  S_5
REMARK    5  A    between atoms: S_5  and  C_6
REMARK    6  A    between atoms: C_12  and  C_14
REMARK    7  A    between atoms: C_14  and  S_15
REMARK    8  A    between atoms: S_15  and  C_16
REMARK    9  A    between atoms: N_21  and  N_22
REMARK   10  A    between atoms: C_23  and  C_24
REMARK   11  A    between atoms: C_25  and  C_31
REMARK   12  A    between atoms: N_27  and  C_30
REMARK   13  A    between atoms: C_28  and  C_29
REMARK                            x       y       z     vdW  Elec       q    Type
REMARK                         _______ _______ _______ _____ _____    ______ ____
ROOT
ATOM      1  C   UNL     1       0.965 -13.388   1.247  0.00  0.00    +0.211 A 
ATOM      2  N   UNL     1       0.565 -14.438   0.521  0.00  0.00    -0.186 NA
ATOM      3  C   UNL     1       0.928 -15.553   1.118  0.00  0.00    +0.232 A 
ATOM      4  N   UNL     1       1.577 -15.225   2.256  0.00  0.00    -0.245 N 
ATOM      5  N   UNL     1       1.593 -13.822   2.314  0.00  0.00    -0.144 NA
ATOM      6  N   UNL     1       0.687 -16.835   0.661  0.00  0.00    -0.205 N 
ATOM      7  H   UNL     1       0.995 -17.599   1.174  0.00  0.00    +0.177 HD
ATOM      8  H   UNL     1       1.960 -15.837   2.903  0.00  0.00    +0.192 HD
ENDROOT
BRANCH   6   9
ATOM      9  N   UNL     1      -0.002 -17.032  -0.542  0.00  0.00    -0.187 NA
ATOM     10  C   UNL     1      -0.228 -18.235  -0.971  0.00  0.00    +0.141 C 
BRANCH  10  11
ATOM     11  C   UNL     1      -0.954 -18.443  -2.240  0.00  0.00    +0.038 A 
ATOM     12  C   UNL     1      -1.454 -17.435  -3.092  0.00  0.00    +0.069 A 
ATOM     13  N   UNL     1      -2.032 -18.013  -4.110  0.00  0.00    -0.176 NA
ATOM     14  N   UNL     1      -1.929 -19.401  -3.959  0.00  0.00    -0.271 N 
ATOM     15  C   UNL     1      -1.264 -19.656  -2.815  0.00  0.00    +0.045 A 
ATOM     16  C   UNL     1      -0.924 -21.017  -2.265  0.00  0.00    +0.066 C 
ATOM     17  C   UNL     1      -2.452 -20.405  -4.889  0.00  0.00    +0.172 C 
ATOM     18  C   UNL     1      -1.342 -15.949  -2.865  0.00  0.00    +0.068 C 
ENDBRANCH  10  11
ENDBRANCH   6   9
BRANCH   1  19
ATOM     19  S   UNL     1       0.697 -11.696   0.834  0.00  0.00    -0.075 S 
BRANCH  19  20
ATOM     20  C   UNL     1       1.475 -10.784   2.195  0.00  0.00    +0.173 C 
BRANCH  20  27
ATOM     21  C   UNL     1       1.579  -4.396   2.548  0.00  0.00    +0.160 A 
ATOM     22  N   UNL     1       1.039  -5.149   1.601  0.00  0.00    -0.133 NA
ATOM     23  N   UNL     1       1.085  -6.409   1.645  0.00  0.00    -0.125 NA
ATOM     24  C   UNL     1       1.673  -7.056   2.637  0.00  0.00    +0.189 A 
ATOM     25  S   UNL     1       2.234  -5.670   3.623  0.00  0.00    -0.024 S 
ATOM     26  N   UNL     1       1.820  -8.424   2.852  0.00  0.00    -0.263 N 
ATOM     27  C   UNL     1       1.316  -9.303   1.963  0.00  0.00    +0.229 C 
ATOM     28  O   UNL     1       0.736  -8.903   0.976  0.00  0.00    -0.275 OA
ATOM     29  H   UNL     1       2.284  -8.744   3.641  0.00  0.00    +0.157 HD
BRANCH  21  30
ATOM     30  S   UNL     1       1.640  -2.642   2.703  0.00  0.00    -0.097 S 
BRANCH  30  31
ATOM     31  C   UNL     1       0.763  -2.041   1.233  0.00  0.00    +0.076 C 
BRANCH  31  32
ATOM     32  C   UNL     1       0.742  -0.511   1.242  0.00  0.00    +0.011 C 
BRANCH  32  34
ATOM     33  C   UNL     1      -0.019   1.526   0.010  0.00  0.00    +0.004 C 
ATOM     34  C   UNL     1       0.002  -0.004   0.002  0.00  0.00    -0.003 C 
ENDBRANCH  32  34
ENDBRANCH  31  32
ENDBRANCH  30  31
ENDBRANCH  21  30
ENDBRANCH  20  27
ENDBRANCH  19  20
ENDBRANCH   1  19
TORSDOF 9
