REMARK  Name = ZINC02223296
REMARK  9 active torsions:
REMARK  status: ('A' for Active; 'I' for Inactive)
REMARK    1  A    between atoms: C_1  and  C_2
REMARK    2  A    between atoms: N_4  and  C_5
REMARK    3  A    between atoms: C_8  and  N_11
REMARK    4  A    between atoms: C_12  and  C_14
REMARK    5  A    between atoms: C_14  and  S_15
REMARK    6  A    between atoms: S_15  and  C_16
REMARK    7  A    between atoms: C_28  and  C_30
REMARK    8  A    between atoms: C_28  and  C_31
REMARK    9  A    between atoms: N_34  and  C_35
REMARK                            x       y       z     vdW  Elec       q    Type
REMARK                         _______ _______ _______ _____ _____    ______ ____
ROOT
ATOM      1  C   UNL     1       0.077   0.993  -2.789  0.00  0.00    +0.198 A 
ATOM      2  N   UNL     1       1.148   0.245  -2.687  0.00  0.00    -0.120 NA
ATOM      3  N   UNL     1       1.582  -0.071  -3.980  0.00  0.00    -0.109 NA
ATOM      4  C   UNL     1       0.768   0.501  -4.835  0.00  0.00    +0.240 A 
ATOM      5  N   UNL     1      -0.188   1.177  -4.121  0.00  0.00    -0.249 N 
ATOM      6  C   UNL     1      -1.178   1.873  -4.777  0.00  0.00    +0.102 A 
ATOM      7  C   UNL     1      -1.250   1.920  -6.167  0.00  0.00    +0.074 A 
ATOM      8  C   UNL     1      -2.358   2.697  -6.717  0.00  0.00    -0.018 A 
ATOM      9  C   UNL     1      -3.179   3.279  -5.816  0.00  0.00    +0.021 A 
ATOM     10  S   UNL     1      -2.518   2.819  -4.242  0.00  0.00    -0.072 S 
ATOM     11  C   UNL     1      -4.377   4.122  -6.128  0.00  0.00    +0.203 C 
ATOM     12  O   UNL     1      -4.319   4.469  -7.521  0.00  0.00    -0.368 OA
ATOM     13  C   UNL     1      -4.066   3.354  -8.379  0.00  0.00    +0.068 C 
ATOM     14  C   UNL     1      -2.621   2.873  -8.208  0.00  0.00    +0.071 C 
ATOM     15  C   UNL     1      -4.293   3.771  -9.834  0.00  0.00    +0.041 C 
ATOM     16  C   UNL     1      -5.025   2.216  -8.024  0.00  0.00    +0.041 C 
ATOM     17  C   UNL     1      -0.199   1.178  -6.901  0.00  0.00    +0.264 A 
ATOM     18  O   UNL     1      -0.194   1.172  -8.119  0.00  0.00    -0.267 OA
ATOM     19  N   UNL     1       0.747   0.513  -6.219  0.00  0.00    -0.280 N 
ATOM     20  C   UNL     1       1.782  -0.216  -6.957  0.00  0.00    +0.155 C 
ENDROOT
BRANCH   1  21
ATOM     21  S   UNL     1      -0.856   1.654  -1.448  0.00  0.00    -0.076 S 
BRANCH  21  22
ATOM     22  C   UNL     1       0.008   1.049   0.027  0.00  0.00    +0.173 C 
BRANCH  22  24
ATOM     23  N   UNL     1      -0.229   1.222   2.483  0.00  0.00    -0.285 N 
ATOM     24  C   UNL     1      -0.696   1.549   1.262  0.00  0.00    +0.227 C 
ATOM     25  O   UNL     1      -1.684   2.245   1.157  0.00  0.00    -0.275 OA
ATOM     26  H   UNL     1       0.520   0.612   2.569  0.00  0.00    +0.155 HD
BRANCH  23  30
ATOM     27  C   UNL     1      -2.002   2.837   5.895  0.00  0.00    +0.033 A 
ATOM     28  C   UNL     1      -2.780   2.530   4.787  0.00  0.00    +0.025 A 
ATOM     29  C   UNL     1      -2.194   1.995   3.658  0.00  0.00    +0.025 A 
ATOM     30  C   UNL     1      -0.824   1.765   3.629  0.00  0.00    +0.034 A 
ATOM     31  C   UNL     1      -0.046   2.067   4.739  0.00  0.00    +0.025 A 
ATOM     32  C   UNL     1      -0.632   2.607   5.867  0.00  0.00    +0.025 A 
BRANCH  27  36
ATOM     33  C   UNL     1      -2.610   4.951   8.951  0.00  0.00    +0.109 C 
ATOM     34  C   UNL     1      -1.932   4.290   7.779  0.00  0.00    +0.214 C 
ATOM     35  O   UNL     1      -0.786   4.577   7.500  0.00  0.00    -0.276 OA
ATOM     36  N   UNL     1      -2.597   3.380   7.040  0.00  0.00    -0.286 N 
ATOM     37  H   UNL     1      -3.489   3.101   7.302  0.00  0.00    +0.155 HD
ENDBRANCH  27  36
ENDBRANCH  23  30
ENDBRANCH  22  24
ENDBRANCH  21  22
ENDBRANCH   1  21
TORSDOF 5
