REMARK  Name = ZINC51098996
REMARK  8 active torsions:
REMARK  status: ('A' for Active; 'I' for Inactive)
REMARK    1  A    between atoms: C_1  and  C_2
REMARK    2  A    between atoms: C_5  and  C_7
REMARK    3  A    between atoms: N_9  and  C_10
REMARK    4  A    between atoms: N_13  and  C_16
REMARK    5  A    between atoms: C_16  and  C_18
REMARK    6  A    between atoms: C_16  and  C_19
REMARK    7  A    between atoms: N_21  and  C_22
REMARK    8  A    between atoms: C_22  and  C_23
REMARK                            x       y       z     vdW  Elec       q    Type
REMARK                         _______ _______ _______ _____ _____    ______ ____
ROOT
ATOM      1  C   UNL     1       2.228  -6.673   0.471  0.00  0.00    +0.070 C 
ATOM      2  C   UNL     1       2.243  -7.226  -0.957  0.00  0.00    +0.004 C 
ATOM      3  C   UNL     1       3.381  -8.241  -1.093  0.00  0.00    -0.076 C 
ATOM      4  N   UNL     1       4.662  -7.586  -0.807  0.00  0.00    +0.387 N 
ATOM      5  C   UNL     1       4.682  -7.116   0.584  0.00  0.00    -0.076 C 
ATOM      6  C   UNL     1       3.595  -6.058   0.785  0.00  0.00    +0.004 C 
ATOM      7  H   UNL     1       4.784  -6.800  -1.428  0.00  0.00    -0.081 HD
ENDROOT
BRANCH   1  10
ATOM      8  C   UNL     1      -0.081  -6.000   0.858  0.00  0.00    +0.251 C 
ATOM      9  O   UNL     1      -0.368  -7.173   1.006  0.00  0.00    -0.270 OA
ATOM     10  N   UNL     1       1.191  -5.645   0.588  0.00  0.00    -0.308 N 
ATOM     11  H   UNL     1       1.419  -4.710   0.470  0.00  0.00    +0.149 HD
BRANCH   8  16
ATOM     12  C   UNL     1      -3.177  -1.394   1.083  0.00  0.00    +0.051 C 
ATOM     13  C   UNL     1      -2.575  -2.776   1.079  0.00  0.00    -0.013 A 
ATOM     14  C   UNL     1      -3.203  -3.958   1.292  0.00  0.00    +0.011 A 
ATOM     15  C   UNL     1      -2.471  -5.121   1.245  0.00  0.00    +0.021 A 
ATOM     16  C   UNL     1      -1.119  -4.971   0.975  0.00  0.00    +0.074 A 
ATOM     17  S   UNL     1      -0.975  -3.203   0.800  0.00  0.00    -0.089 S 
ENDBRANCH   8  16
ENDBRANCH   1  10
BRANCH   4  18
ATOM     18  C   UNL     1       5.757  -8.543  -1.014  0.00  0.00    +0.016 C 
ATOM     19  C   UNL     1       7.095  -7.859  -0.726  0.00  0.00    -0.004 C 
BRANCH  18  20
ATOM     20  C   UNL     1       5.738  -9.026  -2.442  0.00  0.00    +0.199 C 
ATOM     21  O   UNL     1       5.301  -8.311  -3.318  0.00  0.00    -0.278 OA
ATOM     22  N   UNL     1       6.205 -10.254  -2.744  0.00  0.00    -0.316 N 
ATOM     23  H   UNL     1       6.554 -10.826  -2.043  0.00  0.00    +0.149 HD
BRANCH  22  24
ATOM     24  C   UNL     1       6.186 -10.724  -4.131  0.00  0.00    +0.107 C 
BRANCH  24  25
ATOM     25  C   UNL     1       6.769 -12.137  -4.199  0.00  0.00    +0.006 C 
ATOM     26  C   UNL     1       8.246 -12.100  -3.805  0.00  0.00    +0.005 C 
ATOM     27  C   UNL     1       8.828 -13.513  -3.873  0.00  0.00    +0.000 C 
ATOM     28  C   UNL     1       8.695 -14.052  -5.298  0.00  0.00    +0.000 C 
ATOM     29  C   UNL     1       7.217 -14.089  -5.693  0.00  0.00    +0.000 C 
ATOM     30  C   UNL     1       6.635 -12.676  -5.625  0.00  0.00    +0.005 C 
ENDBRANCH  24  25
ENDBRANCH  22  24
ENDBRANCH  18  20
ENDBRANCH   4  18
TORSDOF 6
