REMARK  Name = ZINC39632110
REMARK  13 active torsions:
REMARK  status: ('A' for Active; 'I' for Inactive)
REMARK    1  A    between atoms: C_1  and  C_2
REMARK    2  A    between atoms: C_7  and  C_8
REMARK    3  A    between atoms: C_8  and  C_9
REMARK    4  A    between atoms: C_13  and  C_22
REMARK    5  A    between atoms: N_24  and  C_25
REMARK    6  A    between atoms: C_25  and  C_27
REMARK    7  A    between atoms: C_25  and  C_28
REMARK    8  A    between atoms: C_28  and  C_29
REMARK    9  A    between atoms: C_29  and  C_30
REMARK   10  A    between atoms: C_30  and  C_31
REMARK   11  A    between atoms: C_31  and  C_32
REMARK   12  A    between atoms: C_31  and  C_33
REMARK   13  A    between atoms: C_31  and  O_34
REMARK                            x       y       z     vdW  Elec       q    Type
REMARK                         _______ _______ _______ _____ _____    ______ ____
ROOT
ATOM      1  C   UNL     1      -1.510   0.373   2.914  0.00  0.00    +0.220 C 
ATOM      2  O   UNL     1      -2.441   0.084   2.193  0.00  0.00    -0.275 OA
ATOM      3  N   UNL     1      -1.725   1.068   4.049  0.00  0.00    -0.300 N 
ATOM      4  C   UNL     1      -0.723   1.515   5.044  0.00  0.00    +0.121 C 
ATOM      5  C   UNL     1      -1.190   2.928   5.460  0.00  0.00    +0.100 C 
ATOM      6  C   UNL     1      -2.697   2.948   5.157  0.00  0.00    -0.004 C 
ATOM      7  C   UNL     1      -3.018   1.562   4.580  0.00  0.00    +0.115 C 
ATOM      8  C   UNL     1      -3.014   4.028   4.127  0.00  0.00    -0.010 C 
ATOM      9  C   UNL     1      -4.526   4.067   3.885  0.00  0.00    -0.082 C 
ATOM     10  N   UNL     1      -5.219   4.349   5.148  0.00  0.00    +0.379 N 
ATOM     11  C   UNL     1      -4.983   3.258   6.102  0.00  0.00    -0.082 C 
ATOM     12  C   UNL     1      -3.491   3.185   6.438  0.00  0.00    -0.010 C 
ATOM     13  H   UNL     1      -4.872   5.213   5.535  0.00  0.00    -0.086 HD
ATOM     14  H   UNL     1      -6.209   4.434   4.975  0.00  0.00    -0.086 HD
ENDROOT
BRANCH   5  15
ATOM     15  C   UNL     1      -0.945   3.149   6.931  0.00  0.00    +0.218 C 
ATOM     16  O   UNL     1      -1.008   2.216   7.703  0.00  0.00    -0.275 OA
ATOM     17  N   UNL     1      -0.656   4.384   7.387  0.00  0.00    -0.312 N 
ATOM     18  H   UNL     1      -0.605   5.130   6.770  0.00  0.00    +0.149 HD
BRANCH  17  19
ATOM     19  C   UNL     1      -0.418   4.599   8.817  0.00  0.00    +0.070 C 
ATOM     20  C   UNL     1       1.046   4.296   9.142  0.00  0.00    +0.028 C 
BRANCH  19  21
ATOM     21  C   UNL     1      -0.728   6.055   9.172  0.00  0.00    +0.022 C 
BRANCH  21  22
ATOM     22  C   UNL     1      -2.220   6.324   8.965  0.00  0.00    +0.005 C 
BRANCH  22  23
ATOM     23  C   UNL     1      -2.530   7.779   9.320  0.00  0.00    +0.034 C 
BRANCH  23  24
ATOM     24  C   UNL     1      -4.022   8.048   9.113  0.00  0.00    +0.061 C 
ATOM     25  C   UNL     1      -4.310   9.532   9.348  0.00  0.00    +0.041 C 
ATOM     26  C   UNL     1      -4.414   7.672   7.683  0.00  0.00    +0.041 C 
BRANCH  24  27
ATOM     27  O   UNL     1      -4.780   7.264  10.036  0.00  0.00    -0.389 OA
ATOM     28  H   UNL     1      -4.583   7.449  10.965  0.00  0.00    +0.210 HD
ENDBRANCH  24  27
ENDBRANCH  23  24
ENDBRANCH  22  23
ENDBRANCH  21  22
ENDBRANCH  19  21
ENDBRANCH  17  19
ENDBRANCH   5  15
BRANCH   1  29
ATOM     29  C   UNL     1      -0.111  -0.044   2.540  0.00  0.00    +0.131 C 
BRANCH  29  36
ATOM     30  C   UNL     1      -0.055   1.390   0.033  0.00  0.00    +0.044 C 
ATOM     31  C   UNL     1      -0.117  -0.116   0.038  0.00  0.00    -0.047 A 
ATOM     32  C   UNL     1      -0.141  -0.810  -1.156  0.00  0.00    +0.003 A 
ATOM     33  C   UNL     1      -0.197  -2.191  -1.152  0.00  0.00    +0.000 A 
ATOM     34  C   UNL     1      -0.230  -2.878   0.048  0.00  0.00    +0.000 A 
ATOM     35  C   UNL     1      -0.204  -2.183   1.243  0.00  0.00    +0.004 A 
ATOM     36  C   UNL     1      -0.143  -0.802   1.238  0.00  0.00    -0.036 A 
ENDBRANCH  29  36
ENDBRANCH   1  29
TORSDOF 9
