REMARK  Name = ZINC39636016
REMARK  7 active torsions:
REMARK  status: ('A' for Active; 'I' for Inactive)
REMARK    1  A    between atoms: C_1  and  C_2
REMARK    2  A    between atoms: C_8  and  N_10
REMARK    3  A    between atoms: C_11  and  C_13
REMARK    4  A    between atoms: C_24  and  C_26
REMARK    5  A    between atoms: C_29  and  O_36
REMARK    6  A    between atoms: C_30  and  C_32
REMARK    7  A    between atoms: O_36  and  C_37
REMARK                            x       y       z     vdW  Elec       q    Type
REMARK                         _______ _______ _______ _____ _____    ______ ____
ROOT
ATOM      1  C   UNL     1       4.099   0.022   2.474  0.00  0.00    +0.100 C 
ATOM      2  C   UNL     1       5.187  -0.714   1.661  0.00  0.00    +0.121 C 
ATOM      3  N   UNL     1       6.421  -0.569   2.469  0.00  0.00    -0.296 N 
ATOM      4  C   UNL     1       5.965  -0.729   3.871  0.00  0.00    +0.115 C 
ATOM      5  C   UNL     1       4.612   0.009   3.924  0.00  0.00    -0.004 C 
ATOM      6  C   UNL     1       3.636  -0.743   4.824  0.00  0.00    -0.010 C 
ATOM      7  C   UNL     1       4.139  -0.692   6.269  0.00  0.00    -0.082 C 
ATOM      8  N   UNL     1       4.255   0.707   6.700  0.00  0.00    +0.379 N 
ATOM      9  C   UNL     1       5.264   1.398   5.889  0.00  0.00    -0.082 C 
ATOM     10  C   UNL     1       4.809   1.436   4.427  0.00  0.00    -0.010 C 
ATOM     11  C   UNL     1       7.675  -0.341   2.029  0.00  0.00    +0.247 C 
ATOM     12  O   UNL     1       7.875  -0.122   0.851  0.00  0.00    -0.270 OA
ATOM     13  H   UNL     1       3.364   1.167   6.589  0.00  0.00    -0.086 HD
ATOM     14  H   UNL     1       4.527   0.737   7.671  0.00  0.00    -0.086 HD
ENDROOT
BRANCH  11  15
ATOM     15  C   UNL     1       8.804  -0.359   2.979  0.00  0.00    +0.038 A 
ATOM     16  C   UNL     1       8.684  -1.032   4.198  0.00  0.00    +0.016 A 
ATOM     17  C   UNL     1       9.741  -1.047   5.081  0.00  0.00    +0.047 A 
ATOM     18  C   UNL     1      10.925  -0.393   4.761  0.00  0.00    +0.132 A 
ATOM     19  C   UNL     1      11.049   0.277   3.550  0.00  0.00    +0.097 A 
ATOM     20  C   UNL     1       9.998   0.292   2.659  0.00  0.00    +0.029 A 
BRANCH  19  21
ATOM     21  C   UNL     1      12.335   0.984   3.209  0.00  0.00    +0.421 C 
ATOM     22  F   UNL     1      12.219   1.580   1.949  0.00  0.00    -0.166 F 
ATOM     23  F   UNL     1      12.595   1.968   4.168  0.00  0.00    -0.166 F 
ATOM     24  F   UNL     1      13.385   0.060   3.193  0.00  0.00    -0.166 F 
ENDBRANCH  19  21
BRANCH  18  25
ATOM     25  O   UNL     1      11.964  -0.410   5.635  0.00  0.00    -0.495 OA
ATOM     26  C   UNL     1      11.770  -1.117   6.861  0.00  0.00    +0.277 C 
ENDBRANCH  18  25
ENDBRANCH  11  15
BRANCH   1  28
ATOM     27  N   UNL     1       1.626  -0.029   2.471  0.00  0.00    -0.312 N 
ATOM     28  C   UNL     1       2.785  -0.710   2.376  0.00  0.00    +0.218 C 
ATOM     29  O   UNL     1       2.772  -1.911   2.212  0.00  0.00    -0.275 OA
ATOM     30  H   UNL     1       1.637   0.931   2.603  0.00  0.00    +0.149 HD
BRANCH  27  37
ATOM     31  C   UNL     1      -0.350   0.219   4.574  0.00  0.00    +0.009 C 
ATOM     32  C   UNL     1      -0.735   0.057   3.103  0.00  0.00    +0.006 C 
ATOM     33  C   UNL     1      -2.069  -0.686   3.003  0.00  0.00    +0.005 C 
ATOM     34  C   UNL     1      -2.454  -0.848   1.531  0.00  0.00    +0.000 C 
ATOM     35  C   UNL     1      -1.370  -1.646   0.805  0.00  0.00    +0.002 C 
ATOM     36  C   UNL     1      -0.036  -0.903   0.904  0.00  0.00    +0.022 C 
ATOM     37  C   UNL     1       0.349  -0.741   2.376  0.00  0.00    +0.076 C 
ENDBRANCH  27  37
ENDBRANCH   1  28
TORSDOF 5
