REMARK  Name = ZINC15947039
REMARK  6 active torsions:
REMARK  status: ('A' for Active; 'I' for Inactive)
REMARK    1  A    between atoms: C_1  and  C_2
REMARK    2  A    between atoms: C_2  and  C_3
REMARK    3  A    between atoms: C_2  and  N_4
REMARK    4  A    between atoms: C_12  and  O_27
REMARK    5  A    between atoms: C_14  and  C_17
REMARK    6  A    between atoms: C_21  and  N_23
REMARK                            x       y       z     vdW  Elec       q    Type
REMARK                         _______ _______ _______ _____ _____    ______ ____
ROOT
ATOM      1  N   UNL     1       0.821  -0.225   1.202  0.00  0.00    +0.384 N 
ATOM      2  C   UNL     1       1.175  -1.647   1.298  0.00  0.00    -0.073 C 
ATOM      3  C   UNL     1       2.272  -1.849   2.348  0.00  0.00    +0.018 C 
ATOM      4  C   UNL     1       1.816  -1.179   3.637  0.00  0.00    -0.027 A 
ATOM      5  C   UNL     1       0.810  -0.272   3.609  0.00  0.00    -0.021 A 
ATOM      6  S   UNL     1       0.616   0.235   5.294  0.00  0.00    -0.080 S 
ATOM      7  C   UNL     1       1.798  -0.692   5.997  0.00  0.00    +0.080 A 
ATOM      8  C   UNL     1       2.372  -1.426   4.951  0.00  0.00    +0.067 A 
ATOM      9  C   UNL     1       3.467  -2.368   5.298  0.00  0.00    +0.220 C 
ATOM     10  N   UNL     1       3.993  -2.276   6.489  0.00  0.00    -0.223 NA
ATOM     11  C   UNL     1       3.624  -1.272   7.479  0.00  0.00    +0.224 C 
ATOM     12  N   UNL     1       2.235  -0.814   7.297  0.00  0.00    -0.313 N 
ATOM     13  C   UNL     1       0.057   0.177   2.398  0.00  0.00    -0.035 C 
ATOM     14  H   UNL     1       1.660  -0.609   8.051  0.00  0.00    +0.149 HD
ATOM     15  H   UNL     1       1.663   0.327   1.140  0.00  0.00    -0.081 HD
ENDROOT
BRANCH  11  16
ATOM     16  C   UNL     1       4.551  -0.090   7.350  0.00  0.00    -0.003 A 
ATOM     17  C   UNL     1       4.105   1.177   7.678  0.00  0.00    +0.008 A 
ATOM     18  C   UNL     1       4.955   2.260   7.560  0.00  0.00    +0.018 A 
ATOM     19  C   UNL     1       6.252   2.077   7.114  0.00  0.00    +0.048 A 
ATOM     20  C   UNL     1       6.697   0.809   6.786  0.00  0.00    +0.140 A 
ATOM     21  C   UNL     1       5.848  -0.275   6.909  0.00  0.00    +0.041 A 
ATOM     22 BR   UNL     1       7.415   3.559   6.952  0.00  0.00    -0.048 Br
BRANCH  20  23
ATOM     23  N   UNL     1       8.084   0.613   6.308  0.00  0.00    +0.058 N 
ATOM     24  O   UNL     1       8.473  -0.495   6.021  0.00  0.00    -0.126 OA
ATOM     25  O   UNL     1       8.827   1.560   6.204  0.00  0.00    -0.126 OA
ENDBRANCH  20  23
ENDBRANCH  11  16
BRANCH   1  27
ATOM     26  C   UNL     1      -0.450   1.457  -0.045  0.00  0.00    -0.014 C 
ATOM     27  C   UNL     1       0.002  -0.004   0.002  0.00  0.00    -0.074 C 
ATOM     28  C   UNL     1       0.829  -0.323  -1.245  0.00  0.00    -0.014 C 
ENDBRANCH   1  27
BRANCH   9  29
ATOM     29  O   UNL     1       3.904  -3.291   4.409  0.00  0.00    -0.492 OA
ATOM     30  H   UNL     1       4.619  -3.850   4.742  0.00  0.00    +0.294 HD
ENDBRANCH   9  29
TORSDOF 4
