REMARK  Name = ZINC36205846
REMARK  14 active torsions:
REMARK  status: ('A' for Active; 'I' for Inactive)
REMARK    1  A    between atoms: C_1  and  C_2
REMARK    2  A    between atoms: C_7  and  C_8
REMARK    3  A    between atoms: C_17  and  C_19
REMARK    4  A    between atoms: C_19  and  N_20
REMARK    5  A    between atoms: N_20  and  C_21
REMARK    6  A    between atoms: N_20  and  C_26
REMARK    7  A    between atoms: C_21  and  C_22
REMARK    8  A    between atoms: C_22  and  C_23
REMARK    9  A    between atoms: C_23  and  C_24
REMARK   10  A    between atoms: C_23  and  C_25
REMARK   11  A    between atoms: C_26  and  C_27
REMARK   12  A    between atoms: C_27  and  C_28
REMARK   13  A    between atoms: C_27  and  C_29
REMARK   14  A    between atoms: C_27  and  O_30
REMARK                            x       y       z     vdW  Elec       q    Type
REMARK                         _______ _______ _______ _____ _____    ______ ____
ROOT
ATOM      1  C   UNL     1      -0.995  -0.057   0.951  0.00  0.00    +0.004 A 
ATOM      2  C   UNL     1      -0.175  -0.818   1.715  0.00  0.00    +0.056 A 
ATOM      3  S   UNL     1      -0.485  -0.228   3.368  0.00  0.00    -0.076 S 
ATOM      4  C   UNL     1      -1.696   1.015   2.999  0.00  0.00    +0.116 A 
ATOM      5  C   UNL     1      -1.828   0.947   1.602  0.00  0.00    +0.080 A 
ATOM      6  C   UNL     1      -2.760   1.866   1.022  0.00  0.00    +0.260 A 
ATOM      7  O   UNL     1      -2.946   1.880  -0.182  0.00  0.00    -0.267 OA
ATOM      8  N   UNL     1      -3.427   2.713   1.827  0.00  0.00    -0.312 N 
ATOM      9  H   UNL     1      -4.060   3.338   1.439  0.00  0.00    +0.170 HD
ATOM     10  C   UNL     1      -3.232   2.711   3.171  0.00  0.00    +0.094 A 
ATOM     11  N   UNL     1      -2.395   1.879   3.730  0.00  0.00    -0.229 NA
ENDROOT
BRANCH   1  18
ATOM     12  C   UNL     1      -0.097   2.079  -0.782  0.00  0.00    +0.044 C 
ATOM     13  C   UNL     1      -0.609   0.787  -1.363  0.00  0.00    -0.043 A 
ATOM     14  C   UNL     1      -0.648   0.612  -2.732  0.00  0.00    +0.004 A 
ATOM     15  C   UNL     1      -1.117  -0.574  -3.267  0.00  0.00    +0.000 A 
ATOM     16  C   UNL     1      -1.551  -1.591  -2.435  0.00  0.00    +0.001 A 
ATOM     17  C   UNL     1      -1.518  -1.427  -1.065  0.00  0.00    +0.009 A 
ATOM     18  C   UNL     1      -1.039  -0.236  -0.520  0.00  0.00    -0.014 A 
ENDBRANCH   1  18
BRANCH  10  19
ATOM     19  C   UNL     1      -4.002   3.679   4.032  0.00  0.00    -0.003 C 
BRANCH  19  20
ATOM     20  N   UNL     1      -3.513   3.599   5.415  0.00  0.00    +0.386 N 
ATOM     21  H   UNL     1      -3.119   2.684   5.580  0.00  0.00    -0.081 HD
BRANCH  20  22
ATOM     22  C   UNL     1      -4.628   3.828   6.343  0.00  0.00    -0.078 C 
BRANCH  22  23
ATOM     23  C   UNL     1      -4.156   3.585   7.778  0.00  0.00    -0.016 C 
BRANCH  23  24
ATOM     24  C   UNL     1      -5.347   3.693   8.732  0.00  0.00    -0.019 C 
ATOM     25  C   UNL     1      -4.900   3.329  10.149  0.00  0.00    +0.007 C 
ATOM     26  C   UNL     1      -5.883   5.126   8.719  0.00  0.00    +0.007 C 
ENDBRANCH  23  24
ENDBRANCH  22  23
ENDBRANCH  20  22
BRANCH  20  27
ATOM     27  C   UNL     1      -2.480   4.622   5.629  0.00  0.00    -0.044 C 
BRANCH  27  28
ATOM     28  C   UNL     1      -1.106   4.036   5.301  0.00  0.00    +0.046 C 
ATOM     29  C   UNL     1      -0.029   5.097   5.535  0.00  0.00    +0.039 C 
ATOM     30  C   UNL     1      -0.837   2.829   6.202  0.00  0.00    +0.039 C 
BRANCH  28  31
ATOM     31  O   UNL     1      -1.078   3.623   3.933  0.00  0.00    -0.391 OA
ATOM     32  H   UNL     1      -0.259   3.181   3.671  0.00  0.00    +0.210 HD
ENDBRANCH  28  31
ENDBRANCH  27  28
ENDBRANCH  20  27
ENDBRANCH  19  20
ENDBRANCH  10  19
TORSDOF 9
