REMARK  Name = ZINC51991729
REMARK  3 active torsions:
REMARK  status: ('A' for Active; 'I' for Inactive)
REMARK    1  A    between atoms: C_8  and  C_13
REMARK    2  A    between atoms: N_15  and  C_16
REMARK    3  A    between atoms: C_22  and  O_24
REMARK                            x       y       z     vdW  Elec       q    Type
REMARK                         _______ _______ _______ _____ _____    ______ ____
ROOT
ATOM      1  C   UNL     1      -0.017   1.374   0.010  0.00  0.00    +0.001 A 
ATOM      2  C   UNL     1       1.167   2.099   0.002  0.00  0.00    +0.001 A 
ATOM      3  C   UNL     1       2.387   1.456  -0.013  0.00  0.00    +0.014 A 
ATOM      4  C   UNL     1       2.431   0.064  -0.021  0.00  0.00    +0.046 A 
ATOM      5  C   UNL     1       1.226  -0.676  -0.013  0.00  0.00    -0.011 A 
ATOM      6  C   UNL     1       0.002  -0.004   0.002  0.00  0.00    +0.009 A 
ATOM      7  C   UNL     1       1.303  -2.137  -0.022  0.00  0.00    +0.039 A 
ATOM      8  C   UNL     1       2.518  -2.739  -0.038  0.00  0.00    +0.105 A 
ATOM      9  N   UNL     1       3.692  -2.018  -0.046  0.00  0.00    -0.318 N 
ATOM     10  H   UNL     1       4.536  -2.495  -0.057  0.00  0.00    +0.169 HD
ATOM     11  C   UNL     1       3.704  -0.670  -0.038  0.00  0.00    +0.257 A 
ATOM     12  O   UNL     1       4.761  -0.066  -0.046  0.00  0.00    -0.267 OA
ENDROOT
BRANCH   8  13
ATOM     13  C   UNL     1       2.585  -4.212  -0.047  0.00  0.00    +0.261 C 
ATOM     14  O   UNL     1       1.560  -4.867  -0.040  0.00  0.00    -0.269 OA
ATOM     15  N   UNL     1       3.781  -4.832  -0.062  0.00  0.00    -0.305 N 
ATOM     16  H   UNL     1       4.598  -4.310  -0.068  0.00  0.00    +0.149 HD
BRANCH  15  17
ATOM     17  C   UNL     1       3.847  -6.296  -0.071  0.00  0.00    +0.102 C 
ATOM     18  C   UNL     1       3.760  -6.819   1.364  0.00  0.00    +0.025 C 
ATOM     19  C   UNL     1       4.925  -6.260   2.183  0.00  0.00    +0.002 C 
ATOM     20  C   UNL     1       6.248  -6.707   1.557  0.00  0.00    +0.003 C 
ATOM     21  C   UNL     1       6.336  -6.184   0.122  0.00  0.00    +0.033 C 
ATOM     22  C   UNL     1       5.170  -6.743  -0.697  0.00  0.00    +0.135 C 
BRANCH  22  23
ATOM     23  O   UNL     1       5.252  -6.255  -2.037  0.00  0.00    -0.390 OA
ATOM     24  H   UNL     1       6.067  -6.501  -2.496  0.00  0.00    +0.210 HD
ENDBRANCH  22  23
ENDBRANCH  15  17
ENDBRANCH   8  13
TORSDOF 3
