REMARK  Name = ZINC63985141
REMARK  4 active torsions:
REMARK  status: ('A' for Active; 'I' for Inactive)
REMARK    1  A    between atoms: C_10  and  N_11
REMARK    2  A    between atoms: C_12  and  O_36
REMARK    3  A    between atoms: C_15  and  O_35
REMARK    4  A    between atoms: C_16  and  C_20
REMARK                            x       y       z     vdW  Elec       q    Type
REMARK                         _______ _______ _______ _____ _____    ______ ____
ROOT
ATOM      1  N   UNL     1       4.976   0.161   0.142  0.00  0.00    -0.225 N 
ATOM      2  C   UNL     1       5.659   0.613   1.346  0.00  0.00    +0.338 C 
ATOM      3  N   UNL     1       6.560   1.722   1.081  0.00  0.00    -0.204 NA
ATOM      4  C   UNL     1       7.025   2.009  -0.073  0.00  0.00    +0.200 C 
ATOM      5  C   UNL     1       6.686   1.224  -1.306  0.00  0.00    +0.179 C 
ATOM      6  C   UNL     1       5.438   0.418  -1.089  0.00  0.00    +0.237 C 
ATOM      7  O   UNL     1       4.831  -0.006  -2.050  0.00  0.00    -0.274 OA
ENDROOT
BRANCH   5   8
ATOM      8  C   UNL     1       7.841   0.275  -1.635  0.00  0.00    +0.101 C 
ATOM      9  C   UNL     1       7.554  -0.449  -2.952  0.00  0.00    +0.124 C 
ATOM     10  C   UNL     1       8.657  -1.488  -3.116  0.00  0.00    -0.036 C 
ATOM     11  C   UNL     1       9.201  -1.275  -4.306  0.00  0.00    -0.001 A 
ATOM     12  C   UNL     1      10.240  -1.999  -5.055  0.00  0.00    +0.010 A 
ATOM     13  C   UNL     1      10.574  -1.484  -6.268  0.00  0.00    +0.001 A 
ATOM     14  C   UNL     1       9.985  -0.335  -6.805  0.00  0.00    +0.002 A 
ATOM     15  C   UNL     1       9.018   0.390  -6.189  0.00  0.00    +0.026 A 
ATOM     16  C   UNL     1       8.578  -0.056  -4.908  0.00  0.00    +0.043 A 
ATOM     17  N   UNL     1       7.649   0.436  -4.112  0.00  0.00    -0.376 N 
ATOM     18  C   UNL     1       9.014  -2.446  -2.005  0.00  0.00    +0.048 C 
ATOM     19  C   UNL     1       9.148  -1.593  -0.730  0.00  0.00    +0.085 C 
ATOM     20  N   UNL     1       7.971  -0.734  -0.571  0.00  0.00    -0.310 NA
ATOM     21  H   UNL     1       7.959  -0.301   0.341  0.00  0.00    +0.122 HD
ATOM     22  H   UNL     1       7.123   1.238  -4.258  0.00  0.00    +0.160 HD
ENDBRANCH   5   8
BRANCH   1  32
ATOM     23  C   UNL     1       0.073   1.329   0.404  0.00  0.00    +0.001 A 
ATOM     24  C   UNL     1       1.238   2.082   0.271  0.00  0.00    +0.001 A 
ATOM     25  C   UNL     1       2.459   1.481   0.227  0.00  0.00    +0.010 A 
ATOM     26  C   UNL     1       2.549   0.083   0.317  0.00  0.00    +0.004 A 
ATOM     27  C   UNL     1       1.365  -0.683   0.453  0.00  0.00    -0.016 A 
ATOM     28  C   UNL     1       0.122  -0.028   0.495  0.00  0.00    +0.008 A 
ATOM     29  C   UNL     1       1.454  -2.083   0.545  0.00  0.00    +0.008 A 
ATOM     30  C   UNL     1       2.672  -2.691   0.502  0.00  0.00    +0.002 A 
ATOM     31  C   UNL     1       3.841  -1.949   0.369  0.00  0.00    +0.024 A 
ATOM     32  C   UNL     1       3.797  -0.574   0.276  0.00  0.00    +0.048 A 
ENDBRANCH   1  32
BRANCH   4  33
ATOM     33  O   UNL     1       7.857   3.064  -0.188  0.00  0.00    -0.495 OA
ATOM     34  H   UNL     1       8.030   3.522   0.646  0.00  0.00    +0.293 HD
ENDBRANCH   4  33
BRANCH   2  35
ATOM     35  O   UNL     1       6.411  -0.474   1.889  0.00  0.00    -0.356 OA
ATOM     36  H   UNL     1       6.896  -0.253   2.695  0.00  0.00    +0.214 HD
ENDBRANCH   2  35
TORSDOF 4
