REMARK  Name = ZINC64198859
REMARK  10 active torsions:
REMARK  status: ('A' for Active; 'I' for Inactive)
REMARK    1  A    between atoms: CD1_1  and  CG1_2
REMARK    2  A    between atoms: CG1_2  and  CB_3
REMARK    3  A    between atoms: CB_3  and  CG2_5
REMARK    4  A    between atoms: CB_3  and  CA_6
REMARK    5  A    between atoms: CA_6  and  C_8
REMARK    6  A    between atoms: CA_6  and  N_17
REMARK    7  A    between atoms: N_10  and  CA_11
REMARK    8  A    between atoms: CA_11  and  CB_13
REMARK    9  A    between atoms: CA_11  and  C_14
REMARK   10  A    between atoms: C_18  and  C_20
REMARK                            x       y       z     vdW  Elec       q    Type
REMARK                         _______ _______ _______ _____ _____    ______ ____
ROOT
ATOM      1  C   UNK A   0      -2.554  -3.471  -2.191  0.00  0.00    +0.167 C 
ATOM      2  C   UNK A   0      -2.458  -4.864  -1.538  0.00  0.00    +0.065 C 
ATOM      3  C   UNK A   0      -1.916  -5.809  -2.581  0.00  0.00    -0.034 C 
ATOM      4  C   UNK A   0      -0.886  -6.647  -2.543  0.00  0.00    -0.001 A 
ATOM      5  C   UNK A   0       0.029  -7.023  -1.453  0.00  0.00    +0.010 A 
ATOM      6  C   UNK A   0       1.005  -7.915  -1.770  0.00  0.00    +0.001 A 
ATOM      7  C   UNK A   0       1.160  -8.464  -3.047  0.00  0.00    +0.002 A 
ATOM      8  C   UNK A   0       0.360  -8.182  -4.105  0.00  0.00    +0.026 A 
ATOM      9  C   UNK A   0      -0.708  -7.262  -3.893  0.00  0.00    +0.043 A 
ATOM     10  N   UNK A   0      -1.623  -6.833  -4.711  0.00  0.00    -0.375 N 
ATOM     11  C   UNK A   0      -2.521  -5.942  -3.974  0.00  0.00    +0.131 C 
ATOM     12  C   UNK A   0      -2.538  -4.532  -4.576  0.00  0.00    +0.134 C 
ATOM     13  N   UNK A   0      -3.099  -3.625  -3.546  0.00  0.00    -0.276 N 
ATOM     14  C   UNK A   0      -4.174  -2.997  -4.055  0.00  0.00    +0.248 C 
ATOM     15  O   UNK A   0      -4.811  -2.134  -3.485  0.00  0.00    -0.270 OA
ATOM     16  C   UNK A   0      -4.466  -3.505  -5.397  0.00  0.00    +0.042 A 
ATOM     17  C   UNK A   0      -3.464  -4.464  -5.747  0.00  0.00    -0.013 A 
ATOM     18  C   UNK A   0      -3.464  -5.124  -6.956  0.00  0.00    +0.006 A 
ATOM     19  C   UNK A   0      -4.492  -4.816  -7.843  0.00  0.00    +0.000 A 
ATOM     20  C   UNK A   0      -5.468  -3.891  -7.532  0.00  0.00    +0.001 A 
ATOM     21  C   UNK A   0      -5.498  -3.194  -6.287  0.00  0.00    +0.013 A 
ATOM     22  H   UNK A   0      -1.698  -7.064  -5.650  0.00  0.00    +0.160 HD
ENDROOT
BRANCH   1  24
ATOM     23  N   ALA A   1      -0.484  -2.624  -1.134  0.00  0.00    -0.302 N 
ATOM     24  C   UNK A   0      -1.182  -2.851  -2.264  0.00  0.00    +0.235 C 
ATOM     25  O   UNK A   0      -0.706  -2.557  -3.340  0.00  0.00    -0.274 OA
ATOM     26  H   ALA A   1      -0.865  -2.859  -0.273  0.00  0.00    +0.150 HD
BRANCH  23  27
ATOM     27  CA  ALA A   1       0.849  -2.021  -1.205  0.00  0.00    +0.162 C 
BRANCH  27  28
ATOM     28  C   ALA A   1       1.645  -2.416   0.013  0.00  0.00    +0.234 C 
ATOM     29  O   ALA A   1       1.147  -3.130   0.857  0.00  0.00    -0.274 OA
ATOM     30  N   ALA A   1       2.909  -1.975   0.164  0.00  0.00    -0.301 N 
ATOM     31  H   ALA A   1       3.308  -1.403  -0.511  0.00  0.00    +0.150 HD
BRANCH  30  32
ATOM     32  CA  ALA A   1       3.682  -2.358   1.347  0.00  0.00    +0.183 C 
ATOM     33  CB  ALA A   1       3.366  -1.398   2.496  0.00  0.00    +0.040 C 
BRANCH  32  34
ATOM     34  C   ALA A   1       5.154  -2.293   1.029  0.00  0.00    +0.376 C 
ATOM     35  O   ALA A   1       5.530  -1.788  -0.015  0.00  0.00    -0.244 OA
ATOM     36  OXT ALA A   1       5.968  -2.747   1.815  0.00  0.00    -0.244 OA
ENDBRANCH  32  34
ENDBRANCH  30  32
ENDBRANCH  27  28
BRANCH  27  37
ATOM     37  CB  ALA A   1       0.718  -0.497  -1.257  0.00  0.00    +0.015 C 
ATOM     38  CG2 ALA A   1      -0.089  -0.097  -2.493  0.00  0.00    +0.010 C 
BRANCH  37  40
ATOM     39  CD1 ALA A   1      -0.019   1.526   0.010  0.00  0.00    +0.004 C 
ATOM     40  CG1 ALA A   1       0.002  -0.004   0.002  0.00  0.00    +0.002 C 
ENDBRANCH  37  40
ENDBRANCH  27  37
ENDBRANCH  23  27
ENDBRANCH   1  24
TORSDOF 7
