REMARK  Name = ZINC38905480
REMARK  11 active torsions:
REMARK  status: ('A' for Active; 'I' for Inactive)
REMARK    1  A    between atoms: C_1  and  C_2
REMARK    2  A    between atoms: C_2  and  C_4
REMARK    3  A    between atoms: C_2  and  N_14
REMARK    4  A    between atoms: C_7  and  C_10
REMARK    5  A    between atoms: C_10  and  C_11
REMARK    6  A    between atoms: C_10  and  C_12
REMARK    7  A    between atoms: C_10  and  C_13
REMARK    8  A    between atoms: C_15  and  C_17
REMARK    9  A    between atoms: N_22  and  C_24
REMARK   10  A    between atoms: C_24  and  C_25
REMARK   11  A    between atoms: C_27  and  C_30
REMARK                            x       y       z     vdW  Elec       q    Type
REMARK                         _______ _______ _______ _____ _____    ______ ____
ROOT
ATOM      1  C   UNL     1       0.780  -1.133   3.576  0.00  0.00    +0.058 C 
ATOM      2  C   UNL     1       1.346  -2.528   3.299  0.00  0.00    +0.009 C 
ATOM      3  C   UNL     1       2.016  -3.058   4.570  0.00  0.00    -0.018 C 
ATOM      4  C   UNL     1       0.999  -3.062   5.713  0.00  0.00    -0.078 C 
ATOM      5  N   UNL     1       0.516  -1.696   5.947  0.00  0.00    +0.386 N 
ATOM      6  C   UNL     1      -0.191  -1.206   4.757  0.00  0.00    -0.065 C 
ATOM      7  H   UNL     1       1.300  -1.091   6.142  0.00  0.00    -0.081 HD
ENDROOT
BRANCH   1   9
ATOM      8  N   UNL     1       0.711  -0.489   1.189  0.00  0.00    -0.309 N 
ATOM      9  C   UNL     1       0.051  -0.633   2.355  0.00  0.00    +0.215 C 
ATOM     10  O   UNL     1      -1.129  -0.361   2.423  0.00  0.00    -0.276 OA
ATOM     11  H   UNL     1       1.654  -0.707   1.135  0.00  0.00    +0.149 HD
BRANCH   8  13
ATOM     12  C   UNL     1      -0.019   1.526   0.010  0.00  0.00    +0.033 C 
ATOM     13  C   UNL     1       0.002  -0.004   0.002  0.00  0.00    +0.100 C 
BRANCH  13  14
ATOM     14  C   UNL     1       0.707  -0.490  -1.238  0.00  0.00    -0.027 A 
ATOM     15  C   UNL     1       2.089  -0.511  -1.284  0.00  0.00    +0.006 A 
ATOM     16  C   UNL     1       2.736  -0.957  -2.421  0.00  0.00    +0.004 A 
ATOM     17  C   UNL     1       2.002  -1.382  -3.512  0.00  0.00    -0.042 A 
ATOM     18  C   UNL     1       0.620  -1.362  -3.466  0.00  0.00    +0.004 A 
ATOM     19  C   UNL     1      -0.027  -0.920  -2.327  0.00  0.00    +0.006 A 
BRANCH  17  20
ATOM     20  C   UNL     1       2.707  -1.867  -4.753  0.00  0.00    -0.013 C 
ATOM     21  C   UNL     1       3.582  -3.073  -4.403  0.00  0.00    +0.015 C 
ATOM     22  C   UNL     1       1.671  -2.276  -5.802  0.00  0.00    +0.015 C 
ATOM     23  C   UNL     1       3.584  -0.745  -5.312  0.00  0.00    +0.015 C 
ENDBRANCH  17  20
ENDBRANCH  13  14
ENDBRANCH   8  13
ENDBRANCH   1   9
BRANCH   5  24
ATOM     24  C   UNL     1      -0.401  -1.692   7.095  0.00  0.00    +0.022 C 
BRANCH  24  25
ATOM     25  C   UNL     1       0.356  -2.066   8.343  0.00  0.00    +0.211 A 
ATOM     26  N   UNL     1       0.954  -1.236   9.148  0.00  0.00    -0.193 NA
ATOM     27  C   UNL     1       1.530  -1.909  10.160  0.00  0.00    +0.202 A 
ATOM     28  N   UNL     1       1.295  -3.188   9.999  0.00  0.00    -0.056 NA
ATOM     29  O   UNL     1       0.522  -3.309   8.814  0.00  0.00    -0.340 OA
BRANCH  27  30
ATOM     30  C   UNL     1       2.301  -1.304  11.274  0.00  0.00    +0.023 A 
ATOM     31  C   UNL     1       2.476   0.077  11.335  0.00  0.00    +0.013 A 
ATOM     32  C   UNL     1       3.194   0.634  12.373  0.00  0.00    +0.016 A 
ATOM     33  C   UNL     1       3.742  -0.177  13.352  0.00  0.00    +0.018 A 
ATOM     34  C   UNL     1       3.572  -1.549  13.296  0.00  0.00    +0.016 A 
ATOM     35  C   UNL     1       2.850  -2.116  12.266  0.00  0.00    +0.013 A 
ATOM     36 BR   UNL     1       4.726   0.594  14.772  0.00  0.00    -0.050 Br
ENDBRANCH  27  30
ENDBRANCH  24  25
ENDBRANCH   5  24
TORSDOF 7
