REMARK  Name = ZINC36989691
REMARK  5 active torsions:
REMARK  status: ('A' for Active; 'I' for Inactive)
REMARK    1  A    between atoms: C_1  and  C_2
REMARK    2  A    between atoms: C_8  and  N_10
REMARK    3  A    between atoms: N_10  and  C_11
REMARK    4  A    between atoms: C_16  and  O_17
REMARK    5  A    between atoms: O_17  and  C_18
REMARK                            x       y       z     vdW  Elec       q    Type
REMARK                         _______ _______ _______ _____ _____    ______ ____
ROOT
ATOM      1  C   UNL     1       2.821   0.133   2.433  0.00  0.00    +0.072 A 
ATOM      2  C   UNL     1       2.221  -0.217   3.634  0.00  0.00    +0.046 A 
ATOM      3  C   UNL     1       2.920  -0.082   4.820  0.00  0.00    +0.044 A 
ATOM      4  C   UNL     1       4.216   0.402   4.812  0.00  0.00    +0.039 A 
ATOM      5  C   UNL     1       4.820   0.753   3.618  0.00  0.00    +0.063 A 
ATOM      6  C   UNL     1       4.128   0.615   2.425  0.00  0.00    +0.162 A 
ATOM      7 BR   UNL     1       6.591   1.413   3.612  0.00  0.00    -0.046 Br
ATOM      8 CL   UNL     1       2.168  -0.519   6.323  0.00  0.00    -0.083 Cl
ENDROOT
BRANCH   1   9
ATOM      9  N   UNL     1       2.116  -0.004   1.231  0.00  0.00    -0.338 N 
ATOM     10  H   UNL     1       2.538   0.237   0.392  0.00  0.00    +0.146 HD
BRANCH   9  17
ATOM     11  C   UNL     1      -0.019   1.526   0.010  0.00  0.00    +0.009 C 
ATOM     12  C   UNL     1       0.002  -0.004   0.002  0.00  0.00    +0.006 C 
ATOM     13  C   UNL     1       0.718  -0.497  -1.257  0.00  0.00    +0.005 C 
ATOM     14  C   UNL     1       0.739  -2.027  -1.265  0.00  0.00    +0.000 C 
ATOM     15  C   UNL     1       1.479  -2.534  -0.026  0.00  0.00    +0.002 C 
ATOM     16  C   UNL     1       0.763  -2.041   1.233  0.00  0.00    +0.022 C 
ATOM     17  C   UNL     1       0.742  -0.511   1.242  0.00  0.00    +0.073 C 
ENDBRANCH   9  17
ENDBRANCH   1   9
BRANCH   6  18
ATOM     18  O   UNL     1       4.722   0.954   1.249  0.00  0.00    -0.431 OA
BRANCH  18  19
ATOM     19  C   UNL     1       4.567   2.305   0.810  0.00  0.00    +0.541 C 
ATOM     20  F   UNL     1       3.208   2.588   0.639  0.00  0.00    -0.166 F 
ATOM     21  F   UNL     1       5.107   3.171   1.768  0.00  0.00    -0.166 F 
ENDBRANCH  18  19
ENDBRANCH   6  18
TORSDOF 4
