REMARK  Name = ZINC40648257
REMARK  6 active torsions:
REMARK  status: ('A' for Active; 'I' for Inactive)
REMARK    1  A    between atoms: C_4  and  C_7
REMARK    2  A    between atoms: C_7  and  C_8
REMARK    3  A    between atoms: C_7  and  N_14
REMARK    4  A    between atoms: C_16  and  N_29
REMARK    5  A    between atoms: C_17  and  N_21
REMARK    6  A    between atoms: N_21  and  C_22
REMARK                            x       y       z     vdW  Elec       q    Type
REMARK                         _______ _______ _______ _____ _____    ______ ____
ROOT
ATOM      1  N   UNL     1       3.758  -2.437  -0.309  0.00  0.00    -0.316 N 
ATOM      2  C   UNL     1       4.857  -2.794  -1.075  0.00  0.00    +0.155 A 
ATOM      3  C   UNL     1       4.743  -3.768  -2.063  0.00  0.00    +0.205 A 
ATOM      4  C   UNL     1       5.875  -4.091  -2.804  0.00  0.00    +0.159 A 
ATOM      5  N   UNL     1       7.020  -3.462  -2.543  0.00  0.00    -0.218 NA
ATOM      6  C   UNL     1       7.087  -2.545  -1.599  0.00  0.00    +0.225 A 
ATOM      7  N   UNL     1       6.036  -2.207  -0.880  0.00  0.00    -0.218 NA
ATOM      8  H   UNL     1       2.902  -2.869  -0.457  0.00  0.00    +0.148 HD
ENDROOT
BRANCH   3   9
ATOM      9  N   UNL     1       3.450  -4.443  -2.318  0.00  0.00    +0.063 N 
ATOM     10  O   UNL     1       2.675  -3.980  -3.122  0.00  0.00    -0.126 OA
ATOM     11  O   UNL     1       3.170  -5.457  -1.723  0.00  0.00    -0.126 OA
ENDBRANCH   3   9
BRANCH   4  12
ATOM     12  N   UNL     1       5.813  -5.056  -3.799  0.00  0.00    -0.297 N 
ATOM     13  H   UNL     1       4.959  -5.442  -4.047  0.00  0.00    +0.154 HD
BRANCH  12  14
ATOM     14  C   UNL     1       6.982  -5.470  -4.445  0.00  0.00    +0.047 A 
ATOM     15  C   UNL     1       8.208  -5.370  -3.798  0.00  0.00    +0.024 A 
ATOM     16  C   UNL     1       9.360  -5.780  -4.439  0.00  0.00    +0.002 A 
ATOM     17  C   UNL     1       9.296  -6.289  -5.723  0.00  0.00    +0.001 A 
ATOM     18  C   UNL     1       8.079  -6.390  -6.370  0.00  0.00    +0.017 A 
ATOM     19  C   UNL     1       6.920  -5.987  -5.733  0.00  0.00    +0.039 A 
ATOM     20 BR   UNL     1       5.255  -6.132  -6.616  0.00  0.00    -0.048 Br
ENDBRANCH  12  14
ENDBRANCH   4  12
BRANCH   1  21
ATOM     21  C   UNL     1       3.889  -1.406   0.724  0.00  0.00    +0.132 C 
BRANCH  21  25
ATOM     22  C   UNL     1       0.080   0.396   1.426  0.00  0.00    +0.000 A 
ATOM     23  C   UNL     1       1.221   1.177   1.403  0.00  0.00    +0.000 A 
ATOM     24  C   UNL     1       2.453   0.594   1.176  0.00  0.00    +0.006 A 
ATOM     25  C   UNL     1       2.546  -0.770   0.972  0.00  0.00    -0.023 A 
ATOM     26  C   UNL     1       1.405  -1.551   0.996  0.00  0.00    +0.006 A 
ATOM     27  C   UNL     1       0.172  -0.968   1.222  0.00  0.00    +0.000 A 
ENDBRANCH  21  25
BRANCH  21  28
ATOM     28  C   UNL     1       4.391  -2.033   1.998  0.00  0.00    -0.023 A 
ATOM     29  C   UNL     1       3.922  -3.273   2.390  0.00  0.00    +0.006 A 
ATOM     30  C   UNL     1       4.383  -3.848   3.560  0.00  0.00    +0.000 A 
ATOM     31  C   UNL     1       5.314  -3.184   4.337  0.00  0.00    +0.000 A 
ATOM     32  C   UNL     1       5.784  -1.945   3.944  0.00  0.00    +0.000 A 
ATOM     33  C   UNL     1       5.326  -1.372   2.773  0.00  0.00    +0.006 A 
ENDBRANCH  21  28
ENDBRANCH   1  21
TORSDOF 6
