REMARK  Name = ZINC36121880
REMARK  11 active torsions:
REMARK  status: ('A' for Active; 'I' for Inactive)
REMARK    1  A    between atoms: C_1  and  C_2
REMARK    2  A    between atoms: C_7  and  O_8
REMARK    3  A    between atoms: O_8  and  C_9
REMARK    4  A    between atoms: C_9  and  C_10
REMARK    5  A    between atoms: C_20  and  C_22
REMARK    6  A    between atoms: C_22  and  N_23
REMARK    7  A    between atoms: N_23  and  C_24
REMARK    8  A    between atoms: C_24  and  C_25
REMARK    9  A    between atoms: C_25  and  O_26
REMARK   10  A    between atoms: O_26  and  C_27
REMARK   11  A    between atoms: C_28  and  C_30
REMARK                            x       y       z     vdW  Elec       q    Type
REMARK                         _______ _______ _______ _____ _____    ______ ____
ROOT
ATOM      1  C   UNL     1       1.396   1.356   3.144  0.00  0.00    +0.144 C 
ATOM      2  C   UNL     1       0.267   2.370   2.965  0.00  0.00    -0.014 A 
ATOM      3  C   UNL     1      -1.016   2.019   2.548  0.00  0.00    +0.013 A 
ATOM      4  C   UNL     1      -1.966   2.972   2.408  0.00  0.00    +0.046 A 
ATOM      5  S   UNL     1      -1.076   4.450   2.870  0.00  0.00    -0.101 S 
ATOM      6  C   UNL     1       0.488   3.689   3.217  0.00  0.00    -0.004 A 
ATOM      7  C   UNL     1       1.753   4.336   3.680  0.00  0.00    +0.061 C 
ATOM      8  C   UNL     1       2.917   3.358   3.457  0.00  0.00    +0.114 C 
ATOM      9  N   UNL     1       2.483   2.018   3.879  0.00  0.00    -0.289 N 
ATOM     10  C   UNL     1       3.072   1.405   4.925  0.00  0.00    +0.234 C 
ATOM     11  O   UNL     1       2.705   0.300   5.266  0.00  0.00    -0.274 OA
ENDROOT
BRANCH   1  12
ATOM     12  C   UNL     1       1.901   0.897   1.774  0.00  0.00    +0.256 C 
BRANCH  12  13
ATOM     13  O   UNL     1       2.263   2.037   0.993  0.00  0.00    -0.490 OA
BRANCH  13  20
ATOM     14  C   UNL     1       2.985   4.278  -0.568  0.00  0.00    +0.047 C 
ATOM     15  C   UNL     1       3.105   2.863  -1.073  0.00  0.00    -0.009 A 
ATOM     16  C   UNL     1       3.591   2.622  -2.344  0.00  0.00    +0.007 A 
ATOM     17  C   UNL     1       3.701   1.324  -2.807  0.00  0.00    +0.000 A 
ATOM     18  C   UNL     1       3.327   0.265  -2.001  0.00  0.00    +0.004 A 
ATOM     19  C   UNL     1       2.842   0.501  -0.729  0.00  0.00    +0.046 A 
ATOM     20  C   UNL     1       2.735   1.802  -0.259  0.00  0.00    +0.123 A 
ENDBRANCH  13  20
ENDBRANCH  12  13
ENDBRANCH   1  12
BRANCH  10  21
ATOM     21  C   UNL     1       4.186   2.093   5.671  0.00  0.00    +0.204 C 
BRANCH  21  22
ATOM     22  N   UNL     1       4.654   1.227   6.756  0.00  0.00    -0.287 N 
ATOM     23  C   UNL     1       4.221   1.431   8.016  0.00  0.00    +0.247 C 
ATOM     24  O   UNL     1       4.646   0.744   8.924  0.00  0.00    -0.270 OA
BRANCH  23  25
ATOM     25  C   UNL     1       3.231   2.491   8.294  0.00  0.00    +0.041 A 
ATOM     26  C   UNL     1       2.134   2.663   7.446  0.00  0.00    +0.017 A 
ATOM     27  C   UNL     1       1.211   3.652   7.707  0.00  0.00    +0.050 A 
ATOM     28  C   UNL     1       1.366   4.479   8.812  0.00  0.00    +0.166 A 
ATOM     29  C   UNL     1       2.460   4.312   9.662  0.00  0.00    +0.167 A 
ATOM     30  C   UNL     1       3.386   3.319   9.408  0.00  0.00    +0.062 A 
ATOM     31  O   UNL     1       2.382   5.241  10.660  0.00  0.00    -0.453 OA
ATOM     32  C   UNL     1       1.457   6.237  10.185  0.00  0.00    +0.466 C 
ATOM     33  O   UNL     1       0.606   5.510   9.279  0.00  0.00    -0.453 OA
ENDBRANCH  23  25
BRANCH  22  34
ATOM     34  C   UNL     1       5.593   0.139   6.472  0.00  0.00    +0.136 C 
BRANCH  34  35
ATOM     35  C   UNL     1       7.022   0.684   6.475  0.00  0.00    +0.178 C 
BRANCH  35  36
ATOM     36  O   UNL     1       7.356   1.138   7.788  0.00  0.00    -0.381 OA
ATOM     37  C   UNL     1       8.677   1.669   7.902  0.00  0.00    +0.194 C 
ENDBRANCH  35  36
ENDBRANCH  34  35
ENDBRANCH  22  34
ENDBRANCH  21  22
ENDBRANCH  10  21
TORSDOF 9
