REMARK  Name = ZINC39770350
REMARK  15 active torsions:
REMARK  status: ('A' for Active; 'I' for Inactive)
REMARK    1  A    between atoms: C_1  and  C_2
REMARK    2  A    between atoms: C_2  and  C_3
REMARK    3  A    between atoms: C_3  and  C_4
REMARK    4  A    between atoms: C_4  and  C_5
REMARK    5  A    between atoms: C_5  and  C_6
REMARK    6  A    between atoms: C_6  and  N_7
REMARK    7  A    between atoms: C_11  and  C_12
REMARK    8  A    between atoms: C_13  and  C_34
REMARK    9  A    between atoms: C_14  and  C_32
REMARK   10  A    between atoms: N_17  and  C_29
REMARK   11  A    between atoms: C_18  and  N_19
REMARK   12  A    between atoms: C_21  and  C_28
REMARK   13  A    between atoms: C_24  and  C_27
REMARK   14  A    between atoms: C_29  and  C_30
REMARK   15  A    between atoms: C_30  and  C_31
REMARK                            x       y       z     vdW  Elec       q    Type
REMARK                         _______ _______ _______ _____ _____    ______ ____
ROOT
ATOM      1  C   UNL     1      -6.720  -5.925   3.353  0.00  0.00    +0.019 A 
ATOM      2  C   UNL     1      -5.420  -5.395   3.417  0.00  0.00    -0.017 A 
ATOM      3  C   UNL     1      -4.999  -4.787   4.597  0.00  0.00    +0.120 A 
ATOM      4  C   UNL     1      -5.887  -4.716   5.700  0.00  0.00    +0.270 A 
ATOM      5  O   UNL     1      -5.525  -4.185   6.735  0.00  0.00    -0.266 OA
ATOM      6  N   UNL     1      -7.127  -5.231   5.613  0.00  0.00    -0.295 N 
ATOM      7  C   UNL     1      -7.563  -5.825   4.472  0.00  0.00    +0.112 A 
ATOM      8  C   UNL     1      -4.497  -5.484   2.230  0.00  0.00    +0.046 C 
ENDROOT
BRANCH   1  13
ATOM      9  N   UNL     1      -7.059  -4.046  -0.522  0.00  0.00    -0.255 N 
ATOM     10  C   UNL     1      -6.964  -4.490   0.720  0.00  0.00    +0.258 C 
ATOM     11  O   UNL     1      -6.665  -3.741   1.632  0.00  0.00    -0.269 OA
ATOM     12  C   UNL     1      -7.223  -5.873   0.959  0.00  0.00    +0.077 C 
ATOM     13  C   UNL     1      -7.193  -6.570   2.127  0.00  0.00    +0.032 C 
ATOM     14  S   UNL     1      -7.597  -6.441  -0.695  0.00  0.00    -0.061 S 
ATOM     15  C   UNL     1      -7.397  -4.876  -1.533  0.00  0.00    +0.121 C 
ATOM     16  S   UNL     1      -7.583  -4.520  -3.197  0.00  0.00    -0.027 S 
BRANCH   9  17
ATOM     17  C   UNL     1      -6.800  -2.632  -0.805  0.00  0.00    +0.115 C 
BRANCH  17  18
ATOM     18  C   UNL     1      -8.104  -1.841  -0.684  0.00  0.00    +0.019 C 
BRANCH  18  19
ATOM     19  C   UNL     1      -7.834  -0.364  -0.979  0.00  0.00    +0.002 C 
BRANCH  19  20
ATOM     20  C   UNL     1      -9.138   0.427  -0.858  0.00  0.00    -0.000 C 
BRANCH  20  22
ATOM     21  C   UNL     1     -10.171   2.695  -1.033  0.00  0.00    +0.004 C 
ATOM     22  C   UNL     1      -8.868   1.904  -1.154  0.00  0.00    -0.003 C 
ENDBRANCH  20  22
ENDBRANCH  19  20
ENDBRANCH  18  19
ENDBRANCH  17  18
ENDBRANCH   9  17
ENDBRANCH   1  13
BRANCH   7  23
ATOM     23  N   UNL     1      -8.828  -6.332   4.414  0.00  0.00    -0.311 N 
ATOM     24  C   UNL     1      -9.998  -5.443   4.337  0.00  0.00    +0.137 C 
ATOM     25  C   UNL     1     -10.881  -5.906   3.173  0.00  0.00    +0.133 C 
ATOM     26  O   UNL     1     -11.153  -7.303   3.315  0.00  0.00    -0.371 OA
ATOM     27  C   UNL     1      -9.992  -8.134   3.257  0.00  0.00    +0.133 C 
ATOM     28  C   UNL     1      -9.062  -7.785   4.420  0.00  0.00    +0.137 C 
ATOM     29  C   UNL     1     -10.409  -9.603   3.356  0.00  0.00    +0.039 C 
ATOM     30  C   UNL     1     -10.155  -5.658   1.850  0.00  0.00    +0.039 C 
ENDBRANCH   7  23
BRANCH   3  31
ATOM     31  C   UNL     1      -3.680  -4.237   4.695  0.00  0.00    +0.105 C 
ATOM     32  N   UNL     1      -2.634  -3.801   4.773  0.00  0.00    -0.191 NA
ENDBRANCH   3  31
BRANCH   6  33
ATOM     33  C   UNL     1      -8.024  -5.146   6.768  0.00  0.00    +0.126 C 
BRANCH  33  34
ATOM     34  C   UNL     1      -8.721  -3.784   6.772  0.00  0.00    +0.018 C 
ATOM     35  C   UNL     1      -9.566  -3.647   8.040  0.00  0.00    +0.005 C 
ENDBRANCH  33  34
ENDBRANCH   6  33
TORSDOF 10
