REMARK  Name = ZINC22696267
REMARK  13 active torsions:
REMARK  status: ('A' for Active; 'I' for Inactive)
REMARK    1  A    between atoms: C_1  and  C_2
REMARK    2  A    between atoms: C_2  and  O_3
REMARK    3  A    between atoms: O_3  and  C_4
REMARK    4  A    between atoms: C_7  and  C_12
REMARK    5  A    between atoms: C_9  and  O_10
REMARK    6  A    between atoms: O_10  and  C_11
REMARK    7  A    between atoms: N_14  and  N_15
REMARK    8  A    between atoms: C_16  and  C_18
REMARK    9  A    between atoms: C_19  and  C_20
REMARK   10  A    between atoms: C_23  and  S_26
REMARK   11  A    between atoms: S_26  and  N_29
REMARK   12  A    between atoms: N_29  and  C_30
REMARK   13  A    between atoms: C_30  and  C_31
REMARK                            x       y       z     vdW  Elec       q    Type
REMARK                         _______ _______ _______ _____ _____    ______ ____
ROOT
ATOM      1  N   UNL     1       1.178  -0.662  -0.013  0.00  0.00    -0.231 N 
ATOM      2  C   UNL     1       0.002  -0.004   0.002  0.00  0.00    +0.253 C 
ATOM      3  O   UNL     1      -1.043  -0.627   0.009  0.00  0.00    -0.269 OA
ATOM      4  H   UNL     1       2.123  -0.099  -0.019  0.00  0.00    +0.173 HD
ENDROOT
BRANCH   1   7
ATOM      5  C   UNL     1       2.373  -2.721  -0.035  0.00  0.00    +0.260 C 
ATOM      6  O   UNL     1       3.418  -2.099  -0.042  0.00  0.00    -0.269 OA
ATOM      7  N   UNL     1       1.197  -2.063  -0.021  0.00  0.00    -0.230 N 
ATOM      8  H   UNL     1       0.252  -2.626  -0.015  0.00  0.00    +0.173 HD
BRANCH   5  12
ATOM      9  C   UNL     1       2.425  -6.970  -0.058  0.00  0.00    +0.162 A 
ATOM     10  C   UNL     1       1.214  -6.291  -0.042  0.00  0.00    +0.050 A 
ATOM     11  C   UNL     1       1.194  -4.913  -0.030  0.00  0.00    +0.017 A 
ATOM     12  C   UNL     1       2.393  -4.197  -0.043  0.00  0.00    +0.042 A 
ATOM     13  C   UNL     1       3.612  -4.880  -0.059  0.00  0.00    +0.062 A 
ATOM     14  C   UNL     1       3.626  -6.262  -0.066  0.00  0.00    +0.162 A 
BRANCH  14  15
ATOM     15  O   UNL     1       4.810  -6.930  -0.081  0.00  0.00    -0.491 OA
ATOM     16  C   UNL     1       6.000  -6.140  -0.089  0.00  0.00    +0.277 C 
ENDBRANCH  14  15
BRANCH   9  17
ATOM     17  O   UNL     1       2.440  -8.328  -0.064  0.00  0.00    -0.489 OA
BRANCH  17  19
ATOM     18  C   UNL     1       1.391 -10.505  -0.064  0.00  0.00    +0.048 C 
ATOM     19  C   UNL     1       1.174  -8.991  -0.055  0.00  0.00    +0.226 C 
ENDBRANCH  17  19
ENDBRANCH   9  17
ENDBRANCH   5  12
ENDBRANCH   1   7
BRANCH   2  20
ATOM     20  C   UNL     1      -0.018   1.460   0.010  0.00  0.00    +0.069 C 
ATOM     21  C   UNL     1      -1.194   2.118   0.019  0.00  0.00    +0.013 C 
BRANCH  21  22
ATOM     22  C   UNL     1      -1.214   3.590   0.027  0.00  0.00    -0.025 A 
ATOM     23  C   UNL     1      -0.015   4.309   0.031  0.00  0.00    +0.010 A 
ATOM     24  C   UNL     1      -0.042   5.688   0.033  0.00  0.00    +0.029 A 
ATOM     25  C   UNL     1      -1.252   6.360   0.042  0.00  0.00    +0.105 A 
ATOM     26  C   UNL     1      -2.443   5.655   0.044  0.00  0.00    +0.029 A 
ATOM     27  C   UNL     1      -2.433   4.276   0.037  0.00  0.00    +0.010 A 
BRANCH  25  28
ATOM     28  S   UNL     1      -1.276   8.122   0.052  0.00  0.00    +0.059 S 
ATOM     29  O   UNL     1      -0.039   8.548  -0.503  0.00  0.00    -0.153 OA
ATOM     30  O   UNL     1      -2.529   8.514  -0.491  0.00  0.00    -0.153 OA
BRANCH  28  31
ATOM     31  N   UNL     1      -1.274   8.603   1.636  0.00  0.00    -0.183 NA
ATOM     32  H   UNL     1      -2.204   8.985   2.083  0.00  0.00    +0.148 HD
BRANCH  31  33
ATOM     33  C   UNL     1      -0.116   8.318   2.487  0.00  0.00    +0.180 C 
BRANCH  33  34
ATOM     34  C   UNL     1      -0.193   9.156   3.737  0.00  0.00    +0.120 A 
ATOM     35  C   UNL     1      -0.794   8.799   4.887  0.00  0.00    +0.046 A 
ATOM     36  C   UNL     1      -0.627   9.877   5.787  0.00  0.00    +0.041 A 
ATOM     37  C   UNL     1       0.066  10.827   5.134  0.00  0.00    +0.195 A 
ATOM     38  O   UNL     1       0.331  10.382   3.895  0.00  0.00    -0.466 OA
ENDBRANCH  33  34
ENDBRANCH  31  33
ENDBRANCH  28  31
ENDBRANCH  25  28
ENDBRANCH  21  22
ENDBRANCH   2  20
TORSDOF 11
