REMARK  Name = ZINC35310671
REMARK  7 active torsions:
REMARK  status: ('A' for Active; 'I' for Inactive)
REMARK    1  A    between atoms: C_1  and  C_2
REMARK    2  A    between atoms: C_2  and  C_3
REMARK    3  A    between atoms: C_3  and  C_29
REMARK    4  A    between atoms: N_6  and  N_10
REMARK    5  A    between atoms: C_11  and  C_13
REMARK    6  A    between atoms: C_13  and  N_14
REMARK    7  A    between atoms: C_22  and  C_24
REMARK                            x       y       z     vdW  Elec       q    Type
REMARK                         _______ _______ _______ _____ _____    ______ ____
ROOT
ATOM      1  N   UNL     1      -4.184   1.436   1.387  0.00  0.00    -0.223 N 
ATOM      2  C   UNL     1      -4.133   2.781   1.464  0.00  0.00    +0.244 C 
ATOM      3  O   UNL     1      -3.256   3.389   0.888  0.00  0.00    -0.273 OA
ATOM      4  H   UNL     1      -4.886   0.950   1.847  0.00  0.00    +0.174 HD
ENDROOT
BRANCH   1   8
ATOM      5  C   UNL     1      -1.433  -0.534   0.013  0.00  0.00    +0.139 C 
ATOM      6  C   UNL     1      -2.205   0.042   1.184  0.00  0.00    +0.268 C 
ATOM      7  O   UNL     1      -1.958  -0.098   2.363  0.00  0.00    -0.271 OA
ATOM      8  N   UNL     1      -3.222   0.740   0.642  0.00  0.00    -0.137 N 
ATOM      9  C   UNL     1      -3.200   0.687  -0.695  0.00  0.00    +0.327 C 
ATOM     10  O   UNL     1      -4.016   1.240  -1.406  0.00  0.00    -0.251 OA
ATOM     11  N   UNL     1      -2.175  -0.046  -1.163  0.00  0.00    -0.280 N 
ATOM     12  H   UNL     1      -1.964  -0.220  -2.094  0.00  0.00    +0.152 HD
BRANCH   5  13
ATOM     13  C   UNL     1      -1.441  -2.040   0.057  0.00  0.00    -0.015 A 
ATOM     14  C   UNL     1      -0.412  -2.718   0.684  0.00  0.00    +0.006 A 
ATOM     15  C   UNL     1      -0.419  -4.100   0.725  0.00  0.00    +0.000 A 
ATOM     16  C   UNL     1      -1.454  -4.803   0.139  0.00  0.00    +0.000 A 
ATOM     17  C   UNL     1      -2.483  -4.125  -0.487  0.00  0.00    +0.000 A 
ATOM     18  C   UNL     1      -2.479  -2.744  -0.524  0.00  0.00    +0.006 A 
ENDBRANCH   5  13
BRANCH   5  20
ATOM     19  C   UNL     1      -0.019   1.526   0.010  0.00  0.00    +0.007 C 
ATOM     20  C   UNL     1       0.002  -0.004   0.002  0.00  0.00    +0.037 C 
ENDBRANCH   5  20
ENDBRANCH   1   8
BRANCH   2  21
ATOM     21  C   UNL     1      -5.168   3.529   2.264  0.00  0.00    +0.182 C 
BRANCH  21  22
ATOM     22  N   UNL     1      -4.895   4.970   2.191  0.00  0.00    -0.282 NA
ATOM     23  C   UNL     1      -5.050   5.466   0.816  0.00  0.00    +0.091 C 
ATOM     24  C   UNL     1      -4.371   6.842   0.706  0.00  0.00    +0.058 C 
ATOM     25  C   UNL     1      -4.803   7.658   1.881  0.00  0.00    -0.004 A 
ATOM     26  C   UNL     1      -5.423   7.201   3.005  0.00  0.00    -0.015 A 
ATOM     27  C   UNL     1      -5.736   8.152   3.973  0.00  0.00    +0.013 A 
ATOM     28  C   UNL     1      -5.421   9.453   3.770  0.00  0.00    +0.046 A 
ATOM     29  S   UNL     1      -4.647   9.399   2.160  0.00  0.00    -0.101 S 
ATOM     30  C   UNL     1      -5.731   5.713   3.143  0.00  0.00    +0.125 C 
BRANCH  30  31
ATOM     31  C   UNL     1      -5.423   5.261   4.547  0.00  0.00    +0.011 A 
ATOM     32  C   UNL     1      -6.273   5.042   5.579  0.00  0.00    +0.013 A 
ATOM     33  C   UNL     1      -5.761   4.624   6.793  0.00  0.00    +0.008 A 
ATOM     34  C   UNL     1      -4.423   4.445   6.915  0.00  0.00    +0.045 A 
ATOM     35  S   UNL     1      -3.843   4.866   5.279  0.00  0.00    -0.100 S 
ENDBRANCH  30  31
ENDBRANCH  21  22
ENDBRANCH   2  21
TORSDOF 6
