REMARK  Name = ZINC01386065
REMARK  8 active torsions:
REMARK  status: ('A' for Active; 'I' for Inactive)
REMARK    1  A    between atoms: C_3  and  C_7
REMARK    2  A    between atoms: C_7  and  N_8
REMARK    3  A    between atoms: N_8  and  S_9
REMARK    4  A    between atoms: S_9  and  C_12
REMARK    5  A    between atoms: C_15  and  O_18
REMARK    6  A    between atoms: O_18  and  C_19
REMARK    7  A    between atoms: C_23  and  C_33
REMARK    8  A    between atoms: C_25  and  C_29
REMARK                            x       y       z     vdW  Elec       q    Type
REMARK                         _______ _______ _______ _____ _____    ______ ____
ROOT
ATOM      1  O   UNL     1      -1.202   2.048   0.019  0.00  0.00    -0.438 OA
ENDROOT
BRANCH   1   2
ATOM      2  C   UNL     1      -1.999   1.912   1.106  0.00  0.00    +0.222 A 
ATOM      3  C   UNL     1      -3.268   2.504   1.101  0.00  0.00    +0.068 A 
ATOM      4  C   UNL     1      -4.083   2.370   2.186  0.00  0.00    +0.017 A 
ATOM      5  C   UNL     1      -3.604   1.641   3.292  0.00  0.00    +0.031 A 
ATOM      6  C   UNL     1      -4.385   1.466   4.447  0.00  0.00    +0.067 A 
ATOM      7  C   UNL     1      -3.855   0.745   5.481  0.00  0.00    +0.045 A 
ATOM      8  C   UNL     1      -2.575   0.210   5.367  0.00  0.00    +0.146 A 
ATOM      9  N   UNL     1      -1.850   0.376   4.286  0.00  0.00    -0.223 NA
ATOM     10  C   UNL     1      -2.309   1.070   3.239  0.00  0.00    +0.165 A 
ATOM     11  N   UNL     1      -1.559   1.232   2.143  0.00  0.00    -0.193 NA
BRANCH   8  12
ATOM     12  C   UNL     1      -2.007  -0.582   6.516  0.00  0.00    +0.434 C 
ATOM     13  F   UNL     1      -2.338  -1.932   6.361  0.00  0.00    -0.164 F 
ATOM     14  F   UNL     1      -0.615  -0.443   6.535  0.00  0.00    -0.164 F 
ATOM     15  F   UNL     1      -2.539  -0.106   7.719  0.00  0.00    -0.164 F 
ENDBRANCH   8  12
BRANCH   6  16
ATOM     16  C   UNL     1      -5.769   2.056   4.543  0.00  0.00    +0.418 C 
ATOM     17  F   UNL     1      -6.326   1.737   5.786  0.00  0.00    -0.166 F 
ATOM     18  F   UNL     1      -5.693   3.446   4.408  0.00  0.00    -0.166 F 
ATOM     19  F   UNL     1      -6.571   1.531   3.524  0.00  0.00    -0.166 F 
ENDBRANCH   6  16
ENDBRANCH   1   2
BRANCH   1  23
ATOM     20  C   UNL     1       2.367  -0.020  -0.049  0.00  0.00    +0.105 A 
ATOM     21  C   UNL     1       1.171  -0.703  -0.167  0.00  0.00    +0.032 A 
ATOM     22  C   UNL     1      -0.025  -0.014  -0.143  0.00  0.00    +0.048 A 
ATOM     23  C   UNL     1      -0.026   1.366   0.000  0.00  0.00    +0.130 A 
ATOM     24  C   UNL     1       1.175   2.050   0.119  0.00  0.00    +0.048 A 
ATOM     25  C   UNL     1       2.369   1.356   0.094  0.00  0.00    +0.032 A 
BRANCH  20  26
ATOM     26  S   UNL     1       3.892  -0.903  -0.080  0.00  0.00    +0.059 S 
ATOM     27  O   UNL     1       4.844  -0.093   0.596  0.00  0.00    -0.153 OA
ATOM     28  O   UNL     1       3.599  -2.233   0.324  0.00  0.00    -0.153 OA
BRANCH  26  29
ATOM     29  N   UNL     1       4.378  -0.984  -1.661  0.00  0.00    -0.186 NA
ATOM     30  H   UNL     1       4.429  -1.843  -2.109  0.00  0.00    +0.148 HD
BRANCH  29  31
ATOM     31  C   UNL     1       4.731   0.240  -2.383  0.00  0.00    +0.142 C 
BRANCH  31  34
ATOM     32  C   UNL     1       7.500  -0.559  -4.818  0.00  0.00    +0.020 A 
ATOM     33  C   UNL     1       6.857  -0.224  -3.636  0.00  0.00    +0.008 A 
ATOM     34  C   UNL     1       5.475  -0.116  -3.644  0.00  0.00    -0.014 A 
ATOM     35  C   UNL     1       4.789  -0.335  -4.823  0.00  0.00    +0.115 A 
ATOM     36  N   UNL     1       5.434  -0.648  -5.930  0.00  0.00    -0.263 NA
ATOM     37  C   UNL     1       6.747  -0.764  -5.959  0.00  0.00    +0.111 A 
ENDBRANCH  31  34
ENDBRANCH  29  31
ENDBRANCH  26  29
ENDBRANCH  20  26
ENDBRANCH   1  23
TORSDOF 8
