REMARK  Name = ZINC09883038
REMARK  9 active torsions:
REMARK  status: ('A' for Active; 'I' for Inactive)
REMARK    1  A    between atoms: C_1  and  C_2
REMARK    2  A    between atoms: C_2  and  N_3
REMARK    3  A    between atoms: N_3  and  C_4
REMARK    4  A    between atoms: C_5  and  N_20
REMARK    5  A    between atoms: N_6  and  C_13
REMARK    6  A    between atoms: C_13  and  C_14
REMARK    7  A    between atoms: C_21  and  C_23
REMARK    8  A    between atoms: C_23  and  S_24
REMARK    9  A    between atoms: S_24  and  C_25
REMARK                            x       y       z     vdW  Elec       q    Type
REMARK                         _______ _______ _______ _____ _____    ______ ____
ROOT
ATOM      1  C   UNL     1      -2.969  -2.324   0.009  0.00  0.00    +0.140 A 
ATOM      2  C   UNL     1      -4.026  -1.441   0.081  0.00  0.00    +0.128 A 
ATOM      3  N   UNL     1      -5.307  -1.933   0.178  0.00  0.00    -0.276 N 
ATOM      4  C   UNL     1      -5.525  -3.261   0.213  0.00  0.00    +0.331 A 
ATOM      5  O   UNL     1      -6.664  -3.676   0.304  0.00  0.00    -0.246 OA
ATOM      6  N   UNL     1      -4.506  -4.136   0.148  0.00  0.00    -0.273 N 
ATOM      7  H   UNL     1      -4.696  -5.118   0.175  0.00  0.00    +0.173 HD
ATOM      8  C   UNL     1      -3.233  -3.706   0.048  0.00  0.00    +0.277 A 
ATOM      9  O   UNL     1      -2.317  -4.508  -0.010  0.00  0.00    -0.266 OA
ENDROOT
BRANCH   1  10
ATOM     10  N   UNL     1      -1.644  -1.850  -0.096  0.00  0.00    -0.264 N 
ATOM     11  C   UNL     1      -1.265  -1.139  -1.178  0.00  0.00    +0.230 C 
ATOM     12  O   UNL     1      -2.038  -0.978  -2.099  0.00  0.00    -0.274 OA
BRANCH  10  14
ATOM     13  C   UNL     1      -0.757  -1.030   2.031  0.00  0.00    +0.025 C 
ATOM     14  C   UNL     1      -0.679  -2.130   0.971  0.00  0.00    +0.110 C 
ENDBRANCH  10  14
BRANCH  11  15
ATOM     15  C   UNL     1       0.118  -0.544  -1.243  0.00  0.00    +0.172 C 
BRANCH  15  16
ATOM     16  S   UNL     1       0.321   0.346  -2.810  0.00  0.00    -0.088 S 
BRANCH  16  17
ATOM     17  C   UNL     1       1.965   0.974  -2.734  0.00  0.00    +0.160 A 
ATOM     18  N   UNL     1       2.866   0.846  -1.779  0.00  0.00    -0.133 NA
ATOM     19  N   UNL     1       4.106   1.423  -1.925  0.00  0.00    -0.125 NA
ATOM     20  C   UNL     1       4.389   2.102  -3.020  0.00  0.00    +0.180 A 
ATOM     21  S   UNL     1       2.862   1.947  -3.934  0.00  0.00    -0.025 S 
ATOM     22  N   UNL     1       5.563   2.758  -3.371  0.00  0.00    -0.336 N 
ATOM     23  H   UNL     1       6.321   2.753  -2.765  0.00  0.00    +0.144 HD
ATOM     24  H   UNL     1       5.624   3.221  -4.221  0.00  0.00    +0.144 HD
ENDBRANCH  16  17
ENDBRANCH  15  16
ENDBRANCH  11  15
ENDBRANCH   1  10
BRANCH   2  25
ATOM     25  N   UNL     1      -3.803  -0.085   0.052  0.00  0.00    -0.343 N 
ATOM     26  H   UNL     1      -2.897   0.258   0.089  0.00  0.00    +0.144 HD
ATOM     27  H   UNL     1      -4.552   0.528  -0.006  0.00  0.00    +0.144 HD
ENDBRANCH   2  25
BRANCH   3  28
ATOM     28  C   UNL     1      -6.440  -1.007   0.251  0.00  0.00    +0.163 C 
BRANCH  28  29
ATOM     29  C   UNL     1      -6.722  -0.671   1.692  0.00  0.00    -0.028 A 
ATOM     30  C   UNL     1      -7.609  -1.440   2.421  0.00  0.00    +0.005 A 
ATOM     31  C   UNL     1      -7.864  -1.134   3.745  0.00  0.00    +0.000 A 
ATOM     32  C   UNL     1      -7.239  -0.052   4.337  0.00  0.00    +0.000 A 
ATOM     33  C   UNL     1      -6.356   0.721   3.607  0.00  0.00    +0.000 A 
ATOM     34  C   UNL     1      -6.097   0.411   2.284  0.00  0.00    +0.005 A 
ENDBRANCH  28  29
ENDBRANCH   3  28
TORSDOF 8
