REMARK  Name = ZINC54473731
REMARK  3 active torsions:
REMARK  status: ('A' for Active; 'I' for Inactive)
REMARK    1  A    between atoms: C_10  and  N_20
REMARK    2  A    between atoms: C_12  and  C_14
REMARK    3  A    between atoms: N_20  and  C_21
REMARK                            x       y       z     vdW  Elec       q    Type
REMARK                         _______ _______ _______ _____ _____    ______ ____
ROOT
ATOM      1  C   UNL     1      -0.691   1.201   0.941  0.00  0.00    +0.033 C 
ATOM      2  C   UNL     1      -0.470  -0.091   0.658  0.00  0.00    +0.031 C 
ATOM      3  C   UNL     1      -1.586  -1.016   0.394  0.00  0.00    +0.090 C 
ATOM      4  C   UNL     1      -1.330  -2.341   0.321  0.00  0.00    +0.249 C 
ATOM      5  O   UNL     1      -2.345  -3.213   0.111  0.00  0.00    -0.270 OA
ATOM      6  N   UNL     1      -0.040  -2.809   0.459  0.00  0.00    -0.213 N 
ATOM      7  C   UNL     1       0.988  -1.961   0.781  0.00  0.00    +0.199 C 
ATOM      8  N   UNL     1       0.835  -0.610   0.596  0.00  0.00    -0.287 N 
ATOM      9  N   UNL     1       2.097  -2.445   1.300  0.00  0.00    -0.183 NA
ATOM     10  C   UNL     1       2.220  -3.759   1.554  0.00  0.00    +0.240 C 
ATOM     11  N   UNL     1       1.363  -4.635   1.104  0.00  0.00    -0.222 NA
ATOM     12  C   UNL     1       0.263  -4.227   0.226  0.00  0.00    +0.235 C 
ATOM     13  H   UNL     1       1.597  -0.033   0.431  0.00  0.00    +0.155 HD
ENDROOT
BRANCH  12  14
ATOM     14  C   UNL     1       0.666  -4.425  -1.213  0.00  0.00    -0.002 A 
ATOM     15  C   UNL     1       0.163  -3.604  -2.210  0.00  0.00    +0.027 A 
ATOM     16  C   UNL     1       0.556  -3.817  -3.518  0.00  0.00    +0.111 A 
ATOM     17  N   UNL     1       1.397  -4.786  -3.821  0.00  0.00    -0.263 NA
ATOM     18  C   UNL     1       1.894  -5.586  -2.899  0.00  0.00    +0.111 A 
ATOM     19  C   UNL     1       1.552  -5.430  -1.569  0.00  0.00    +0.027 A 
ENDBRANCH  12  14
BRANCH  10  20
ATOM     20  N   UNL     1       3.287  -4.197   2.315  0.00  0.00    -0.179 NA
BRANCH  20  21
ATOM     21  C   UNL     1       4.419  -3.389   2.462  0.00  0.00    +0.057 A 
ATOM     22  C   UNL     1       5.228  -3.522   3.584  0.00  0.00    +0.025 A 
ATOM     23  C   UNL     1       6.345  -2.723   3.726  0.00  0.00    +0.002 A 
ATOM     24  C   UNL     1       6.658  -1.790   2.754  0.00  0.00    +0.000 A 
ATOM     25  C   UNL     1       5.856  -1.656   1.636  0.00  0.00    +0.002 A 
ATOM     26  C   UNL     1       4.740  -2.457   1.485  0.00  0.00    +0.025 A 
ENDBRANCH  20  21
ENDBRANCH  10  20
TORSDOF 3
