REMARK  Name = ZINC38361532
REMARK  15 active torsions:
REMARK  status: ('A' for Active; 'I' for Inactive)
REMARK    1  A    between atoms: C_1  and  C_2
REMARK    2  A    between atoms: C_2  and  C_4
REMARK    3  A    between atoms: C_2  and  N_17
REMARK    4  A    between atoms: N_6  and  C_7
REMARK    5  A    between atoms: C_10  and  S_13
REMARK    6  A    between atoms: S_13  and  N_16
REMARK    7  A    between atoms: N_17  and  C_18
REMARK    8  A    between atoms: C_18  and  C_20
REMARK    9  A    between atoms: C_18  and  C_30
REMARK   10  A    between atoms: C_23  and  C_26
REMARK   11  A    between atoms: C_26  and  C_27
REMARK   12  A    between atoms: C_27  and  C_28
REMARK   13  A    between atoms: C_27  and  C_29
REMARK   14  A    between atoms: C_30  and  C_31
REMARK   15  A    between atoms: C_30  and  C_32
REMARK                            x       y       z     vdW  Elec       q    Type
REMARK                         _______ _______ _______ _____ _____    ______ ____
ROOT
ATOM      1  C   UNL     1       1.491  -2.667   0.082  0.00  0.00    -0.004 C 
ATOM      2  C   UNL     1       0.898  -1.936  -1.125  0.00  0.00    +0.014 C 
ENDROOT
BRANCH   2   3
ATOM      3  C   UNL     1      -0.523  -2.390  -1.339  0.00  0.00    +0.203 C 
ATOM      4  O   UNL     1      -1.430  -1.586  -1.290  0.00  0.00    -0.277 OA
ATOM      5  N   UNL     1      -0.786  -3.689  -1.584  0.00  0.00    -0.287 N 
ATOM      6  H   UNL     1      -0.070  -4.343  -1.548  0.00  0.00    +0.155 HD
BRANCH   5   7
ATOM      7  C   UNL     1      -2.090  -4.093  -1.889  0.00  0.00    +0.033 A 
ATOM      8  C   UNL     1      -2.546  -5.339  -1.479  0.00  0.00    +0.025 A 
ATOM      9  C   UNL     1      -3.834  -5.736  -1.782  0.00  0.00    +0.030 A 
ATOM     10  C   UNL     1      -4.668  -4.894  -2.494  0.00  0.00    +0.105 A 
ATOM     11  C   UNL     1      -4.217  -3.653  -2.905  0.00  0.00    +0.030 A 
ATOM     12  C   UNL     1      -2.932  -3.248  -2.599  0.00  0.00    +0.025 A 
BRANCH  10  13
ATOM     13  S   UNL     1      -6.311  -5.403  -2.879  0.00  0.00    +0.056 S 
ATOM     14  O   UNL     1      -6.709  -4.659  -4.022  0.00  0.00    -0.153 OA
ATOM     15  O   UNL     1      -6.311  -6.824  -2.856  0.00  0.00    -0.153 OA
BRANCH  13  16
ATOM     16  N   UNL     1      -7.282  -4.910  -1.631  0.00  0.00    -0.204 NA
ATOM     17  H   UNL     1      -8.211  -4.687  -1.799  0.00  0.00    +0.144 HD
ATOM     18  H   UNL     1      -6.921  -4.843  -0.733  0.00  0.00    +0.144 HD
ENDBRANCH  13  16
ENDBRANCH  10  13
ENDBRANCH   5   7
ENDBRANCH   2   3
BRANCH   2  19
ATOM     19  N   UNL     1       0.917  -0.488  -0.878  0.00  0.00    +0.391 N 
ATOM     20  H   UNL     1       0.439  -0.012  -1.628  0.00  0.00    -0.084 HD
ATOM     21  H   UNL     1       0.454  -0.289  -0.004  0.00  0.00    -0.084 HD
BRANCH  19  22
ATOM     22  C   UNL     1       2.308  -0.021  -0.811  0.00  0.00    -0.037 C 
BRANCH  22  23
ATOM     23  C   UNL     1       2.961  -0.191  -2.159  0.00  0.00    -0.061 A 
ATOM     24  C   UNL     1       2.253   0.098  -3.311  0.00  0.00    +0.002 A 
ATOM     25  C   UNL     1       2.851  -0.058  -4.547  0.00  0.00    +0.004 A 
ATOM     26  C   UNL     1       4.157  -0.502  -4.632  0.00  0.00    -0.047 A 
ATOM     27  C   UNL     1       4.865  -0.791  -3.480  0.00  0.00    +0.004 A 
ATOM     28  C   UNL     1       4.268  -0.631  -2.243  0.00  0.00    +0.002 A 
BRANCH  26  29
ATOM     29  C   UNL     1       4.809  -0.673  -5.980  0.00  0.00    +0.038 C 
BRANCH  29  30
ATOM     30  C   UNL     1       5.497   0.632  -6.383  0.00  0.00    -0.013 C 
ATOM     31  C   UNL     1       6.644   0.925  -5.413  0.00  0.00    +0.007 C 
ATOM     32  C   UNL     1       6.051   0.499  -7.803  0.00  0.00    +0.007 C 
ENDBRANCH  29  30
ENDBRANCH  26  29
ENDBRANCH  22  23
BRANCH  22  33
ATOM     33  C   UNL     1       2.332   1.457  -0.416  0.00  0.00    -0.027 C 
ATOM     34  C   UNL     1       1.773   1.615   1.000  0.00  0.00    +0.006 C 
ATOM     35  C   UNL     1       3.772   1.973  -0.456  0.00  0.00    +0.006 C 
ENDBRANCH  22  33
ENDBRANCH  19  22
ENDBRANCH   2  19
TORSDOF 10
