REMARK  Name = ZINC39593194
REMARK  4 active torsions:
REMARK  status: ('A' for Active; 'I' for Inactive)
REMARK    1  A    between atoms: C_3  and  O_26
REMARK    2  A    between atoms: C_4  and  C_8
REMARK    3  A    between atoms: N_9  and  N_10
REMARK    4  A    between atoms: C_11  and  C_17
REMARK                            x       y       z     vdW  Elec       q    Type
REMARK                         _______ _______ _______ _____ _____    ______ ____
ROOT
ATOM      1  N   UNL     1       6.024  -0.707  -0.167  0.00  0.00    -0.175 N 
ATOM      2  C   UNL     1       7.370  -0.109  -0.186  0.00  0.00    +0.230 C 
ATOM      3  N   UNL     1       8.270  -1.267  -0.331  0.00  0.00    -0.242 N 
ATOM      4  N   UNL     1       7.444  -2.397  -0.384  0.00  0.00    -0.160 NA
ATOM      5  C   UNL     1       6.198  -2.076  -0.286  0.00  0.00    +0.206 C 
ATOM      6  S   UNL     1       4.875  -3.240  -0.307  0.00  0.00    -0.011 SA
ATOM      7  H   UNL     1       9.238  -1.250  -0.381  0.00  0.00    +0.170 HD
ENDROOT
BRANCH   2   8
ATOM      8  C   UNL     1       7.649   0.629   1.125  0.00  0.00    +0.197 C 
ATOM      9  C   UNL     1       9.008   1.297   1.086  0.00  0.00    -0.017 C 
ATOM     10  C   UNL     1       9.696   0.724   2.071  0.00  0.00    +0.065 C 
ATOM     11  C   UNL     1      11.092   1.316   2.137  0.00  0.00    +0.057 C 
ATOM     12  C   UNL     1      11.293   2.024   0.779  0.00  0.00    +0.011 C 
ATOM     13  C   UNL     1       9.835   2.332   0.368  0.00  0.00    +0.035 C 
ATOM     14  N   UNL     1       8.922  -0.205   2.697  0.00  0.00    -0.158 NA
ATOM     15  N   UNL     1       7.779  -0.322   2.242  0.00  0.00    -0.176 NA
ENDBRANCH   2   8
BRANCH   1  17
ATOM     16  C   UNL     1       4.787   1.274  -0.046  0.00  0.00    +0.142 C 
ATOM     17  N   UNL     1       4.807  -0.024  -0.045  0.00  0.00    -0.184 NA
BRANCH  16  21
ATOM     18  C   UNL     1       1.150   3.345   0.675  0.00  0.00    +0.019 A 
ATOM     19  C   UNL     1       1.163   1.962   0.678  0.00  0.00    +0.047 A 
ATOM     20  C   UNL     1       2.343   1.278   0.444  0.00  0.00    +0.126 A 
ATOM     21  C   UNL     1       3.525   1.992   0.204  0.00  0.00    +0.037 A 
ATOM     22  C   UNL     1       3.500   3.389   0.204  0.00  0.00    +0.028 A 
ATOM     23  C   UNL     1       2.314   4.055   0.439  0.00  0.00    +0.019 A 
ATOM     24 BR   UNL     1       2.281   5.946   0.440  0.00  0.00    -0.050 Br
BRANCH  20  25
ATOM     25  O   UNL     1       2.356  -0.081   0.446  0.00  0.00    -0.506 OA
ATOM     26  H   UNL     1       2.186  -0.477  -0.419  0.00  0.00    +0.292 HD
ENDBRANCH  20  25
ENDBRANCH  16  21
ENDBRANCH   1  17
TORSDOF 4
