REMARK  Name = ZINC06239863
REMARK  7 active torsions:
REMARK  status: ('A' for Active; 'I' for Inactive)
REMARK    1  A    between atoms: C_1  and  O_2
REMARK    2  A    between atoms: O_2  and  C_3
REMARK    3  A    between atoms: C_6  and  C_9
REMARK    4  A    between atoms: C_9  and  N_10
REMARK    5  A    between atoms: C_11  and  C_15
REMARK    6  A    between atoms: C_15  and  C_17
REMARK    7  A    between atoms: C_15  and  N_65
REMARK                            x       y       z     vdW  Elec       q    Type
REMARK                         _______ _______ _______ _____ _____    ______ ____
ROOT
ATOM      1  C   UNL     1      -3.823   1.978   0.024  0.00  0.00    +0.039 C 
ENDROOT
BRANCH   1   2
ATOM      2  C   UNL     1      -2.329   1.990  -0.170  0.00  0.00    +0.011 A 
ATOM      3  C   UNL     1      -1.620   3.114   0.110  0.00  0.00    +0.017 A 
ATOM      4  C   UNL     1      -0.172   3.095  -0.093  0.00  0.00    +0.002 A 
ATOM      5  C   UNL     1       0.610   4.226   0.176  0.00  0.00    +0.059 A 
ATOM      6  C   UNL     1       1.972   4.176  -0.018  0.00  0.00    +0.167 A 
ATOM      7  C   UNL     1       2.576   3.002  -0.484  0.00  0.00    +0.168 A 
ATOM      8  C   UNL     1       1.812   1.881  -0.753  0.00  0.00    +0.075 A 
ATOM      9  C   UNL     1       0.437   1.915  -0.562  0.00  0.00    +0.053 A 
ATOM     10  N   UNL     1      -0.341   0.805  -0.824  0.00  0.00    -0.322 N 
ATOM     11  H   UNL     1       0.092  -0.032  -1.158  0.00  0.00    +0.169 HD
ATOM     12  C   UNL     1      -1.672   0.834  -0.638  0.00  0.00    +0.251 A 
ATOM     13  O   UNL     1      -2.328  -0.165  -0.878  0.00  0.00    -0.268 OA
ATOM     14  O   UNL     1       3.919   3.218  -0.588  0.00  0.00    -0.453 OA
ATOM     15  C   UNL     1       4.184   4.391   0.205  0.00  0.00    +0.466 C 
ATOM     16  O   UNL     1       2.943   5.119   0.167  0.00  0.00    -0.453 OA
ENDBRANCH   1   2
BRANCH   1  26
ATOM     17  C   UNL     1      -5.633   0.886   1.210  0.00  0.00    -0.072 C 
ATOM     18  C   UNL     1      -6.027  -0.468   1.801  0.00  0.00    +0.017 C 
ATOM     19  C   UNL     1      -5.084  -0.836   2.918  0.00  0.00    -0.048 A 
ATOM     20  C   UNL     1      -5.466  -1.831   3.805  0.00  0.00    +0.004 A 
ATOM     21  C   UNL     1      -4.630  -2.202   4.839  0.00  0.00    +0.000 A 
ATOM     22  C   UNL     1      -3.406  -1.577   4.992  0.00  0.00    +0.000 A 
ATOM     23  C   UNL     1      -3.027  -0.584   4.112  0.00  0.00    +0.002 A 
ATOM     24  C   UNL     1      -3.866  -0.210   3.072  0.00  0.00    -0.061 A 
ATOM     25  C   UNL     1      -3.409   0.881   2.140  0.00  0.00    -0.041 C 
ATOM     26  N   UNL     1      -4.191   0.837   0.893  0.00  0.00    +0.392 N 
ATOM     27  H   UNL     1      -3.986  -0.039   0.399  0.00  0.00    -0.080 HD
ENDBRANCH   1  26
BRANCH   1  29
ATOM     28  N   UNL     1      -5.283   2.718  -1.933  0.00  0.00    -0.226 N 
ATOM     29  C   UNL     1      -4.502   1.815  -1.312  0.00  0.00    +0.143 A 
ATOM     30  N   UNL     1      -4.442   0.767  -2.097  0.00  0.00    -0.115 NA
ATOM     31  N   UNL     1      -5.155   1.011  -3.142  0.00  0.00    -0.023 NA
ATOM     32  N   UNL     1      -5.662   2.191  -3.047  0.00  0.00    -0.044 NA
BRANCH  28  33
ATOM     33  C   UNL     1      -5.635   4.051  -1.436  0.00  0.00    +0.182 C 
BRANCH  33  37
ATOM     34  C   UNL     1      -2.993   6.948  -3.135  0.00  0.00    +0.120 A 
ATOM     35  C   UNL     1      -4.110   6.527  -3.843  0.00  0.00    +0.046 A 
ATOM     36  C   UNL     1      -4.962   5.590  -3.291  0.00  0.00    +0.009 A 
ATOM     37  C   UNL     1      -4.703   5.073  -2.035  0.00  0.00    -0.026 A 
ATOM     38  C   UNL     1      -3.594   5.495  -1.326  0.00  0.00    +0.009 A 
ATOM     39  C   UNL     1      -2.736   6.428  -1.875  0.00  0.00    +0.046 A 
BRANCH  34  41
ATOM     40  C   UNL     1      -1.023   8.257  -2.891  0.00  0.00    +0.277 C 
ATOM     41  O   UNL     1      -2.153   7.869  -3.676  0.00  0.00    -0.495 OA
ENDBRANCH  34  41
ENDBRANCH  33  37
ENDBRANCH  28  33
ENDBRANCH   1  29
TORSDOF 6
