REMARK  Name = ZINC16435523
REMARK  14 active torsions:
REMARK  status: ('A' for Active; 'I' for Inactive)
REMARK    1  A    between atoms: C_1  and  C_2
REMARK    2  A    between atoms: C_2  and  C_3
REMARK    3  A    between atoms: C_8  and  N_9
REMARK    4  A    between atoms: N_12  and  C_13
REMARK    5  A    between atoms: N_12  and  C_20
REMARK    6  A    between atoms: C_13  and  C_14
REMARK    7  A    between atoms: C_20  and  C_21
REMARK    8  A    between atoms: N_23  and  C_24
REMARK    9  A    between atoms: C_26  and  C_36
REMARK   10  A    between atoms: N_28  and  C_29
REMARK   11  A    between atoms: C_32  and  C_35
REMARK   12  A    between atoms: C_36  and  C_37
REMARK   13  A    between atoms: C_36  and  C_38
REMARK   14  A    between atoms: C_36  and  C_39
REMARK                            x       y       z     vdW  Elec       q    Type
REMARK                         _______ _______ _______ _____ _____    ______ ____
ROOT
ATOM      1  C   UNL     1      -1.502   1.416   0.370  0.00  0.00    +0.205 C 
ENDROOT
BRANCH   1   5
ATOM      2  N   UNL     1      -4.528  -0.370   1.450  0.00  0.00    -0.269 N 
ATOM      3  C   UNL     1      -3.383   0.341   1.486  0.00  0.00    +0.307 C 
ATOM      4  O   UNL     1      -2.976   0.786   2.541  0.00  0.00    -0.252 OA
ATOM      5  N   UNL     1      -2.689   0.557   0.351  0.00  0.00    -0.272 N 
ATOM      6  H   UNL     1      -4.820  -0.779   0.620  0.00  0.00    +0.156 HD
BRANCH   2  12
ATOM      7  C   UNL     1      -6.680  -0.591   2.524  0.00  0.00    -0.026 A 
ATOM      8  C   UNL     1      -7.435  -0.737   3.671  0.00  0.00    +0.005 A 
ATOM      9  C   UNL     1      -6.815  -0.809   4.905  0.00  0.00    +0.000 A 
ATOM     10  C   UNL     1      -5.437  -0.736   4.994  0.00  0.00    +0.002 A 
ATOM     11  C   UNL     1      -4.676  -0.595   3.851  0.00  0.00    +0.023 A 
ATOM     12  C   UNL     1      -5.296  -0.517   2.611  0.00  0.00    +0.038 A 
BRANCH   7  14
ATOM     13  C   UNL     1      -7.384  -1.903   0.541  0.00  0.00    +0.009 C 
ATOM     14  C   UNL     1      -7.357  -0.513   1.180  0.00  0.00    +0.033 C 
ENDBRANCH   7  14
ENDBRANCH   2  12
BRANCH   5  15
ATOM     15  C   UNL     1      -3.121  -0.067  -0.903  0.00  0.00    +0.145 C 
BRANCH  15  16
ATOM     16  C   UNL     1      -2.537  -1.452  -1.002  0.00  0.00    -0.030 A 
ATOM     17  C   UNL     1      -1.284  -1.636  -1.556  0.00  0.00    +0.005 A 
ATOM     18  C   UNL     1      -0.746  -2.907  -1.642  0.00  0.00    +0.000 A 
ATOM     19  C   UNL     1      -1.466  -3.994  -1.184  0.00  0.00    +0.000 A 
ATOM     20  C   UNL     1      -2.721  -3.811  -0.636  0.00  0.00    +0.000 A 
ATOM     21  C   UNL     1      -3.257  -2.540  -0.544  0.00  0.00    +0.005 A 
ENDBRANCH  15  16
ENDBRANCH   5  15
ENDBRANCH   1   5
BRANCH   1  22
ATOM     22  C   UNL     1      -0.282   0.580   0.659  0.00  0.00    +0.236 C 
ATOM     23  O   UNL     1      -0.393  -0.616   0.831  0.00  0.00    -0.274 OA
ATOM     24  N   UNL     1       0.933   1.160   0.720  0.00  0.00    -0.269 N 
ATOM     25  H   UNL     1       1.022   2.116   0.582  0.00  0.00    +0.156 HD
BRANCH  24  26
ATOM     26  C   UNL     1       2.063   0.386   0.982  0.00  0.00    +0.129 A 
ATOM     27  C   UNL     1       2.087  -0.959   1.193  0.00  0.00    +0.069 A 
ATOM     28  C   UNL     1       3.414  -1.335   1.417  0.00  0.00    +0.071 A 
ATOM     29  N   UNL     1       4.166  -0.266   1.345  0.00  0.00    -0.169 NA
ATOM     30  N   UNL     1       3.345   0.834   1.066  0.00  0.00    -0.218 N 
BRANCH  30  31
ATOM     31  C   UNL     1       3.768   2.161   0.906  0.00  0.00    +0.067 A 
ATOM     32  C   UNL     1       3.133   2.988  -0.011  0.00  0.00    +0.028 A 
ATOM     33  C   UNL     1       3.548   4.296  -0.163  0.00  0.00    +0.005 A 
ATOM     34  C   UNL     1       4.603   4.780   0.590  0.00  0.00    -0.050 A 
ATOM     35  C   UNL     1       5.241   3.957   1.500  0.00  0.00    +0.005 A 
ATOM     36  C   UNL     1       4.827   2.649   1.660  0.00  0.00    +0.028 A 
ATOM     37  C   UNL     1       5.058   6.206   0.417  0.00  0.00    +0.044 C 
ENDBRANCH  30  31
BRANCH  28  38
ATOM     38  C   UNL     1       3.898  -2.735   1.694  0.00  0.00    +0.006 C 
ATOM     39  C   UNL     1       3.882  -3.546   0.397  0.00  0.00    +0.017 C 
ATOM     40  C   UNL     1       5.325  -2.681   2.244  0.00  0.00    +0.017 C 
ATOM     41  C   UNL     1       2.979  -3.398   2.722  0.00  0.00    +0.017 C 
ENDBRANCH  28  38
ENDBRANCH  24  26
ENDBRANCH   1  22
TORSDOF 9
