REMARK  Name = ZINC38826818
REMARK  6 active torsions:
REMARK  status: ('A' for Active; 'I' for Inactive)
REMARK    1  A    between atoms: C_1  and  C_2
REMARK    2  A    between atoms: C_3  and  O_16
REMARK    3  A    between atoms: C_4  and  C_8
REMARK    4  A    between atoms: C_11  and  O_15
REMARK    5  A    between atoms: C_13  and  O_14
REMARK    6  A    between atoms: O_16  and  C_17
REMARK                            x       y       z     vdW  Elec       q    Type
REMARK                         _______ _______ _______ _____ _____    ______ ____
ROOT
ATOM      1  C   UNL     1      -0.016   1.484  -0.107  0.00  0.00    +0.071 C 
ATOM      2  C   UNL     1      -0.000  -0.022  -0.051  0.00  0.00    +0.098 C 
ATOM      3  C   UNL     1      -1.095  -0.795   0.096  0.00  0.00    +0.156 C 
ATOM      4  C   UNL     1      -0.540  -2.209   0.089  0.00  0.00    +0.200 C 
ATOM      5  N   UNL     1       0.908  -1.991  -0.075  0.00  0.00    -0.294 N 
ATOM      6  N   UNL     1       1.101  -0.775  -0.147  0.00  0.00    -0.179 NA
ATOM      7  H   UNL     1       1.588  -2.681  -0.123  0.00  0.00    +0.184 HD
ENDROOT
BRANCH   4   8
ATOM      8  C   UNL     1      -1.099  -2.997  -1.067  0.00  0.00    +0.025 A 
ATOM      9  C   UNL     1      -0.346  -3.173  -2.212  0.00  0.00    +0.013 A 
ATOM     10  C   UNL     1      -0.856  -3.894  -3.274  0.00  0.00    +0.046 A 
ATOM     11  C   UNL     1      -2.127  -4.445  -3.193  0.00  0.00    +0.120 A 
ATOM     12  C   UNL     1      -2.885  -4.271  -2.045  0.00  0.00    +0.091 A 
ATOM     13  C   UNL     1      -2.369  -3.550  -0.979  0.00  0.00    +0.126 A 
BRANCH  13  14
ATOM     14  O   UNL     1      -3.107  -3.383   0.150  0.00  0.00    -0.506 OA
ATOM     15  H   UNL     1      -3.667  -2.594   0.140  0.00  0.00    +0.292 HD
ENDBRANCH  13  14
BRANCH  11  16
ATOM     16  O   UNL     1      -2.629  -5.155  -4.237  0.00  0.00    -0.507 OA
ATOM     17  H   UNL     1      -2.432  -6.101  -4.201  0.00  0.00    +0.292 HD
ENDBRANCH  11  16
ENDBRANCH   4   8
BRANCH   3  18
ATOM     18  O   UNL     1      -2.382  -0.405   0.221  0.00  0.00    -0.456 OA
BRANCH  18  19
ATOM     19  C   UNL     1      -3.003  -0.624   1.410  0.00  0.00    +0.128 A 
ATOM     20  C   UNL     1      -2.284  -1.122   2.487  0.00  0.00    +0.047 A 
ATOM     21  C   UNL     1      -2.917  -1.344   3.695  0.00  0.00    +0.019 A 
ATOM     22  C   UNL     1      -4.267  -1.071   3.830  0.00  0.00    +0.018 A 
ATOM     23  C   UNL     1      -4.985  -0.575   2.757  0.00  0.00    +0.019 A 
ATOM     24  C   UNL     1      -4.355  -0.345   1.549  0.00  0.00    +0.047 A 
ATOM     25 BR   UNL     1      -5.131  -1.376   5.484  0.00  0.00    -0.050 Br
ENDBRANCH  18  19
ENDBRANCH   3  18
TORSDOF 5
