REMARK  Name = ZINC45800665
REMARK  5 active torsions:
REMARK  status: ('A' for Active; 'I' for Inactive)
REMARK    1  A    between atoms: C_1  and  C_2
REMARK    2  A    between atoms: N_11  and  C_15
REMARK    3  A    between atoms: C_15  and  C_16
REMARK    4  A    between atoms: C_22  and  C_24
REMARK    5  A    between atoms: C_24  and  C_25
REMARK                            x       y       z     vdW  Elec       q    Type
REMARK                         _______ _______ _______ _____ _____    ______ ____
ROOT
ATOM      1  C   UNL     1       1.267   0.606   5.501  0.00  0.00    +0.237 C 
ATOM      2  O   UNL     1       1.635  -0.530   5.291  0.00  0.00    -0.274 OA
ATOM      3  N   UNL     1       1.182   1.065   6.765  0.00  0.00    -0.263 N 
ATOM      4  C   UNL     1       1.517   0.236   7.829  0.00  0.00    +0.165 A 
ATOM      5  N   UNL     1       1.937  -1.010   7.794  0.00  0.00    -0.233 NA
ATOM      6  C   UNL     1       2.215  -1.668   8.904  0.00  0.00    +0.124 A 
ATOM      7  C   UNL     1       2.049  -1.002  10.073  0.00  0.00    +0.015 A 
ATOM      8  S   UNL     1       1.490   0.585   9.476  0.00  0.00    -0.057 S 
ATOM      9  H   UNL     1       0.888   1.974   6.933  0.00  0.00    +0.157 HD
ENDROOT
BRANCH   1  10
ATOM     10  C   UNL     1       0.904   1.505   4.347  0.00  0.00    +0.214 C 
BRANCH  10  20
ATOM     11  C   UNL     1      -0.019   1.526   0.010  0.00  0.00    +0.010 C 
ATOM     12  C   UNL     1       0.002  -0.004   0.002  0.00  0.00    +0.018 C 
ATOM     13  C   UNL     1      -1.434  -0.533   0.012  0.00  0.00    +0.006 C 
ATOM     14  C   UNL     1      -1.413  -2.063   0.024  0.00  0.00    +0.000 C 
ATOM     15  C   UNL     1      -0.690  -2.554   1.280  0.00  0.00    +0.003 C 
ATOM     16  C   UNL     1       0.749  -2.033   1.276  0.00  0.00    +0.035 C 
ATOM     17  C   UNL     1       0.741  -0.509   1.237  0.00  0.00    +0.115 C 
ATOM     18  C   UNL     1       0.111   0.049   2.493  0.00  0.00    +0.247 C 
ATOM     19  O   UNL     1      -1.023  -0.123   2.884  0.00  0.00    -0.273 OA
ATOM     20  N   UNL     1       1.078   0.778   3.087  0.00  0.00    -0.215 N 
ATOM     21  C   UNL     1       2.217   0.755   2.383  0.00  0.00    +0.310 C 
ATOM     22  O   UNL     1       3.230   1.337   2.717  0.00  0.00    -0.252 OA
ATOM     23  N   UNL     1       2.113   0.013   1.264  0.00  0.00    -0.285 N 
ATOM     24  H   UNL     1       2.808  -0.145   0.606  0.00  0.00    +0.151 HD
ENDBRANCH  10  20
ENDBRANCH   1  10
BRANCH   7  25
ATOM     25  C   UNL     1       2.278  -1.471  11.487  0.00  0.00    +0.080 C 
BRANCH  25  26
ATOM     26  C   UNL     1       3.699  -1.173  11.891  0.00  0.00    -0.023 A 
ATOM     27  C   UNL     1       4.674  -2.143  11.756  0.00  0.00    +0.005 A 
ATOM     28  C   UNL     1       5.978  -1.871  12.126  0.00  0.00    +0.002 A 
ATOM     29  C   UNL     1       6.308  -0.627  12.632  0.00  0.00    +0.021 A 
ATOM     30  C   UNL     1       5.334   0.345  12.768  0.00  0.00    +0.060 A 
ATOM     31  C   UNL     1       4.029   0.074  12.391  0.00  0.00    +0.063 A 
ATOM     32 CL   UNL     1       2.806   1.296  12.553  0.00  0.00    -0.082 Cl
ATOM     33 CL   UNL     1       5.748   1.907  13.403  0.00  0.00    -0.082 Cl
ENDBRANCH  25  26
ENDBRANCH   7  25
TORSDOF 4
