REMARK  Name = ZINC53631718
REMARK  9 active torsions:
REMARK  status: ('A' for Active; 'I' for Inactive)
REMARK    1  A    between atoms: C_1  and  C_2
REMARK    2  A    between atoms: C_2  and  N_28
REMARK    3  A    between atoms: C_4  and  C_19
REMARK    4  A    between atoms: N_6  and  C_9
REMARK    5  A    between atoms: C_19  and  S_20
REMARK    6  A    between atoms: S_20  and  C_21
REMARK    7  A    between atoms: N_28  and  C_29
REMARK    8  A    between atoms: C_29  and  C_30
REMARK    9  A    between atoms: C_30  and  C_31
REMARK                            x       y       z     vdW  Elec       q    Type
REMARK                         _______ _______ _______ _____ _____    ______ ____
ROOT
ATOM      1  C   UNL     1      -0.022   1.501   0.009  0.00  0.00    +0.061 C 
ATOM      2  C   UNL     1      -0.018  -0.006   0.003  0.00  0.00    +0.015 C 
ATOM      3  C   UNL     1       0.118  -0.702   1.192  0.00  0.00    +0.079 C 
ATOM      4  C   UNL     1       0.144  -0.151   2.555  0.00  0.00    +0.083 C 
ATOM      5  N   UNL     1       0.286  -1.144   3.377  0.00  0.00    -0.178 NA
ATOM      6  N   UNL     1       0.364  -2.359   2.696  0.00  0.00    -0.158 N 
ATOM      7  C   UNL     1       0.261  -2.153   1.368  0.00  0.00    +0.272 C 
ATOM      8  O   UNL     1       0.285  -2.999   0.490  0.00  0.00    -0.268 OA
ENDROOT
BRANCH   6   9
ATOM      9  C   UNL     1       0.526  -3.668   3.332  0.00  0.00    +0.249 C 
ATOM     10  N   UNL     1       1.729  -3.702   4.175  0.00  0.00    -0.315 N 
ATOM     11  C   UNL     1       1.554  -3.925   5.540  0.00  0.00    +0.043 A 
ATOM     12  C   UNL     1       2.582  -3.990   6.497  0.00  0.00    +0.024 A 
ATOM     13  C   UNL     1       2.306  -4.216   7.825  0.00  0.00    +0.002 A 
ATOM     14  C   UNL     1       1.006  -4.387   8.265  0.00  0.00    +0.001 A 
ATOM     15  C   UNL     1      -0.027  -4.328   7.345  0.00  0.00    +0.016 A 
ATOM     16  C   UNL     1       0.251  -4.102   6.016  0.00  0.00    +0.032 A 
ATOM     17  S   UNL     1      -0.791  -3.966   4.579  0.00  0.00    -0.080 S 
ATOM     18  H   UNL     1       2.612  -3.573   3.796  0.00  0.00    +0.149 HD
ENDBRANCH   6   9
BRANCH   2  19
ATOM     19  N   UNL     1      -0.146  -0.676  -1.160  0.00  0.00    -0.346 N 
ATOM     20  H   UNL     1      -0.143  -1.646  -1.163  0.00  0.00    +0.146 HD
BRANCH  19  21
ATOM     21  C   UNL     1      -0.290   0.060  -2.418  0.00  0.00    +0.107 C 
BRANCH  21  22
ATOM     22  C   UNL     1      -0.416  -0.930  -3.577  0.00  0.00    +0.073 C 
BRANCH  22  23
ATOM     23  C   UNL     1      -0.564  -0.172  -4.872  0.00  0.00    +0.035 A 
ATOM     24  H   UNL     1       0.335   1.371  -7.429  0.00  0.00    +0.166 HD
ATOM     25  C   UNL     1       0.442   0.311  -5.625  0.00  0.00    +0.105 A 
ATOM     26  N   UNL     1      -0.132   0.925  -6.705  0.00  0.00    -0.352 N 
ATOM     27  C   UNL     1      -1.470   0.795  -6.574  0.00  0.00    +0.171 A 
ATOM     28  N   UNL     1      -1.721   0.133  -5.478  0.00  0.00    -0.350 N 
ATOM     29  H   UNL     1      -2.604  -0.099  -5.152  0.00  0.00    +0.166 HD
ENDBRANCH  22  23
ENDBRANCH  21  22
ENDBRANCH  19  21
ENDBRANCH   2  19
BRANCH   4  30
ATOM     30  C   UNL     1       0.026   1.304   2.929  0.00  0.00    +0.132 C 
BRANCH  30  31
ATOM     31  S   UNL     1       0.248   1.488   4.720  0.00  0.00    -0.119 S 
BRANCH  31  32
ATOM     32  C   UNL     1       0.085   3.221   4.994  0.00  0.00    +0.008 A 
ATOM     33  C   UNL     1      -0.164   4.075   3.926  0.00  0.00    +0.016 A 
ATOM     34  C   UNL     1      -0.292   5.432   4.144  0.00  0.00    +0.021 A 
ATOM     35  C   UNL     1      -0.171   5.943   5.425  0.00  0.00    +0.041 A 
ATOM     36  C   UNL     1       0.077   5.096   6.490  0.00  0.00    +0.021 A 
ATOM     37  C   UNL     1       0.200   3.737   6.279  0.00  0.00    +0.016 A 
ATOM     38 CL   UNL     1      -0.331   7.651   5.694  0.00  0.00    -0.084 Cl
ENDBRANCH  31  32
ENDBRANCH  30  31
ENDBRANCH   4  30
TORSDOF 8
