REMARK  Name = ZINC39683447
REMARK  8 active torsions:
REMARK  status: ('A' for Active; 'I' for Inactive)
REMARK    1  A    between atoms: C_1  and  C_2
REMARK    2  A    between atoms: C_2  and  C_3
REMARK    3  A    between atoms: C_3  and  C_4
REMARK    4  A    between atoms: C_4  and  N_5
REMARK    5  A    between atoms: C_8  and  C_11
REMARK    6  A    between atoms: C_11  and  N_12
REMARK    7  A    between atoms: C_13  and  C_15
REMARK    8  A    between atoms: C_26  and  C_28
REMARK                            x       y       z     vdW  Elec       q    Type
REMARK                         _______ _______ _______ _____ _____    ______ ____
ROOT
ATOM      1  C   UNL     1       2.967  -7.771   7.549  0.00  0.00    +0.100 C 
ATOM      2  C   UNL     1       1.688  -8.632   7.637  0.00  0.00    +0.121 C 
ATOM      3  N   UNL     1       2.076  -9.795   8.470  0.00  0.00    -0.296 N 
ATOM      4  C   UNL     1       2.948  -9.220   9.522  0.00  0.00    +0.115 C 
ATOM      5  C   UNL     1       3.791  -8.159   8.788  0.00  0.00    -0.004 C 
ATOM      6  C   UNL     1       5.133  -8.751   8.366  0.00  0.00    -0.010 C 
ATOM      7  C   UNL     1       5.957  -9.076   9.615  0.00  0.00    -0.082 C 
ATOM      8  N   UNL     1       6.164  -7.853  10.399  0.00  0.00    +0.379 N 
ATOM      9  C   UNL     1       4.874  -7.341  10.879  0.00  0.00    -0.082 C 
ATOM     10  C   UNL     1       4.004  -6.943   9.684  0.00  0.00    -0.010 C 
ATOM     11  C   UNL     1       1.718 -11.084   8.307  0.00  0.00    +0.247 C 
ATOM     12  O   UNL     1       1.098 -11.422   7.318  0.00  0.00    -0.270 OA
ATOM     13  H   UNL     1       6.758  -8.058  11.189  0.00  0.00    -0.086 HD
ATOM     14  H   UNL     1       6.607  -7.155   9.821  0.00  0.00    -0.086 HD
ENDROOT
BRANCH  11  15
ATOM     15  C   UNL     1       2.078 -12.086   9.333  0.00  0.00    +0.040 A 
ATOM     16  C   UNL     1       2.387 -11.680  10.632  0.00  0.00    +0.033 A 
ATOM     17  C   UNL     1       2.723 -12.621  11.585  0.00  0.00    +0.043 A 
ATOM     18  C   UNL     1       2.753 -13.965  11.254  0.00  0.00    +0.040 A 
ATOM     19  C   UNL     1       2.447 -14.374   9.967  0.00  0.00    +0.043 A 
ATOM     20  C   UNL     1       2.104 -13.443   9.007  0.00  0.00    +0.033 A 
ATOM     21 CL   UNL     1       2.489 -16.062   9.562  0.00  0.00    -0.083 Cl
ATOM     22 CL   UNL     1       3.108 -12.117  13.201  0.00  0.00    -0.083 Cl
ENDBRANCH  11  15
BRANCH   1  24
ATOM     23  N   UNL     1       3.396  -5.408   6.954  0.00  0.00    -0.315 N 
ATOM     24  C   UNL     1       2.617  -6.305   7.590  0.00  0.00    +0.218 C 
ATOM     25  O   UNL     1       1.634  -5.933   8.195  0.00  0.00    -0.275 OA
ATOM     26  H   UNL     1       4.183  -5.706   6.470  0.00  0.00    +0.149 HD
BRANCH  23  27
ATOM     27  C   UNL     1       3.056  -3.984   6.993  0.00  0.00    +0.107 C 
BRANCH  27  31
ATOM     28  N   UNL     1       6.025  -1.031   6.132  0.00  0.00    +0.380 N 
ATOM     29  C   UNL     1       4.754  -0.915   5.407  0.00  0.00    -0.079 C 
ATOM     30  C   UNL     1       3.673  -1.718   6.134  0.00  0.00    -0.014 C 
ATOM     31  C   UNL     1       4.094  -3.189   6.198  0.00  0.00    +0.003 C 
ATOM     32  C   UNL     1       5.456  -3.290   6.891  0.00  0.00    -0.014 C 
ATOM     33  C   UNL     1       6.471  -2.429   6.136  0.00  0.00    -0.079 C 
ATOM     34  H   UNL     1       5.897  -0.717   7.082  0.00  0.00    -0.082 HD
BRANCH  28  35
ATOM     35  C   UNL     1       7.040  -0.197   5.474  0.00  0.00    -0.079 C 
BRANCH  35  36
ATOM     36  C   UNL     1       6.636   1.275   5.579  0.00  0.00    -0.019 C 
BRANCH  36  38
ATOM     37  C   UNL     1       7.289   3.616   4.999  0.00  0.00    +0.004 C 
ATOM     38  C   UNL     1       7.693   2.144   4.894  0.00  0.00    -0.005 C 
ENDBRANCH  36  38
ENDBRANCH  35  36
ENDBRANCH  28  35
ENDBRANCH  27  31
ENDBRANCH  23  27
ENDBRANCH   1  24
TORSDOF 7
