REMARK  Name = ZINC40175266
REMARK  8 active torsions:
REMARK  status: ('A' for Active; 'I' for Inactive)
REMARK    1  A    between atoms: C_1  and  C_2
REMARK    2  A    between atoms: N_6  and  C_19
REMARK    3  A    between atoms: C_9  and  C_18
REMARK    4  A    between atoms: N_11  and  C_12
REMARK    5  A    between atoms: C_19  and  C_20
REMARK    6  A    between atoms: C_20  and  C_21
REMARK    7  A    between atoms: N_23  and  C_24
REMARK    8  A    between atoms: C_25  and  C_33
REMARK                            x       y       z     vdW  Elec       q    Type
REMARK                         _______ _______ _______ _____ _____    ______ ____
ROOT
ATOM      1  C   UNL     1       1.842  -4.009   0.918  0.00  0.00    +0.136 C 
ENDROOT
BRANCH   1   7
ATOM      2  C   UNL     1       0.660   1.589   0.366  0.00  0.00    +0.045 C 
ATOM      3  C   UNL     1       0.967   0.121   0.515  0.00  0.00    -0.033 A 
ATOM      4  C   UNL     1       1.678  -0.533  -0.441  0.00  0.00    +0.074 A 
ATOM      5  C   UNL     1       1.960  -1.904  -0.292  0.00  0.00    +0.253 A 
ATOM      6  O   UNL     1       2.599  -2.484  -1.155  0.00  0.00    -0.268 OA
ATOM      7  N   UNL     1       1.534  -2.583   0.789  0.00  0.00    -0.292 N 
ATOM      8  C   UNL     1       0.816  -1.952   1.769  0.00  0.00    +0.147 A 
ATOM      9  C   UNL     1       0.525  -0.591   1.653  0.00  0.00    +0.043 A 
ATOM     10  C   UNL     1      -0.212  -0.224   2.804  0.00  0.00    +0.070 A 
ATOM     11  N   UNL     1      -0.349  -1.280   3.556  0.00  0.00    -0.169 NA
ATOM     12  N   UNL     1       0.271  -2.374   2.940  0.00  0.00    -0.215 N 
ATOM     13  C   UNL     1      -0.746   1.152   3.108  0.00  0.00    +0.068 C 
BRANCH  12  14
ATOM     14  C   UNL     1       0.331  -3.677   3.451  0.00  0.00    +0.068 A 
ATOM     15  C   UNL     1       1.129  -3.957   4.552  0.00  0.00    +0.028 A 
ATOM     16  C   UNL     1       1.186  -5.242   5.053  0.00  0.00    +0.002 A 
ATOM     17  C   UNL     1       0.450  -6.251   4.460  0.00  0.00    +0.000 A 
ATOM     18  C   UNL     1      -0.346  -5.976   3.362  0.00  0.00    +0.002 A 
ATOM     19  C   UNL     1      -0.412  -4.691   2.861  0.00  0.00    +0.028 A 
ENDBRANCH  12  14
ENDBRANCH   1   7
BRANCH   1  20
ATOM     20  C   UNL     1       3.101  -4.185   1.769  0.00  0.00    +0.118 C 
BRANCH  20  21
ATOM     21  C   UNL     1       3.418  -5.652   1.902  0.00  0.00    +0.219 C 
ATOM     22  O   UNL     1       2.706  -6.476   1.369  0.00  0.00    -0.275 OA
ATOM     23  N   UNL     1       4.492  -6.048   2.613  0.00  0.00    -0.279 N 
ATOM     24  H   UNL     1       5.061  -5.389   3.040  0.00  0.00    +0.155 HD
BRANCH  23  25
ATOM     25  C   UNL     1       4.783  -7.398   2.736  0.00  0.00    +0.084 A 
ATOM     26  C   UNL     1       5.832  -7.985   3.426  0.00  0.00    +0.068 A 
ATOM     27  C   UNL     1       5.916  -9.434   3.399  0.00  0.00    -0.023 A 
ATOM     28  C   UNL     1       4.937 -10.032   2.687  0.00  0.00    -0.004 A 
ATOM     29  S   UNL     1       3.941  -8.699   2.087  0.00  0.00    -0.077 S 
ATOM     30  C   UNL     1       4.751 -11.502   2.470  0.00  0.00    +0.043 C 
ATOM     31  C   UNL     1       6.053 -12.216   2.863  0.00  0.00    +0.005 C 
ATOM     32  C   UNL     1       6.511 -11.695   4.228  0.00  0.00    +0.005 C 
ATOM     33  C   UNL     1       6.995 -10.249   4.098  0.00  0.00    +0.037 C 
BRANCH  26  34
ATOM     34  C   UNL     1       6.816  -7.176   4.152  0.00  0.00    +0.244 C 
ATOM     35  O   UNL     1       6.626  -6.890   5.320  0.00  0.00    -0.270 OA
ATOM     36  N   UNL     1       7.930  -6.747   3.526  0.00  0.00    -0.325 N 
ATOM     37  H   UNL     1       8.081  -6.975   2.595  0.00  0.00    +0.145 HD
ATOM     38  H   UNL     1       8.581  -6.212   4.007  0.00  0.00    +0.145 HD
ENDBRANCH  26  34
ENDBRANCH  23  25
ENDBRANCH  20  21
ENDBRANCH   1  20
TORSDOF 6
