REMARK  Name = ZINC13048979
REMARK  10 active torsions:
REMARK  status: ('A' for Active; 'I' for Inactive)
REMARK    1  A    between atoms: C_1  and  C_2
REMARK    2  A    between atoms: C_2  and  C_4
REMARK    3  A    between atoms: C_2  and  N_19
REMARK    4  A    between atoms: N_6  and  C_7
REMARK    5  A    between atoms: C_12  and  C_13
REMARK    6  A    between atoms: C_12  and  N_59
REMARK    7  A    between atoms: N_19  and  S_20
REMARK    8  A    between atoms: S_20  and  C_23
REMARK    9  A    between atoms: C_26  and  N_29
REMARK   10  A    between atoms: C_30  and  C_32
REMARK                            x       y       z     vdW  Elec       q    Type
REMARK                         _______ _______ _______ _____ _____    ______ ____
ROOT
ATOM      1  C   UNL     1       6.726   1.528  -0.738  0.00  0.00    +0.035 C 
ATOM      2  C   UNL     1       6.024   0.203  -1.042  0.00  0.00    +0.159 C 
ENDROOT
BRANCH   2   3
ATOM      3  C   UNL     1       4.537   0.433  -1.136  0.00  0.00    +0.232 C 
ATOM      4  O   UNL     1       3.948   0.176  -2.165  0.00  0.00    -0.274 OA
ATOM      5  N   UNL     1       3.863   0.924  -0.078  0.00  0.00    -0.313 N 
ATOM      6  H   UNL     1       4.334   1.129   0.745  0.00  0.00    +0.149 HD
BRANCH   5   7
ATOM      7  C   UNL     1       2.418   1.147  -0.170  0.00  0.00    +0.055 C 
ATOM      8  C   UNL     1       1.641  -0.142   0.183  0.00  0.00    +0.002 C 
ATOM      9  C   UNL     1       0.430   0.331   1.008  0.00  0.00    -0.077 C 
ATOM     10  C   UNL     1       1.943   2.146   0.916  0.00  0.00    -0.056 C 
ATOM     11  N   UNL     1       0.524   1.791   1.070  0.00  0.00    +0.384 N 
ATOM     12  H   UNL     1      -0.022   2.206   0.306  0.00  0.00    -0.081 HD
BRANCH  11  13
ATOM     13  C   UNL     1       0.000   2.293   2.376  0.00  0.00    -0.043 C 
BRANCH  13  14
ATOM     14  C   UNL     1       0.961   1.908   3.471  0.00  0.00    -0.064 A 
ATOM     15  C   UNL     1       0.808   0.704   4.133  0.00  0.00    +0.002 A 
ATOM     16  C   UNL     1       1.692   0.348   5.135  0.00  0.00    +0.000 A 
ATOM     17  C   UNL     1       2.723   1.201   5.480  0.00  0.00    +0.000 A 
ATOM     18  C   UNL     1       2.874   2.407   4.821  0.00  0.00    +0.000 A 
ATOM     19  C   UNL     1       1.992   2.760   3.817  0.00  0.00    +0.002 A 
ENDBRANCH  13  14
ENDBRANCH  11  13
ENDBRANCH   5   7
ENDBRANCH   2   3
BRANCH   2  20
ATOM     20  N   UNL     1       6.517  -0.331  -2.313  0.00  0.00    -0.178 NA
ATOM     21  H   UNL     1       6.122  -0.037  -3.149  0.00  0.00    +0.149 HD
BRANCH  20  22
ATOM     22  S   UNL     1       7.750  -1.437  -2.325  0.00  0.00    +0.059 S 
ATOM     23  O   UNL     1       7.979  -1.777  -3.685  0.00  0.00    -0.153 OA
ATOM     24  O   UNL     1       8.772  -0.915  -1.487  0.00  0.00    -0.153 OA
BRANCH  22  25
ATOM     25  C   UNL     1       7.149  -2.894  -1.536  0.00  0.00    +0.105 A 
ATOM     26  C   UNL     1       7.301  -3.053  -0.171  0.00  0.00    +0.030 A 
ATOM     27  C   UNL     1       6.827  -4.191   0.451  0.00  0.00    +0.025 A 
ATOM     28  C   UNL     1       6.207  -5.183  -0.299  0.00  0.00    +0.033 A 
ATOM     29  C   UNL     1       6.061  -5.023  -1.670  0.00  0.00    +0.025 A 
ATOM     30  C   UNL     1       6.532  -3.880  -2.285  0.00  0.00    +0.030 A 
BRANCH  28  31
ATOM     31  N   UNL     1       5.731  -6.340   0.327  0.00  0.00    -0.286 N 
ATOM     32  C   UNL     1       5.758  -7.519  -0.326  0.00  0.00    +0.214 C 
ATOM     33  O   UNL     1       6.281  -7.596  -1.417  0.00  0.00    -0.276 OA
ATOM     34  C   UNL     1       5.138  -8.741   0.300  0.00  0.00    +0.109 C 
ATOM     35  H   UNL     1       5.382  -6.294   1.231  0.00  0.00    +0.155 HD
ENDBRANCH  28  31
ENDBRANCH  22  25
ENDBRANCH  20  22
ENDBRANCH   2  20
TORSDOF 8
