REMARK  Name = ZINC09471842
REMARK  6 active torsions:
REMARK  status: ('A' for Active; 'I' for Inactive)
REMARK    1  A    between atoms: C_1  and  C_2
REMARK    2  A    between atoms: C_5  and  S_8
REMARK    3  A    between atoms: S_8  and  N_11
REMARK    4  A    between atoms: N_11  and  C_12
REMARK    5  A    between atoms: C_17  and  C_18
REMARK    6  A    between atoms: C_24  and  C_26
REMARK                            x       y       z     vdW  Elec       q    Type
REMARK                         _______ _______ _______ _____ _____    ______ ____
ROOT
ATOM      1  C   UNL     1      -3.574   1.565   0.201  0.00  0.00    +0.060 A 
ATOM      2  C   UNL     1      -4.702   0.756   0.268  0.00  0.00    +0.025 A 
ATOM      3  C   UNL     1      -4.565  -0.608   0.426  0.00  0.00    +0.002 A 
ATOM      4  C   UNL     1      -3.307  -1.182   0.515  0.00  0.00    +0.001 A 
ATOM      5  C   UNL     1      -2.177  -0.396   0.447  0.00  0.00    +0.015 A 
ATOM      6  C   UNL     1      -2.298   0.987   0.286  0.00  0.00    +0.059 A 
ENDROOT
BRANCH   6   7
ATOM      7  C   UNL     1      -1.094   1.833   0.213  0.00  0.00    +0.253 C 
ATOM      8  O   UNL     1      -1.204   3.036   0.073  0.00  0.00    -0.270 OA
ATOM      9  N   UNL     1       0.129   1.274   0.301  0.00  0.00    -0.234 N 
ATOM     10  C   UNL     1       1.261   2.068   0.226  0.00  0.00    +0.315 A 
ATOM     11  N   UNL     1       1.286   3.370   0.071  0.00  0.00    -0.092 NA
ATOM     12  N   UNL     1       2.506   3.776   0.049  0.00  0.00    -0.106 NA
ATOM     13  C   UNL     1       3.309   2.747   0.178  0.00  0.00    +0.251 A 
ATOM     14  O   UNL     1       2.537   1.645   0.294  0.00  0.00    -0.405 OA
ATOM     15  H   UNL     1       0.217   0.314   0.412  0.00  0.00    +0.160 HD
BRANCH  13  16
ATOM     16  C   UNL     1       4.786   2.786   0.196  0.00  0.00    +0.057 A 
ATOM     17  C   UNL     1       5.517   1.607   0.349  0.00  0.00    +0.015 A 
ATOM     18  C   UNL     1       6.896   1.650   0.360  0.00  0.00    +0.001 A 
ATOM     19  C   UNL     1       7.555   2.860   0.230  0.00  0.00    +0.001 A 
ATOM     20  C   UNL     1       6.838   4.033   0.084  0.00  0.00    +0.021 A 
ATOM     21  C   UNL     1       5.457   4.004   0.066  0.00  0.00    +0.053 A 
ATOM     22 CL   UNL     1       4.558   5.478  -0.117  0.00  0.00    -0.083 Cl
ENDBRANCH  13  16
ENDBRANCH   6   7
BRANCH   1  23
ATOM     23  N   UNL     1      -3.709   2.939   0.047  0.00  0.00    -0.216 N 
ATOM     24  H   UNL     1      -3.068   3.432  -0.488  0.00  0.00    +0.174 HD
BRANCH  23  25
ATOM     25  S   UNL     1      -4.965   3.734   0.777  0.00  0.00    +0.072 S 
ATOM     26  O   UNL     1      -4.756   5.121   0.546  0.00  0.00    -0.150 OA
ATOM     27  O   UNL     1      -6.155   3.067   0.380  0.00  0.00    -0.150 OA
BRANCH  25  32
ATOM     28  C   UNL     1      -4.409   2.873   6.723  0.00  0.00    +0.044 C 
ATOM     29  C   UNL     1      -4.548   3.088   5.238  0.00  0.00    -0.050 A 
ATOM     30  C   UNL     1      -3.939   4.174   4.637  0.00  0.00    +0.005 A 
ATOM     31  C   UNL     1      -4.066   4.371   3.275  0.00  0.00    +0.029 A 
ATOM     32  C   UNL     1      -4.802   3.483   2.513  0.00  0.00    +0.109 A 
ATOM     33  C   UNL     1      -5.415   2.400   3.115  0.00  0.00    +0.029 A 
ATOM     34  C   UNL     1      -5.284   2.200   4.477  0.00  0.00    +0.005 A 
ENDBRANCH  25  32
ENDBRANCH  23  25
ENDBRANCH   1  23
TORSDOF 5
