REMARK  Name = ZINC63367587
REMARK  7 active torsions:
REMARK  status: ('A' for Active; 'I' for Inactive)
REMARK    1  A    between atoms: C_7  and  C_10
REMARK    2  A    between atoms: C_10  and  C_11
REMARK    3  A    between atoms: C_11  and  N_12
REMARK    4  A    between atoms: C_15  and  C_20
REMARK    5  A    between atoms: C_20  and  C_21
REMARK    6  A    between atoms: C_21  and  C_22
REMARK    7  A    between atoms: N_24  and  C_25
REMARK                            x       y       z     vdW  Elec       q    Type
REMARK                         _______ _______ _______ _____ _____    ______ ____
ROOT
ATOM      1  N   UNL     1      -0.458  -4.798  -1.460  0.00  0.00    -0.224 N 
ATOM      2  C   UNL     1      -0.063  -6.083  -1.369  0.00  0.00    +0.243 C 
ATOM      3  O   UNL     1       1.074  -6.495  -1.277  0.00  0.00    -0.273 OA
ATOM      4  C   UNL     1      -1.335  -6.907  -1.406  0.00  0.00    +0.161 C 
ATOM      5  N   UNL     1      -2.399  -5.895  -1.524  0.00  0.00    -0.288 N 
ATOM      6  C   UNL     1      -1.790  -4.696  -1.543  0.00  0.00    +0.309 C 
ATOM      7  O   UNL     1      -2.382  -3.638  -1.629  0.00  0.00    -0.252 OA
ATOM      8  H   UNL     1      -3.353  -6.061  -1.575  0.00  0.00    +0.151 HD
ENDROOT
BRANCH   1   9
ATOM      9  C   UNL     1       0.457  -3.653  -1.462  0.00  0.00    +0.122 C 
BRANCH   9  10
ATOM     10  C   UNL     1       0.691  -3.186  -0.024  0.00  0.00    +0.052 C 
BRANCH  10  17
ATOM     11  C   UNL     1      -0.016   1.348   0.009  0.00  0.00    +0.001 A 
ATOM     12  C   UNL     1       1.166   2.101   0.002  0.00  0.00    +0.002 A 
ATOM     13  C   UNL     1       2.391   1.535  -0.013  0.00  0.00    +0.026 A 
ATOM     14  C   UNL     1       2.529   0.120  -0.022  0.00  0.00    +0.043 A 
ATOM     15  N   UNL     1       3.587  -0.654  -0.037  0.00  0.00    -0.380 N 
ATOM     16  C   UNL     1       3.143  -2.053  -0.041  0.00  0.00    +0.144 C 
ATOM     17  C   UNL     1       1.631  -2.008  -0.025  0.00  0.00    -0.040 C 
ATOM     18  C   UNL     1       1.295  -0.698  -0.014  0.00  0.00    -0.001 A 
ATOM     19  C   UNL     1       0.002  -0.004   0.002  0.00  0.00    +0.010 A 
ATOM     20  H   UNL     1       4.509  -0.353  -0.045  0.00  0.00    +0.160 HD
ENDBRANCH  10  17
ENDBRANCH   9  10
ENDBRANCH   1   9
BRANCH   4  21
ATOM     21  C   UNL     1      -1.338  -7.839  -2.618  0.00  0.00    +0.041 C 
BRANCH  21  22
ATOM     22  C   UNL     1      -2.570  -8.745  -2.563  0.00  0.00    +0.098 C 
BRANCH  22  23
ATOM     23  C   UNL     1      -2.573  -9.663  -3.757  0.00  0.00    +0.213 C 
ATOM     24  O   UNL     1      -1.677  -9.601  -4.573  0.00  0.00    -0.276 OA
ATOM     25  N   UNL     1      -3.571 -10.555  -3.919  0.00  0.00    -0.312 N 
ATOM     26  H   UNL     1      -4.287 -10.605  -3.267  0.00  0.00    +0.149 HD
BRANCH  25  27
ATOM     27  C   UNL     1      -3.573 -11.448  -5.080  0.00  0.00    +0.073 C 
ATOM     28  C   UNL     1      -2.718 -12.680  -4.778  0.00  0.00    +0.022 C 
ATOM     29  C   UNL     1      -3.029 -13.779  -5.796  0.00  0.00    +0.002 C 
ATOM     30  C   UNL     1      -2.360 -13.443  -7.130  0.00  0.00    +0.000 C 
ATOM     31  C   UNL     1      -3.154 -12.342  -7.835  0.00  0.00    +0.000 C 
ATOM     32  C   UNL     1      -4.650 -12.647  -7.736  0.00  0.00    +0.000 C 
ATOM     33  C   UNL     1      -5.328 -11.598  -6.853  0.00  0.00    +0.002 C 
ATOM     34  C   UNL     1      -5.008 -11.885  -5.384  0.00  0.00    +0.022 C 
ENDBRANCH  25  27
ENDBRANCH  22  23
ENDBRANCH  21  22
ENDBRANCH   4  21
TORSDOF 7
