REMARK  Name = ZINC16590221
REMARK  7 active torsions:
REMARK  status: ('A' for Active; 'I' for Inactive)
REMARK    1  A    between atoms: C_1  and  N_41
REMARK    2  A    between atoms: C_2  and  C_3
REMARK    3  A    between atoms: C_2  and  N_41
REMARK    4  A    between atoms: C_11  and  C_12
REMARK    5  A    between atoms: C_11  and  N_41
REMARK    6  A    between atoms: N_14  and  N_15
REMARK    7  A    between atoms: C_16  and  C_18
REMARK                            x       y       z     vdW  Elec       q    Type
REMARK                         _______ _______ _______ _____ _____    ______ ____
ROOT
ATOM      1  C   UNL     1       2.369   1.025  -0.015  0.00  0.00    +0.213 C 
ATOM      2  O   UNL     1       2.385  -0.188  -0.022  0.00  0.00    -0.276 OA
ATOM      3  N   UNL     1       1.193   1.683  -0.000  0.00  0.00    -0.236 N 
ATOM      4  H   UNL     1       1.179   2.653   0.005  0.00  0.00    +0.173 HD
ENDROOT
BRANCH   3   5
ATOM      5  N   UNL     1      -0.011   0.966   0.007  0.00  0.00    -0.230 N 
ATOM      6  C   UNL     1      -1.187   1.624   0.017  0.00  0.00    +0.261 C 
ATOM      7  O   UNL     1      -1.204   2.839   0.023  0.00  0.00    -0.269 OA
ATOM      8  H   UNL     1       0.002  -0.004   0.002  0.00  0.00    +0.173 HD
BRANCH   6   9
ATOM      9  C   UNL     1      -2.457   0.868   0.018  0.00  0.00    +0.052 A 
ATOM     10  C   UNL     1      -2.442  -0.528   0.005  0.00  0.00    +0.014 A 
ATOM     11  C   UNL     1      -3.630  -1.228   0.012  0.00  0.00    +0.001 A 
ATOM     12  C   UNL     1      -4.837  -0.550   0.022  0.00  0.00    +0.001 A 
ATOM     13  C   UNL     1      -4.860   0.833   0.030  0.00  0.00    +0.016 A 
ATOM     14  C   UNL     1      -3.678   1.546   0.028  0.00  0.00    +0.030 A 
ATOM     15 BR   UNL     1      -3.711   3.437   0.038  0.00  0.00    -0.050 Br
ENDBRANCH   6   9
ENDBRANCH   3   5
BRANCH   1  16
ATOM     16  C   UNL     1       3.663   1.796  -0.023  0.00  0.00    +0.020 C 
BRANCH  16  18
ATOM     17  C   UNL     1       4.830   0.099  -1.297  0.00  0.00    -0.095 C 
ATOM     18  N   UNL     1       4.789   0.838  -0.018  0.00  0.00    +0.386 N 
ATOM     19  H   UNL     1       4.654   0.169   0.750  0.00  0.00    -0.081 HD
BRANCH  18  20
ATOM     20  C   UNL     1       6.063   1.557   0.191  0.00  0.00    -0.041 C 
BRANCH  20  21
ATOM     21  C   UNL     1       7.160   0.548   0.412  0.00  0.00    -0.044 A 
ATOM     22  C   UNL     1       8.083   0.299  -0.587  0.00  0.00    +0.003 A 
ATOM     23  C   UNL     1       9.089  -0.627  -0.385  0.00  0.00    +0.002 A 
ATOM     24  C   UNL     1       9.174  -1.305   0.817  0.00  0.00    +0.021 A 
ATOM     25  C   UNL     1       8.253  -1.057   1.817  0.00  0.00    +0.059 A 
ATOM     26  C   UNL     1       7.248  -0.125   1.617  0.00  0.00    +0.061 A 
ATOM     27 CL   UNL     1       6.095   0.193   2.875  0.00  0.00    -0.082 Cl
ATOM     28 CL   UNL     1       8.359  -1.908   3.327  0.00  0.00    -0.082 Cl
ENDBRANCH  20  21
ENDBRANCH  18  20
ENDBRANCH  16  18
ENDBRANCH   1  16
TORSDOF 6
