REMARK  Name = ZINC14805574
REMARK  9 active torsions:
REMARK  status: ('A' for Active; 'I' for Inactive)
REMARK    1  A    between atoms: C_4  and  N_23
REMARK    2  A    between atoms: C_5  and  C_7
REMARK    3  A    between atoms: N_9  and  N_10
REMARK    4  A    between atoms: C_11  and  C_13
REMARK    5  A    between atoms: C_13  and  S_14
REMARK    6  A    between atoms: S_14  and  C_15
REMARK    7  A    between atoms: C_15  and  C_16
REMARK    8  A    between atoms: N_23  and  S_24
REMARK    9  A    between atoms: S_24  and  C_27
REMARK                            x       y       z     vdW  Elec       q    Type
REMARK                         _______ _______ _______ _____ _____    ______ ____
ROOT
ATOM      1  C   UNL     1      -1.093   1.836   0.211  0.00  0.00    +0.262 C 
ATOM      2  O   UNL     1      -1.204   3.038   0.069  0.00  0.00    -0.269 OA
ATOM      3  N   UNL     1       0.131   1.278   0.298  0.00  0.00    -0.230 N 
ATOM      4  H   UNL     1       0.220   0.319   0.412  0.00  0.00    +0.173 HD
ENDROOT
BRANCH   1   9
ATOM      5  C   UNL     1      -3.302  -1.181   0.523  0.00  0.00    +0.001 A 
ATOM      6  C   UNL     1      -4.562  -0.608   0.434  0.00  0.00    +0.002 A 
ATOM      7  C   UNL     1      -4.700   0.755   0.272  0.00  0.00    +0.025 A 
ATOM      8  C   UNL     1      -3.573   1.565   0.204  0.00  0.00    +0.060 A 
ATOM      9  C   UNL     1      -2.296   0.988   0.288  0.00  0.00    +0.060 A 
ATOM     10  C   UNL     1      -2.174  -0.394   0.452  0.00  0.00    +0.015 A 
BRANCH   8  11
ATOM     11  N   UNL     1      -3.709   2.938   0.047  0.00  0.00    -0.215 N 
ATOM     12  H   UNL     1      -3.068   3.431  -0.488  0.00  0.00    +0.174 HD
BRANCH  11  13
ATOM     13  S   UNL     1      -4.966   3.734   0.775  0.00  0.00    +0.079 S 
ATOM     14  O   UNL     1      -4.757   5.121   0.545  0.00  0.00    -0.149 OA
ATOM     15  O   UNL     1      -6.155   3.067   0.376  0.00  0.00    -0.149 OA
BRANCH  13  16
ATOM     16  C   UNL     1      -4.806   3.482   2.511  0.00  0.00    +0.146 A 
ATOM     17  C   UNL     1      -4.138   4.229   3.424  0.00  0.00    +0.036 A 
ATOM     18  C   UNL     1      -4.150   3.836   4.750  0.00  0.00    +0.010 A 
ATOM     19  C   UNL     1      -4.830   2.717   5.097  0.00  0.00    +0.047 A 
ATOM     20  S   UNL     1      -5.490   2.182   3.527  0.00  0.00    -0.077 S 
ENDBRANCH  13  16
ENDBRANCH  11  13
ENDBRANCH   8  11
ENDBRANCH   1   9
BRANCH   3  21
ATOM     21  N   UNL     1       1.275   2.083   0.220  0.00  0.00    -0.233 N 
ATOM     22  C   UNL     1       2.499   1.524   0.301  0.00  0.00    +0.239 C 
ATOM     23  O   UNL     1       2.610   0.325   0.443  0.00  0.00    -0.273 OA
ATOM     24  H   UNL     1       1.187   3.042   0.106  0.00  0.00    +0.173 HD
BRANCH  22  25
ATOM     25  C   UNL     1       3.730   2.390   0.216  0.00  0.00    +0.166 C 
BRANCH  25  26
ATOM     26  S   UNL     1       5.210   1.351   0.357  0.00  0.00    -0.147 S 
BRANCH  26  27
ATOM     27  C   UNL     1       6.585   2.529   0.238  0.00  0.00    +0.104 C 
BRANCH  27  28
ATOM     28  C   UNL     1       7.893   1.786   0.342  0.00  0.00    -0.036 A 
ATOM     29  C   UNL     1       8.479   1.590   1.578  0.00  0.00    +0.004 A 
ATOM     30  C   UNL     1       9.676   0.906   1.675  0.00  0.00    +0.002 A 
ATOM     31  C   UNL     1      10.292   0.426   0.534  0.00  0.00    +0.020 A 
ATOM     32  C   UNL     1       9.708   0.626  -0.703  0.00  0.00    +0.041 A 
ATOM     33  C   UNL     1       8.508   1.307  -0.799  0.00  0.00    +0.024 A 
ATOM     34 CL   UNL     1      10.482   0.024  -2.136  0.00  0.00    -0.084 Cl
ENDBRANCH  27  28
ENDBRANCH  26  27
ENDBRANCH  25  26
ENDBRANCH  22  25
ENDBRANCH   3  21
TORSDOF 9
