REMARK  Name = ZINC18370374
REMARK  9 active torsions:
REMARK  status: ('A' for Active; 'I' for Inactive)
REMARK    1  A    between atoms: C_1  and  C_2
REMARK    2  A    between atoms: C_2  and  C_4
REMARK    3  A    between atoms: C_2  and  O_10
REMARK    4  A    between atoms: O_10  and  C_11
REMARK    5  A    between atoms: C_11  and  C_13
REMARK    6  A    between atoms: C_16  and  S_19
REMARK    7  A    between atoms: S_19  and  N_22
REMARK    8  A    between atoms: N_22  and  C_23
REMARK    9  A    between atoms: N_22  and  C_24
REMARK                            x       y       z     vdW  Elec       q    Type
REMARK                         _______ _______ _______ _____ _____    ______ ____
ROOT
ATOM      1  C   UNL     1       0.535  -1.149  -3.519  0.00  0.00    +0.059 A 
ATOM      2  C   UNL     1       1.910  -1.391  -3.571  0.00  0.00    +0.017 A 
ATOM      3  C   UNL     1       2.485  -1.835  -4.743  0.00  0.00    +0.029 A 
ATOM      4  C   UNL     1       1.704  -2.043  -5.866  0.00  0.00    +0.106 A 
ATOM      5  C   UNL     1       0.341  -1.805  -5.822  0.00  0.00    +0.029 A 
ATOM      6  C   UNL     1      -0.248  -1.366  -4.654  0.00  0.00    +0.017 A 
ENDROOT
BRANCH   4   7
ATOM      7  S   UNL     1       2.447  -2.611  -7.359  0.00  0.00    +0.061 S 
ATOM      8  O   UNL     1       1.591  -2.205  -8.418  0.00  0.00    -0.153 OA
ATOM      9  O   UNL     1       3.816  -2.236  -7.299  0.00  0.00    -0.153 OA
BRANCH   7  10
ATOM     10  N   UNL     1       2.408  -4.266  -7.326  0.00  0.00    -0.177 NA
ATOM     11  C   UNL     1       1.257  -4.983  -7.882  0.00  0.00    +0.132 C 
BRANCH  10  12
ATOM     12  C   UNL     1       3.524  -5.014  -6.741  0.00  0.00    +0.080 C 
ATOM     13  C   UNL     1       4.136  -5.929  -7.803  0.00  0.00    +0.020 C 
ATOM     14  C   UNL     1       5.301  -6.710  -7.193  0.00  0.00    +0.002 C 
ATOM     15  C   UNL     1       4.792  -7.555  -6.023  0.00  0.00    +0.000 C 
ATOM     16  C   UNL     1       4.180  -6.640  -4.962  0.00  0.00    +0.002 C 
ATOM     17  C   UNL     1       3.014  -5.859  -5.572  0.00  0.00    +0.020 C 
ENDBRANCH  10  12
ENDBRANCH   7  10
ENDBRANCH   4   7
BRANCH   1  18
ATOM     18  C   UNL     1      -0.088  -0.673  -2.267  0.00  0.00    +0.340 C 
ATOM     19  O   UNL     1      -1.284  -0.469  -2.224  0.00  0.00    -0.245 OA
BRANCH  18  20
ATOM     20  O   UNL     1       0.671  -0.465  -1.174  0.00  0.00    -0.449 OA
BRANCH  20  22
ATOM     21  C   UNL     1      -0.019   1.526   0.010  0.00  0.00    +0.062 C 
ATOM     22  C   UNL     1       0.002  -0.004   0.002  0.00  0.00    +0.259 C 
BRANCH  22  23
ATOM     23  C   UNL     1       0.731  -0.503   1.223  0.00  0.00    +0.261 C 
ATOM     24  O   UNL     1       1.774  -1.109   1.101  0.00  0.00    -0.271 OA
ATOM     25  N   UNL     1       0.223  -0.277   2.451  0.00  0.00    -0.237 N 
ATOM     26  C   UNL     1       0.875  -0.723   3.542  0.00  0.00    +0.303 C 
ATOM     27  O   UNL     1       1.921  -1.330   3.420  0.00  0.00    -0.253 OA
ATOM     28  N   UNL     1       0.367  -0.496   4.770  0.00  0.00    -0.313 N 
ATOM     29  H   UNL     1      -0.611   0.208   2.548  0.00  0.00    +0.159 HD
ATOM     30  H   UNL     1      -0.467  -0.011   4.868  0.00  0.00    +0.146 HD
ATOM     31  H   UNL     1       0.836  -0.817   5.556  0.00  0.00    +0.146 HD
ENDBRANCH  22  23
ENDBRANCH  20  22
ENDBRANCH  18  20
ENDBRANCH   1  18
TORSDOF 7
