REMARK  Name = ZINC20991874
REMARK  8 active torsions:
REMARK  status: ('A' for Active; 'I' for Inactive)
REMARK    1  A    between atoms: C_1  and  C_2
REMARK    2  A    between atoms: C_8  and  N_10
REMARK    3  A    between atoms: C_11  and  C_13
REMARK    4  A    between atoms: C_13  and  C_15
REMARK    5  A    between atoms: C_13  and  S_16
REMARK    6  A    between atoms: S_16  and  C_17
REMARK    7  A    between atoms: C_20  and  C_23
REMARK    8  A    between atoms: N_21  and  N_22
REMARK                            x       y       z     vdW  Elec       q    Type
REMARK                         _______ _______ _______ _____ _____    ______ ____
ROOT
ATOM      1  C   UNL     1       3.897   5.550  -0.007  0.00  0.00    +0.209 A 
ATOM      2  N   UNL     1       4.502   4.383  -0.019  0.00  0.00    -0.121 NA
ATOM      3  N   UNL     1       3.634   3.436  -0.016  0.00  0.00    -0.127 NA
ATOM      4  C   UNL     1       2.421   3.939  -0.000  0.00  0.00    +0.183 A 
ATOM      5  N   UNL     1       2.552   5.308   0.000  0.00  0.00    -0.224 N 
ENDROOT
BRANCH   4   6
ATOM      6  C   UNL     1       1.154   3.178   0.008  0.00  0.00    +0.040 A 
ATOM      7  C   UNL     1      -0.068   3.851   0.023  0.00  0.00    +0.033 A 
ATOM      8  C   UNL     1      -1.248   3.134   0.031  0.00  0.00    +0.042 A 
ATOM      9  C   UNL     1      -1.220   1.749   0.017  0.00  0.00    +0.021 A 
ATOM     10  C   UNL     1      -0.013   1.076   0.008  0.00  0.00    +0.022 A 
ATOM     11  C   UNL     1       1.175   1.781   0.000  0.00  0.00    +0.052 A 
ATOM     12 CL   UNL     1       2.690   0.934  -0.018  0.00  0.00    -0.083 Cl
ATOM     13 CL   UNL     1      -2.769   3.970   0.050  0.00  0.00    -0.084 Cl
ENDBRANCH   4   6
BRANCH   5  14
ATOM     14  N   UNL     1       1.548   6.234   0.008  0.00  0.00    -0.295 N 
ATOM     15  H   UNL     1       0.498   5.906   0.013  0.00  0.00    +0.163 HD
ATOM     16  H   UNL     1       1.788   7.307   0.010  0.00  0.00    +0.163 HD
ENDBRANCH   5  14
BRANCH   1  17
ATOM     17  S   UNL     1       4.675   7.131  -0.006  0.00  0.00    -0.072 S 
BRANCH  17  18
ATOM     18  C   UNL     1       6.412   6.626  -0.026  0.00  0.00    +0.137 C 
ATOM     19  C   UNL     1       6.745   5.892   1.274  0.00  0.00    +0.029 C 
BRANCH  18  21
ATOM     20  N   UNL     1       8.523   7.737  -0.681  0.00  0.00    -0.311 N 
ATOM     21  C   UNL     1       7.288   7.846  -0.152  0.00  0.00    +0.226 C 
ATOM     22  O   UNL     1       6.882   8.925   0.222  0.00  0.00    -0.275 OA
ATOM     23  H   UNL     1       8.892   6.758  -1.021  0.00  0.00    +0.149 HD
BRANCH  20  30
ATOM     24  C   UNL     1      11.177   7.761   0.480  0.00  0.00    +0.009 C 
ATOM     25  C   UNL     1      10.844   8.496  -0.821  0.00  0.00    +0.006 C 
ATOM     26  C   UNL     1      11.091   7.565  -2.010  0.00  0.00    +0.005 C 
ATOM     27  C   UNL     1      10.759   8.300  -3.310  0.00  0.00    +0.000 C 
ATOM     28  C   UNL     1       9.290   8.726  -3.293  0.00  0.00    +0.002 C 
ATOM     29  C   UNL     1       9.042   9.657  -2.104  0.00  0.00    +0.022 C 
ATOM     30  C   UNL     1       9.375   8.922  -0.804  0.00  0.00    +0.076 C 
ENDBRANCH  20  30
ENDBRANCH  18  21
ENDBRANCH  17  18
ENDBRANCH   1  17
TORSDOF 6
