REMARK  Name = ZINC38547944
REMARK  8 active torsions:
REMARK  status: ('A' for Active; 'I' for Inactive)
REMARK    1  A    between atoms: C_1  and  C_2
REMARK    2  A    between atoms: C_2  and  C_3
REMARK    3  A    between atoms: C_5  and  C_16
REMARK    4  A    between atoms: C_6  and  N_8
REMARK    5  A    between atoms: C_9  and  C_11
REMARK    6  A    between atoms: C_16  and  C_18
REMARK    7  A    between atoms: C_16  and  N_23
REMARK    8  A    between atoms: C_26  and  C_30
REMARK                            x       y       z     vdW  Elec       q    Type
REMARK                         _______ _______ _______ _____ _____    ______ ____
ROOT
ATOM      1  C   UNL     1       0.707  -0.490  -1.238  0.00  0.00    -0.008 A 
ATOM      2  C   UNL     1       2.022  -0.760  -1.419  0.00  0.00    +0.019 A 
ATOM      3  C   UNL     1       2.454  -1.201  -2.657  0.00  0.00    +0.006 A 
ATOM      4  C   UNL     1       1.539  -1.349  -3.656  0.00  0.00    +0.078 A 
ATOM      5  S   UNL     1       0.024  -0.865  -2.844  0.00  0.00    -0.078 S 
ENDROOT
BRANCH   4   6
ATOM      6  N   UNL     1       1.734  -1.773  -4.972  0.00  0.00    -0.273 N 
ATOM      7  C   UNL     1       0.688  -1.853  -5.817  0.00  0.00    +0.284 C 
ATOM      8  O   UNL     1      -0.429  -1.555  -5.433  0.00  0.00    -0.266 OA
ATOM      9  H   UNL     1       2.624  -2.011  -5.278  0.00  0.00    +0.156 HD
BRANCH   7  10
ATOM     10  C   UNL     1       0.893  -2.299  -7.199  0.00  0.00    +0.189 A 
ATOM     11  C   UNL     1      -0.074  -2.420  -8.155  0.00  0.00    +0.054 A 
ATOM     12  C   UNL     1       0.564  -2.874  -9.320  0.00  0.00    +0.042 A 
ATOM     13  C   UNL     1       1.876  -3.009  -9.027  0.00  0.00    +0.196 A 
ATOM     14  O   UNL     1       2.071  -2.657  -7.749  0.00  0.00    -0.458 OA
ENDBRANCH   7  10
ENDBRANCH   4   6
BRANCH   1  16
ATOM     15  C   UNL     1      -0.019   1.526   0.010  0.00  0.00    +0.009 C 
ATOM     16  C   UNL     1       0.002  -0.004   0.002  0.00  0.00    +0.039 C 
ENDBRANCH   1  16
BRANCH   3  17
ATOM     17  C   UNL     1       3.909  -1.511  -2.897  0.00  0.00    +0.135 C 
BRANCH  17  18
ATOM     18  N   UNL     1       4.551  -1.854  -1.626  0.00  0.00    -0.320 N 
ATOM     19  C   UNL     1       5.687  -2.655  -1.615  0.00  0.00    +0.097 A 
ATOM     20  C   UNL     1       6.213  -3.122  -2.815  0.00  0.00    +0.045 A 
ATOM     21  C   UNL     1       7.344  -3.918  -2.790  0.00  0.00    -0.046 A 
ATOM     22  C   UNL     1       7.913  -4.220  -1.560  0.00  0.00    +0.021 A 
ATOM     23  C   UNL     1       7.339  -3.723  -0.408  0.00  0.00    +0.084 A 
ATOM     24  N   UNL     1       6.263  -2.961  -0.462  0.00  0.00    -0.350 N 
ATOM     25  C   UNL     1       7.944  -4.444  -4.067  0.00  0.00    +0.044 C 
ATOM     26  H   UNL     1       4.183  -1.523  -0.791  0.00  0.00    +0.148 HD
ATOM     27  H   UNL     1       5.881  -2.621   0.362  0.00  0.00    +0.166 HD
ENDBRANCH  17  18
BRANCH  17  28
ATOM     28  C   UNL     1       4.588  -0.305  -3.493  0.00  0.00    -0.016 A 
ATOM     29  C   UNL     1       4.818  -0.232  -4.854  0.00  0.00    +0.013 A 
ATOM     30  C   UNL     1       5.431   0.867  -5.359  0.00  0.00    +0.045 A 
ATOM     31  S   UNL     1       5.704   1.845  -3.890  0.00  0.00    -0.105 S 
ATOM     32  C   UNL     1       4.977   0.726  -2.704  0.00  0.00    +0.051 A 
ENDBRANCH  17  28
ENDBRANCH   3  17
TORSDOF 6
