REMARK  Name = ZINC38547102
REMARK  9 active torsions:
REMARK  status: ('A' for Active; 'I' for Inactive)
REMARK    1  A    between atoms: C_1  and  C_2
REMARK    2  A    between atoms: C_2  and  C_3
REMARK    3  A    between atoms: C_5  and  C_16
REMARK    4  A    between atoms: C_6  and  N_8
REMARK    5  A    between atoms: C_9  and  C_11
REMARK    6  A    between atoms: C_16  and  C_18
REMARK    7  A    between atoms: C_16  and  N_26
REMARK    8  A    between atoms: C_22  and  O_24
REMARK    9  A    between atoms: O_24  and  C_25
REMARK                            x       y       z     vdW  Elec       q    Type
REMARK                         _______ _______ _______ _____ _____    ______ ____
ROOT
ATOM      1  C   UNL     1      -4.422  -1.629  -1.927  0.00  0.00    +0.135 C 
ENDROOT
BRANCH   1   2
ATOM      2  N   UNL     1      -4.029  -1.031  -3.205  0.00  0.00    -0.320 N 
ATOM      3  C   UNL     1      -4.358   0.290  -3.485  0.00  0.00    +0.097 A 
ATOM      4  C   UNL     1      -5.144   1.009  -2.590  0.00  0.00    +0.041 A 
ATOM      5  C   UNL     1      -5.464   2.323  -2.880  0.00  0.00    +0.005 A 
ATOM      6  C   UNL     1      -4.984   2.877  -4.060  0.00  0.00    +0.018 A 
ATOM      7  C   UNL     1      -4.209   2.106  -4.902  0.00  0.00    +0.084 A 
ATOM      8  N   UNL     1      -3.915   0.856  -4.597  0.00  0.00    -0.350 N 
ATOM      9  H   UNL     1      -3.539  -1.557  -3.857  0.00  0.00    +0.148 HD
ATOM     10  H   UNL     1      -3.365   0.337  -5.205  0.00  0.00    +0.166 HD
ENDBRANCH   1   2
BRANCH   1  11
ATOM     11  C   UNL     1      -4.434  -3.131  -2.058  0.00  0.00    -0.019 A 
ATOM     12  C   UNL     1      -3.375  -3.780  -2.664  0.00  0.00    +0.006 A 
ATOM     13  C   UNL     1      -3.383  -5.157  -2.786  0.00  0.00    +0.004 A 
ATOM     14  C   UNL     1      -4.452  -5.888  -2.302  0.00  0.00    +0.045 A 
ATOM     15  C   UNL     1      -5.516  -5.239  -1.694  0.00  0.00    +0.120 A 
ATOM     16  C   UNL     1      -5.502  -3.857  -1.568  0.00  0.00    +0.051 A 
BRANCH  15  17
ATOM     17  O   UNL     1      -6.568  -5.955  -1.217  0.00  0.00    -0.495 OA
ATOM     18  C   UNL     1      -6.511  -7.374  -1.377  0.00  0.00    +0.277 C 
ENDBRANCH  15  17
ENDBRANCH   1  11
BRANCH   1  21
ATOM     19  C   UNL     1      -1.275  -0.543  -0.207  0.00  0.00    -0.008 A 
ATOM     20  C   UNL     1      -2.134  -0.902  -1.191  0.00  0.00    +0.019 A 
ATOM     21  C   UNL     1      -3.437  -1.226  -0.860  0.00  0.00    +0.006 A 
ATOM     22  C   UNL     1      -3.814  -1.175   0.448  0.00  0.00    +0.078 A 
ATOM     23  S   UNL     1      -2.302  -0.664   1.248  0.00  0.00    -0.078 S 
BRANCH  22  24
ATOM     24  N   UNL     1      -5.059  -1.455   1.017  0.00  0.00    -0.273 N 
ATOM     25  C   UNL     1      -5.231  -1.344   2.349  0.00  0.00    +0.284 C 
ATOM     26  O   UNL     1      -4.303  -0.999   3.056  0.00  0.00    -0.266 OA
ATOM     27  H   UNL     1      -5.798  -1.730   0.453  0.00  0.00    +0.156 HD
BRANCH  25  28
ATOM     28  C   UNL     1      -6.538  -1.638   2.945  0.00  0.00    +0.189 A 
ATOM     29  C   UNL     1      -6.850  -1.560   4.273  0.00  0.00    +0.054 A 
ATOM     30  C   UNL     1      -8.200  -1.925   4.392  0.00  0.00    +0.042 A 
ATOM     31  C   UNL     1      -8.648  -2.206   3.148  0.00  0.00    +0.196 A 
ATOM     32  O   UNL     1      -7.644  -2.027   2.279  0.00  0.00    -0.458 OA
ENDBRANCH  25  28
ENDBRANCH  22  24
BRANCH  19  34
ATOM     33  C   UNL     1       0.281   1.364  -0.506  0.00  0.00    +0.009 C 
ATOM     34  C   UNL     1       0.176  -0.150  -0.313  0.00  0.00    +0.039 C 
ENDBRANCH  19  34
ENDBRANCH   1  21
TORSDOF 7
