REMARK  Name = ZINC21247987
REMARK  6 active torsions:
REMARK  status: ('A' for Active; 'I' for Inactive)
REMARK    1  A    between atoms: C_1  and  C_2
REMARK    2  A    between atoms: C_2  and  O_3
REMARK    3  A    between atoms: O_3  and  C_4
REMARK    4  A    between atoms: C_6  and  C_12
REMARK    5  A    between atoms: C_9  and  O_10
REMARK    6  A    between atoms: C_17  and  C_22
REMARK                            x       y       z     vdW  Elec       q    Type
REMARK                         _______ _______ _______ _____ _____    ______ ____
ROOT
ATOM      1  C   UNL     1       0.623   3.267   1.845  0.00  0.00    +0.136 C 
ATOM      2  C   UNL     1       1.680   2.716   0.917  0.00  0.00    +0.036 C 
ATOM      3  C   UNL     1       1.511   1.714   0.038  0.00  0.00    +0.017 C 
ATOM      4  C   UNL     1       2.665   1.262  -0.843  0.00  0.00    +0.059 C 
ATOM      5  C   UNL     1       3.568   2.450  -1.169  0.00  0.00    +0.032 C 
ATOM      6  C   UNL     1       4.099   3.009   0.157  0.00  0.00    +0.088 C 
ATOM      7  C   UNL     1       2.930   3.369   1.023  0.00  0.00    +0.163 C 
ATOM      8  O   UNL     1       3.061   4.254   1.846  0.00  0.00    -0.292 OA
ATOM      9  N   UNL     1       0.359   1.017  -0.141  0.00  0.00    -0.316 N 
ATOM     10  C   UNL     1      -0.903   1.587  -0.281  0.00  0.00    +0.052 A 
ATOM     11  C   UNL     1      -1.649   1.465  -1.439  0.00  0.00    +0.025 A 
ATOM     12  C   UNL     1      -2.923   2.004  -1.485  0.00  0.00    +0.002 A 
ATOM     13  C   UNL     1      -3.443   2.657  -0.382  0.00  0.00    +0.002 A 
ATOM     14  C   UNL     1      -2.683   2.800   0.781  0.00  0.00    +0.025 A 
ATOM     15  C   UNL     1      -1.397   2.284   0.818  0.00  0.00    +0.049 A 
ATOM     16  N   UNL     1      -0.577   2.462   1.928  0.00  0.00    -0.331 N 
ATOM     17  H   UNL     1       0.382  -0.082  -0.184  0.00  0.00    +0.152 HD
ATOM     18  H   UNL     1      -0.852   1.981   2.878  0.00  0.00    +0.147 HD
ENDROOT
BRANCH   1  21
ATOM     19  C   UNL     1       0.138   7.012   1.744  0.00  0.00    +0.163 A 
ATOM     20  C   UNL     1       0.487   5.743   2.177  0.00  0.00    +0.055 A 
ATOM     21  C   UNL     1       0.243   4.646   1.372  0.00  0.00    -0.018 A 
ATOM     22  C   UNL     1      -0.345   4.812   0.132  0.00  0.00    +0.025 A 
ATOM     23  C   UNL     1      -0.700   6.075  -0.305  0.00  0.00    +0.063 A 
ATOM     24  C   UNL     1      -0.458   7.179   0.498  0.00  0.00    +0.173 A 
ATOM     25 BR   UNL     1      -1.510   6.297  -1.999  0.00  0.00    -0.046 Br
BRANCH  24  26
ATOM     26  O   UNL     1      -0.803   8.423   0.069  0.00  0.00    -0.503 OA
ATOM     27  H   UNL     1      -1.274   8.554  -0.916  0.00  0.00    +0.292 HD
ENDBRANCH  24  26
BRANCH  19  28
ATOM     28  O   UNL     1       0.377   8.092   2.536  0.00  0.00    -0.489 OA
BRANCH  28  30
ATOM     29  C   UNL     1       1.179   9.169   4.545  0.00  0.00    +0.048 C 
ATOM     30  C   UNL     1       0.991   7.845   3.802  0.00  0.00    +0.226 C 
ENDBRANCH  28  30
ENDBRANCH  19  28
ENDBRANCH   1  21
BRANCH   5  31
ATOM     31  C   UNL     1       4.720   1.995  -2.029  0.00  0.00    -0.043 A 
ATOM     32  C   UNL     1       5.577   1.012  -1.571  0.00  0.00    +0.007 A 
ATOM     33  C   UNL     1       6.630   0.590  -2.361  0.00  0.00    +0.038 A 
ATOM     34  C   UNL     1       6.831   1.160  -3.607  0.00  0.00    +0.123 A 
ATOM     35  C   UNL     1       5.975   2.148  -4.062  0.00  0.00    +0.038 A 
ATOM     36  C   UNL     1       4.920   2.565  -3.272  0.00  0.00    +0.007 A 
ATOM     37  F   UNL     1       7.863   0.752  -4.378  0.00  0.00    -0.205 F 
ENDBRANCH   5  31
TORSDOF 5
