REMARK  Name = ZINC44713829
REMARK  10 active torsions:
REMARK  status: ('A' for Active; 'I' for Inactive)
REMARK    1  A    between atoms: C_1  and  C_2
REMARK    2  A    between atoms: C_3  and  C_9
REMARK    3  A    between atoms: C_4  and  C_8
REMARK    4  A    between atoms: C_9  and  C_11
REMARK    5  A    between atoms: C_9  and  N_12
REMARK    6  A    between atoms: C_13  and  C_15
REMARK    7  A    between atoms: C_26  and  C_28
REMARK    8  A    between atoms: C_28  and  C_30
REMARK    9  A    between atoms: C_28  and  O_31
REMARK   10  A    between atoms: O_31  and  C_32
REMARK                            x       y       z     vdW  Elec       q    Type
REMARK                         _______ _______ _______ _____ _____    ______ ____
ROOT
ATOM      1  C   UNL     1      -2.515  -1.310  -5.614  0.00  0.00    +0.100 C 
ATOM      2  C   UNL     1      -3.804  -1.629  -4.824  0.00  0.00    +0.121 C 
ATOM      3  N   UNL     1      -4.738  -0.533  -5.174  0.00  0.00    -0.297 N 
ATOM      4  C   UNL     1      -4.505  -0.298  -6.619  0.00  0.00    +0.115 C 
ATOM      5  C   UNL     1      -2.979  -0.440  -6.793  0.00  0.00    -0.004 C 
ATOM      6  C   UNL     1      -2.660  -1.129  -8.116  0.00  0.00    -0.010 C 
ATOM      7  C   UNL     1      -3.079  -0.219  -9.275  0.00  0.00    -0.082 C 
ATOM      8  N   UNL     1      -2.361   1.058  -9.180  0.00  0.00    +0.379 N 
ATOM      9  C   UNL     1      -2.745   1.758  -7.948  0.00  0.00    -0.082 C 
ATOM     10  C   UNL     1      -2.313   0.931  -6.733  0.00  0.00    -0.010 C 
ATOM     11  C   UNL     1      -5.605   0.104  -4.363  0.00  0.00    +0.256 C 
ATOM     12  O   UNL     1      -5.620  -0.145  -3.176  0.00  0.00    -0.272 OA
ATOM     13  H   UNL     1      -1.367   0.885  -9.170  0.00  0.00    -0.086 HD
ATOM     14  H   UNL     1      -2.592   1.633  -9.977  0.00  0.00    -0.086 HD
ENDROOT
BRANCH   1  16
ATOM     15  N   UNL     1      -0.218  -0.677  -4.948  0.00  0.00    -0.308 N 
ATOM     16  C   UNL     1      -1.544  -0.547  -4.749  0.00  0.00    +0.219 C 
ATOM     17  O   UNL     1      -1.958   0.184  -3.874  0.00  0.00    -0.275 OA
ATOM     18  H   UNL     1       0.113  -1.262  -5.648  0.00  0.00    +0.149 HD
BRANCH  15  19
ATOM     19  C   UNL     1       0.725   0.065  -4.107  0.00  0.00    +0.104 C 
ATOM     20  C   UNL     1       0.841   1.503  -4.617  0.00  0.00    +0.033 C 
BRANCH  19  23
ATOM     21  C   UNL     1       2.188  -0.916  -6.692  0.00  0.00    +0.065 C 
ATOM     22  C   UNL     1       2.710  -1.022  -5.282  0.00  0.00    +0.038 A 
ATOM     23  C   UNL     1       2.077  -0.598  -4.164  0.00  0.00    +0.015 A 
ATOM     24  C   UNL     1       2.900  -0.883  -3.070  0.00  0.00    +0.065 A 
ATOM     25  N   UNL     1       3.988  -1.458  -3.515  0.00  0.00    -0.179 NA
ATOM     26  N   UNL     1       3.889  -1.561  -4.908  0.00  0.00    -0.281 N 
ATOM     27  H   UNL     1       4.552  -1.950  -5.500  0.00  0.00    +0.189 HD
ATOM     28  C   UNL     1       2.588  -0.580  -1.627  0.00  0.00    +0.068 C 
ENDBRANCH  19  23
ENDBRANCH  15  19
ENDBRANCH   1  16
BRANCH  11  29
ATOM     29  C   UNL     1      -6.556   1.127  -4.930  0.00  0.00    +0.256 C 
ATOM     30  C   UNL     1      -7.586   0.427  -5.820  0.00  0.00    +0.062 C 
BRANCH  29  31
ATOM     31  O   UNL     1      -7.226   1.798  -3.862  0.00  0.00    -0.480 OA
BRANCH  31  32
ATOM     32  C   UNL     1      -7.697   3.048  -4.117  0.00  0.00    +0.122 A 
ATOM     33  C   UNL     1      -8.253   3.803  -3.096  0.00  0.00    +0.045 A 
ATOM     34  C   UNL     1      -8.730   5.073  -3.358  0.00  0.00    +0.004 A 
ATOM     35  C   UNL     1      -8.654   5.591  -4.637  0.00  0.00    +0.000 A 
ATOM     36  C   UNL     1      -8.100   4.840  -5.658  0.00  0.00    +0.004 A 
ATOM     37  C   UNL     1      -7.616   3.572  -5.399  0.00  0.00    +0.045 A 
ENDBRANCH  31  32
ENDBRANCH  29  31
ENDBRANCH  11  29
TORSDOF 6
