REMARK  Name = ZINC33621081
REMARK  12 active torsions:
REMARK  status: ('A' for Active; 'I' for Inactive)
REMARK    1  A    between atoms: C_1  and  C_2
REMARK    2  A    between atoms: C_2  and  O_3
REMARK    3  A    between atoms: O_3  and  C_4
REMARK    4  A    between atoms: C_7  and  N_10
REMARK    5  A    between atoms: C_11  and  C_13
REMARK    6  A    between atoms: C_13  and  S_14
REMARK    7  A    between atoms: S_14  and  C_15
REMARK    8  A    between atoms: C_19  and  C_23
REMARK    9  A    between atoms: N_26  and  C_27
REMARK   10  A    between atoms: C_30  and  O_33
REMARK   11  A    between atoms: O_33  and  C_34
REMARK   12  A    between atoms: C_34  and  C_35
REMARK                            x       y       z     vdW  Elec       q    Type
REMARK                         _______ _______ _______ _____ _____    ______ ____
ROOT
ATOM      1  C   UNL     1       2.371 -10.044  -4.913  0.00  0.00    +0.177 A 
ATOM      2  N   UNL     1       1.823 -10.710  -3.921  0.00  0.00    -0.201 NA
ATOM      3  C   UNL     1       1.745 -12.055  -3.947  0.00  0.00    +0.187 A 
ATOM      4  C   UNL     1       2.294 -12.755  -5.122  0.00  0.00    +0.079 A 
ATOM      5  C   UNL     1       2.095 -14.100  -4.908  0.00  0.00    +0.046 A 
ATOM      6  N   UNL     1       1.485 -14.240  -3.723  0.00  0.00    -0.279 N 
ATOM      7  N   UNL     1       1.275 -12.983  -3.143  0.00  0.00    -0.153 NA
ATOM      8  H   UNL     1       1.227 -15.087  -3.326  0.00  0.00    +0.189 HD
ATOM      9  C   UNL     1       2.492 -15.216  -5.840  0.00  0.00    +0.066 C 
ATOM     10  C   UNL     1       2.885 -11.936  -6.178  0.00  0.00    +0.115 A 
ATOM     11  N   UNL     1       3.419 -12.510  -7.309  0.00  0.00    -0.344 N 
ATOM     12  N   UNL     1       2.882 -10.615  -6.009  0.00  0.00    -0.276 N 
ATOM     13  H   UNL     1       3.408 -13.474  -7.416  0.00  0.00    +0.144 HD
ATOM     14  H   UNL     1       3.807 -11.950  -8.000  0.00  0.00    +0.144 HD
ENDROOT
BRANCH  12  15
ATOM     15  C   UNL     1       3.428  -9.813  -6.990  0.00  0.00    +0.050 A 
ATOM     16  C   UNL     1       2.836  -9.751  -8.250  0.00  0.00    +0.030 A 
ATOM     17  C   UNL     1       3.384  -8.947  -9.229  0.00  0.00    +0.047 A 
ATOM     18  C   UNL     1       4.524  -8.202  -8.959  0.00  0.00    +0.121 A 
ATOM     19  C   UNL     1       5.115  -8.262  -7.705  0.00  0.00    +0.047 A 
ATOM     20  C   UNL     1       4.568  -9.059  -6.720  0.00  0.00    +0.030 A 
BRANCH  18  21
ATOM     21  O   UNL     1       5.061  -7.412  -9.926  0.00  0.00    -0.492 OA
BRANCH  21  22
ATOM     22  C   UNL     1       6.234  -6.671  -9.581  0.00  0.00    +0.225 C 
ATOM     23  C   UNL     1       6.690  -5.846 -10.786  0.00  0.00    +0.048 C 
ENDBRANCH  21  22
ENDBRANCH  18  21
ENDBRANCH  12  15
BRANCH   1  24
ATOM     24  S   UNL     1       2.429  -8.287  -4.794  0.00  0.00    -0.078 S 
BRANCH  24  25
ATOM     25  C   UNL     1       1.651  -7.929  -3.195  0.00  0.00    +0.173 C 
BRANCH  25  27
ATOM     26  N   UNL     1       1.102  -5.938  -1.834  0.00  0.00    -0.285 N 
ATOM     27  C   UNL     1       1.635  -6.440  -2.966  0.00  0.00    +0.227 C 
ATOM     28  O   UNL     1       2.103  -5.694  -3.799  0.00  0.00    -0.275 OA
ATOM     29  H   UNL     1       0.797  -6.536  -1.135  0.00  0.00    +0.155 HD
BRANCH  26  33
ATOM     30  C   UNL     1       0.759  -1.811  -1.344  0.00  0.00    +0.121 A 
ATOM     31  C   UNL     1       0.629  -2.373  -2.606  0.00  0.00    +0.047 A 
ATOM     32  C   UNL     1       0.743  -3.739  -2.769  0.00  0.00    +0.027 A 
ATOM     33  C   UNL     1       0.987  -4.551  -1.670  0.00  0.00    +0.034 A 
ATOM     34  C   UNL     1       1.117  -3.989  -0.407  0.00  0.00    +0.027 A 
ATOM     35  C   UNL     1       1.009  -2.622  -0.246  0.00  0.00    +0.047 A 
BRANCH  30  36
ATOM     36  O   UNL     1       0.648  -0.466  -1.184  0.00  0.00    -0.492 OA
BRANCH  36  38
ATOM     37  C   UNL     1       0.297   1.788  -1.982  0.00  0.00    +0.048 C 
ATOM     38  C   UNL     1       0.390   0.308  -2.357  0.00  0.00    +0.225 C 
ENDBRANCH  36  38
ENDBRANCH  30  36
ENDBRANCH  26  33
ENDBRANCH  25  27
ENDBRANCH  24  25
ENDBRANCH   1  24
TORSDOF 9
