REMARK  Name = ZINC48340973
REMARK  12 active torsions:
REMARK  status: ('A' for Active; 'I' for Inactive)
REMARK    1  A    between atoms: C_1  and  C_2
REMARK    2  A    between atoms: C_2  and  C_4
REMARK    3  A    between atoms: C_2  and  N_15
REMARK    4  A    between atoms: C_7  and  N_10
REMARK    5  A    between atoms: N_10  and  S_11
REMARK    6  A    between atoms: S_11  and  C_14
REMARK    7  A    between atoms: N_15  and  C_16
REMARK    8  A    between atoms: C_16  and  C_17
REMARK    9  A    between atoms: C_19  and  O_26
REMARK   10  A    between atoms: C_20  and  O_24
REMARK   11  A    between atoms: O_24  and  C_25
REMARK   12  A    between atoms: O_26  and  C_27
REMARK                            x       y       z     vdW  Elec       q    Type
REMARK                         _______ _______ _______ _____ _____    ______ ____
ROOT
ATOM      1  N   UNL     1       0.163  -0.435  -0.980  0.00  0.00    +0.386 N 
ATOM      2  H   UNL     1       1.078  -0.032  -1.116  0.00  0.00    -0.085 HD
ATOM      3  H   UNL     1       0.240  -1.441  -0.956  0.00  0.00    -0.085 HD
ENDROOT
BRANCH   1   5
ATOM      4  C   UNL     1      -0.400   1.573   0.303  0.00  0.00    -0.009 C 
ATOM      5  C   UNL     1      -0.400   0.043   0.290  0.00  0.00    -0.044 C 
BRANCH   5   6
ATOM      6  C   UNL     1       0.436  -0.469   1.434  0.00  0.00    -0.062 A 
ATOM      7  C   UNL     1       1.814  -0.496   1.324  0.00  0.00    +0.004 A 
ATOM      8  C   UNL     1       2.583  -0.965   2.372  0.00  0.00    +0.025 A 
ATOM      9  C   UNL     1       1.970  -1.409   3.536  0.00  0.00    +0.048 A 
ATOM     10  C   UNL     1       0.586  -1.380   3.644  0.00  0.00    +0.025 A 
ATOM     11  C   UNL     1      -0.177  -0.905   2.595  0.00  0.00    +0.004 A 
BRANCH   9  12
ATOM     12  N   UNL     1       2.745  -1.884   4.597  0.00  0.00    -0.221 N 
ATOM     13  H   UNL     1       2.796  -2.837   4.772  0.00  0.00    +0.173 HD
BRANCH  12  14
ATOM     14  S   UNL     1       3.576  -0.821   5.557  0.00  0.00    +0.040 S 
ATOM     15  O   UNL     1       4.244  -1.637   6.508  0.00  0.00    -0.155 OA
ATOM     16  O   UNL     1       4.313  -0.013   4.649  0.00  0.00    -0.155 OA
ATOM     17  C   UNL     1       2.294   0.169   6.374  0.00  0.00    +0.218 C 
ENDBRANCH  12  14
ENDBRANCH   9  12
ENDBRANCH   5   6
ENDBRANCH   1   5
BRANCH   1  18
ATOM     18  C   UNL     1      -0.717  -0.037  -2.087  0.00  0.00    -0.045 C 
BRANCH  18  19
ATOM     19  C   UNL     1      -0.139  -0.528  -3.389  0.00  0.00    -0.047 A 
ATOM     20  C   UNL     1      -0.707  -1.615  -4.029  0.00  0.00    +0.052 A 
ATOM     21  C   UNL     1      -0.177  -2.067  -5.227  0.00  0.00    +0.162 A 
ATOM     22  C   UNL     1       0.926  -1.426  -5.784  0.00  0.00    +0.163 A 
ATOM     23  C   UNL     1       1.490  -0.338  -5.138  0.00  0.00    +0.065 A 
ATOM     24  C   UNL     1       0.953   0.113  -3.945  0.00  0.00    +0.023 A 
ATOM     25 BR   UNL     1       1.720   1.602  -3.068  0.00  0.00    -0.050 Br
BRANCH  22  26
ATOM     26  O   UNL     1       1.449  -1.867  -6.959  0.00  0.00    -0.491 OA
ATOM     27  C   UNL     1       2.580  -1.161  -7.471  0.00  0.00    +0.277 C 
ENDBRANCH  22  26
BRANCH  21  28
ATOM     28  O   UNL     1      -0.734  -3.136  -5.857  0.00  0.00    -0.491 OA
ATOM     29  C   UNL     1      -1.863  -3.745  -5.228  0.00  0.00    +0.277 C 
ENDBRANCH  21  28
ENDBRANCH  18  19
ENDBRANCH   1  18
TORSDOF 8
