REMARK  Name = ZINC12521120
REMARK  10 active torsions:
REMARK  status: ('A' for Active; 'I' for Inactive)
REMARK    1  A    between atoms: C_1  and  C_2
REMARK    2  A    between atoms: C_5  and  C_35
REMARK    3  A    between atoms: C_6  and  S_8
REMARK    4  A    between atoms: S_8  and  N_11
REMARK    5  A    between atoms: N_11  and  C_12
REMARK    6  A    between atoms: C_15  and  C_18
REMARK    7  A    between atoms: N_20  and  C_21
REMARK    8  A    between atoms: C_21  and  C_22
REMARK    9  A    between atoms: C_22  and  C_24
REMARK   10  A    between atoms: C_22  and  N_29
REMARK                            x       y       z     vdW  Elec       q    Type
REMARK                         _______ _______ _______ _____ _____    ______ ____
ROOT
ATOM      1  C   UNL     1      -2.499  -4.803   2.145  0.00  0.00    +0.048 A 
ATOM      2  C   UNL     1      -2.288  -4.887   0.772  0.00  0.00    +0.025 A 
ATOM      3  C   UNL     1      -2.539  -6.065   0.106  0.00  0.00    +0.015 A 
ATOM      4  C   UNL     1      -3.007  -7.178   0.811  0.00  0.00    +0.037 A 
ATOM      5  C   UNL     1      -3.218  -7.090   2.190  0.00  0.00    +0.015 A 
ATOM      6  C   UNL     1      -2.960  -5.911   2.851  0.00  0.00    +0.025 A 
ENDROOT
BRANCH   4   7
ATOM      7  C   UNL     1      -3.277  -8.443   0.101  0.00  0.00    +0.244 C 
ATOM      8  O   UNL     1      -3.093  -8.518  -1.099  0.00  0.00    -0.270 OA
ATOM      9  N   UNL     1      -3.728  -9.515   0.782  0.00  0.00    -0.312 N 
ATOM     10  H   UNL     1      -3.875  -9.455   1.739  0.00  0.00    +0.149 HD
BRANCH   9  11
ATOM     11  C   UNL     1      -3.997 -10.771   0.077  0.00  0.00    +0.097 C 
BRANCH  11  12
ATOM     12  C   UNL     1      -4.606 -11.782   1.050  0.00  0.00    +0.016 C 
BRANCH  12  13
ATOM     13  N   UNL     1      -3.712 -11.951   2.203  0.00  0.00    +0.387 N 
ATOM     14  C   UNL     1      -2.372 -12.319   1.731  0.00  0.00    -0.078 C 
ATOM     15  C   UNL     1      -1.417 -12.418   2.923  0.00  0.00    -0.019 C 
ATOM     16  C   UNL     1      -1.929 -13.486   3.893  0.00  0.00    -0.004 C 
ATOM     17  C   UNL     1      -3.356 -13.131   4.321  0.00  0.00    -0.019 C 
ATOM     18  C   UNL     1      -4.239 -13.006   3.078  0.00  0.00    -0.078 C 
ATOM     19  H   UNL     1      -3.660 -11.085   2.717  0.00  0.00    -0.081 HD
ENDBRANCH  12  13
BRANCH  12  20
ATOM     20  C   UNL     1      -4.783 -13.106   0.353  0.00  0.00    +0.093 A 
ATOM     21  C   UNL     1      -5.919 -13.551  -0.214  0.00  0.00    +0.043 A 
ATOM     22  C   UNL     1      -5.638 -14.829  -0.747  0.00  0.00    +0.041 A 
ATOM     23  C   UNL     1      -4.346 -15.090  -0.475  0.00  0.00    +0.195 A 
ATOM     24  O   UNL     1      -3.832 -14.040   0.187  0.00  0.00    -0.469 OA
ENDBRANCH  12  20
ENDBRANCH  11  12
ENDBRANCH   9  11
ENDBRANCH   4   7
BRANCH   1  25
ATOM     25  N   UNL     1      -2.245  -3.611   2.814  0.00  0.00    -0.216 N 
ATOM     26  H   UNL     1      -2.893  -3.262   3.446  0.00  0.00    +0.174 HD
BRANCH  25  27
ATOM     27  S   UNL     1      -0.836  -2.788   2.533  0.00  0.00    +0.073 S 
ATOM     28  O   UNL     1      -0.823  -1.686   3.430  0.00  0.00    -0.150 OA
ATOM     29  O   UNL     1      -0.736  -2.624   1.125  0.00  0.00    -0.150 OA
BRANCH  27  35
ATOM     30  C   UNL     1       3.386  -5.655   1.405  0.00  0.00    +0.044 C 
ATOM     31  C   UNL     1       2.418  -5.143   2.440  0.00  0.00    -0.049 A 
ATOM     32  C   UNL     1       2.570  -5.503   3.766  0.00  0.00    +0.004 A 
ATOM     33  C   UNL     1       1.681  -5.034   4.715  0.00  0.00    +0.005 A 
ATOM     34  C   UNL     1       0.641  -4.205   4.338  0.00  0.00    -0.024 A 
ATOM     35  C   UNL     1       0.490  -3.844   3.013  0.00  0.00    +0.112 A 
ATOM     36  C   UNL     1       1.381  -4.310   2.064  0.00  0.00    +0.032 A 
ATOM     37  C   UNL     1      -0.328  -3.694   5.373  0.00  0.00    +0.046 C 
ENDBRANCH  27  35
ENDBRANCH  25  27
ENDBRANCH   1  25
TORSDOF 8
