REMARK  Name = ZINC01142333
REMARK  10 active torsions:
REMARK  status: ('A' for Active; 'I' for Inactive)
REMARK    1  A    between atoms: C_1  and  O_2
REMARK    2  A    between atoms: O_2  and  C_3
REMARK    3  A    between atoms: C_5  and  C_16
REMARK    4  A    between atoms: C_8  and  O_9
REMARK    5  A    between atoms: O_9  and  C_10
REMARK    6  A    between atoms: C_10  and  C_11
REMARK    7  A    between atoms: C_11  and  O_13
REMARK    8  A    between atoms: O_13  and  C_14
REMARK    9  A    between atoms: C_29  and  N_33
REMARK   10  A    between atoms: C_30  and  C_31
REMARK                            x       y       z     vdW  Elec       q    Type
REMARK                         _______ _______ _______ _____ _____    ______ ____
ROOT
ATOM      1  C   UNL     1       1.223  -2.189  -0.020  0.00  0.00    +0.099 C 
ATOM      2  C   UNL     1       1.928  -2.674  -1.261  0.00  0.00    +0.008 A 
ATOM      3  C   UNL     1       1.250  -2.637  -2.481  0.00  0.00    +0.009 A 
ATOM      4  C   UNL     1       1.837  -3.063  -3.631  0.00  0.00    +0.009 A 
ATOM      5  C   UNL     1       3.155  -3.550  -3.601  0.00  0.00    -0.014 A 
ATOM      6  C   UNL     1       3.797  -3.996  -4.769  0.00  0.00    +0.008 A 
ATOM      7  C   UNL     1       5.074  -4.462  -4.699  0.00  0.00    +0.001 A 
ATOM      8  C   UNL     1       5.756  -4.505  -3.485  0.00  0.00    +0.001 A 
ATOM      9  C   UNL     1       5.165  -4.081  -2.333  0.00  0.00    +0.012 A 
ATOM     10  C   UNL     1       3.849  -3.592  -2.368  0.00  0.00    +0.025 A 
ATOM     11  C   UNL     1       3.208  -3.142  -1.192  0.00  0.00    +0.142 A 
ATOM     12  O   UNL     1       3.879  -3.182  -0.016  0.00  0.00    -0.440 OA
ATOM     13  C   UNL     1       3.202  -3.148   1.145  0.00  0.00    +0.199 C 
ATOM     14  C   UNL     1       1.930  -2.685   1.209  0.00  0.00    +0.098 C 
ENDROOT
BRANCH   1  17
ATOM     15  C   UNL     1       2.386   1.405  -0.014  0.00  0.00    +0.162 A 
ATOM     16  C   UNL     1       2.399   0.020  -0.021  0.00  0.00    +0.055 A 
ATOM     17  C   UNL     1       1.208  -0.682  -0.013  0.00  0.00    -0.017 A 
ATOM     18  C   UNL     1       0.002  -0.004   0.002  0.00  0.00    +0.026 A 
ATOM     19  C   UNL     1      -0.017   1.379   0.010  0.00  0.00    +0.065 A 
ATOM     20  C   UNL     1       1.174   2.088   0.002  0.00  0.00    +0.164 A 
ATOM     21 BR   UNL     1      -1.624  -0.970   0.012  0.00  0.00    -0.050 Br
BRANCH  15  23
ATOM     22  C   UNL     1       4.764   1.331  -0.036  0.00  0.00    +0.277 C 
ATOM     23  O   UNL     1       3.558   2.097  -0.021  0.00  0.00    -0.491 OA
ENDBRANCH  15  23
BRANCH  20  24
ATOM     24  O   UNL     1       1.157   3.448   0.009  0.00  0.00    -0.477 OA
BRANCH  24  25
ATOM     25  C   UNL     1      -0.124   4.081   0.024  0.00  0.00    +0.349 C 
BRANCH  25  26
ATOM     26  C   UNL     1       0.055   5.577   0.030  0.00  0.00    +0.345 C 
ATOM     27  O   UNL     1       1.166   6.053   0.022  0.00  0.00    -0.247 OA
BRANCH  26  28
ATOM     28  O   UNL     1      -1.019   6.382   0.044  0.00  0.00    -0.466 OA
ATOM     29  C   UNL     1      -0.771   7.812   0.049  0.00  0.00    +0.280 C 
ENDBRANCH  26  28
ENDBRANCH  25  26
ENDBRANCH  24  25
ENDBRANCH  20  24
ENDBRANCH   1  17
BRANCH  13  30
ATOM     30  N   UNL     1       3.814  -3.592   2.291  0.00  0.00    -0.328 N 
ATOM     31  H   UNL     1       4.724  -3.925   2.257  0.00  0.00    +0.145 HD
ATOM     32  H   UNL     1       3.336  -3.572   3.134  0.00  0.00    +0.145 HD
ENDBRANCH  13  30
BRANCH  14  33
ATOM     33  C   UNL     1       1.249  -2.669   2.469  0.00  0.00    +0.101 C 
ATOM     34  N   UNL     1       0.709  -2.656   3.468  0.00  0.00    -0.191 NA
ENDBRANCH  14  33
TORSDOF 8
