REMARK  Name = ZINC08876738
REMARK  8 active torsions:
REMARK  status: ('A' for Active; 'I' for Inactive)
REMARK    1  A    between atoms: C_1  and  O_2
REMARK    2  A    between atoms: O_2  and  C_3
REMARK    3  A    between atoms: C_6  and  N_9
REMARK    4  A    between atoms: C_10  and  C_12
REMARK    5  A    between atoms: C_15  and  C_28
REMARK    6  A    between atoms: C_28  and  C_29
REMARK    7  A    between atoms: C_29  and  S_30
REMARK    8  A    between atoms: S_30  and  C_31
REMARK                            x       y       z     vdW  Elec       q    Type
REMARK                         _______ _______ _______ _____ _____    ______ ____
ROOT
ATOM      1  C   UNL     1      -0.804   1.611   1.226  0.00  0.00    +0.076 C 
ATOM      2  C   UNL     1      -0.010   1.072   0.005  0.00  0.00    -0.004 C 
ATOM      3  C   UNL     1      -0.833   1.637  -1.181  0.00  0.00    -0.068 C 
ATOM      4  C   UNL     1      -1.289   2.986   0.737  0.00  0.00    +0.049 C 
ATOM      5  C   UNL     1      -2.661   3.290   1.274  0.00  0.00    -0.026 A 
ATOM      6  C   UNL     1      -3.886   2.674   1.139  0.00  0.00    +0.004 A 
ATOM      7  C   UNL     1      -4.999   3.202   1.770  0.00  0.00    +0.002 A 
ATOM      8  C   UNL     1      -4.878   4.347   2.535  0.00  0.00    +0.022 A 
ATOM      9  C   UNL     1      -3.653   4.968   2.673  0.00  0.00    +0.062 A 
ATOM     10  C   UNL     1      -2.527   4.443   2.040  0.00  0.00    +0.054 A 
ATOM     11  N   UNL     1      -1.201   4.881   2.024  0.00  0.00    -0.285 N 
ATOM     12  C   UNL     1      -0.411   4.083   1.282  0.00  0.00    +0.211 C 
ATOM     13  O   UNL     1       0.779   4.220   1.090  0.00  0.00    -0.277 OA
ATOM     14 CL   UNL     1      -3.513   6.406   3.635  0.00  0.00    -0.082 Cl
ATOM     15  H   UNL     1      -0.886   5.669   2.494  0.00  0.00    +0.155 HD
ATOM     16  N   UNL     1      -1.276   2.968  -0.725  0.00  0.00    +0.394 N 
ATOM     17  H   UNL     1      -2.220   3.158  -1.081  0.00  0.00    -0.083 HD
ATOM     18  H   UNL     1      -0.628   3.685  -1.073  0.00  0.00    -0.083 HD
ENDROOT
BRANCH   1  20
ATOM     19  N   UNL     1      -2.357   0.531   2.819  0.00  0.00    -0.285 N 
ATOM     20  C   UNL     1      -1.973   0.714   1.540  0.00  0.00    +0.220 C 
ATOM     21  O   UNL     1      -2.568   0.156   0.642  0.00  0.00    -0.275 OA
ATOM     22  H   UNL     1      -1.934   1.037   3.530  0.00  0.00    +0.155 HD
BRANCH  19  26
ATOM     23  C   UNL     1      -5.366  -2.213   3.720  0.00  0.00    +0.120 A 
ATOM     24  C   UNL     1      -4.482  -2.469   2.681  0.00  0.00    +0.047 A 
ATOM     25  C   UNL     1      -3.486  -1.561   2.382  0.00  0.00    +0.027 A 
ATOM     26  C   UNL     1      -3.368  -0.391   3.121  0.00  0.00    +0.034 A 
ATOM     27  C   UNL     1      -4.250  -0.138   4.164  0.00  0.00    +0.027 A 
ATOM     28  C   UNL     1      -5.249  -1.044   4.458  0.00  0.00    +0.047 A 
BRANCH  23  30
ATOM     29  C   UNL     1      -7.221  -2.779   5.095  0.00  0.00    +0.277 C 
ATOM     30  O   UNL     1      -6.347  -3.107   4.013  0.00  0.00    -0.495 OA
ENDBRANCH  23  30
ENDBRANCH  19  26
ENDBRANCH   1  20
BRANCH   3  31
ATOM     31  C   UNL     1       0.045   1.757  -2.429  0.00  0.00    -0.005 C 
BRANCH  31  32
ATOM     32  C   UNL     1      -0.814   2.197  -3.616  0.00  0.00    +0.067 C 
BRANCH  32  33
ATOM     33  S   UNL     1       0.227   2.340  -5.095  0.00  0.00    -0.164 S 
ATOM     34  C   UNL     1      -0.927   2.862  -6.394  0.00  0.00    +0.084 C 
ENDBRANCH  32  33
ENDBRANCH  31  32
ENDBRANCH   3  31
TORSDOF 6
