REMARK  Name = ZINC39938500
REMARK  6 active torsions:
REMARK  status: ('A' for Active; 'I' for Inactive)
REMARK    1  A    between atoms: C_4  and  C_7
REMARK    2  A    between atoms: C_7  and  C_9
REMARK    3  A    between atoms: C_7  and  S_15
REMARK    4  A    between atoms: S_15  and  C_16
REMARK    5  A    between atoms: C_20  and  C_25
REMARK    6  A    between atoms: N_21  and  C_22
REMARK                            x       y       z     vdW  Elec       q    Type
REMARK                         _______ _______ _______ _____ _____    ______ ____
ROOT
ATOM      1  C   UNL     1       3.852  -0.531  -2.979  0.00  0.00    +0.238 C 
ATOM      2  N   UNL     1       2.666   0.337  -3.053  0.00  0.00    -0.237 N 
ATOM      3  N   UNL     1       3.092   1.623  -2.704  0.00  0.00    -0.169 NA
ATOM      4  C   UNL     1       4.370   1.643  -2.432  0.00  0.00    +0.147 C 
ATOM      5  N   UNL     1       4.941   0.372  -2.570  0.00  0.00    -0.282 N 
ATOM      6  H   UNL     1       1.765   0.069  -3.296  0.00  0.00    +0.171 HD
ENDROOT
BRANCH   4   7
ATOM      7  C   UNL     1       5.081   2.792  -2.052  0.00  0.00    +0.022 C 
ATOM      8  C   UNL     1       4.564   4.068  -1.829  0.00  0.00    +0.006 A 
ATOM      9  C   UNL     1       3.256   4.593  -1.904  0.00  0.00    +0.010 A 
ATOM     10  C   UNL     1       3.040   5.905  -1.626  0.00  0.00    +0.001 A 
ATOM     11  C   UNL     1       4.085   6.758  -1.265  0.00  0.00    +0.002 A 
ATOM     12  C   UNL     1       5.365   6.321  -1.174  0.00  0.00    +0.026 A 
ATOM     13  C   UNL     1       5.669   4.963  -1.449  0.00  0.00    +0.043 A 
ATOM     14  N   UNL     1       6.811   4.303  -1.431  0.00  0.00    -0.380 N 
ATOM     15  C   UNL     1       6.567   2.903  -1.792  0.00  0.00    +0.152 C 
ATOM     16  H   UNL     1       7.675   4.683  -1.209  0.00  0.00    +0.160 HD
ENDBRANCH   4   7
BRANCH   5  17
ATOM     17  C   UNL     1       6.343   0.010  -2.351  0.00  0.00    +0.078 C 
ATOM     18  C   UNL     1       6.756  -1.433  -2.650  0.00  0.00    +0.024 C 
ATOM     19  C   UNL     1       6.654  -0.952  -1.202  0.00  0.00    +0.024 C 
ENDBRANCH   5  17
BRANCH   1  20
ATOM     20  S   UNL     1       3.610  -1.834  -1.740  0.00  0.00    -0.101 S 
BRANCH  20  21
ATOM     21  C   UNL     1       3.250  -0.925  -0.212  0.00  0.00    +0.166 C 
BRANCH  21  22
ATOM     22  C   UNL     1       3.146  -1.894   0.937  0.00  0.00    +0.238 C 
ATOM     23  O   UNL     1       2.936  -3.069   0.722  0.00  0.00    -0.274 OA
ATOM     24  N   UNL     1       3.286  -1.456   2.204  0.00  0.00    -0.239 N 
ATOM     25  C   UNL     1       3.193  -2.323   3.232  0.00  0.00    +0.303 C 
ATOM     26  O   UNL     1       2.982  -3.500   3.016  0.00  0.00    -0.253 OA
ATOM     27  N   UNL     1       3.334  -1.884   4.498  0.00  0.00    -0.313 N 
ATOM     28  H   UNL     1       3.454  -0.516   2.376  0.00  0.00    +0.159 HD
ATOM     29  H   UNL     1       3.502  -0.944   4.670  0.00  0.00    +0.146 HD
ATOM     30  H   UNL     1       3.267  -2.508   5.238  0.00  0.00    +0.146 HD
ENDBRANCH  21  22
BRANCH  21  34
ATOM     31  C   UNL     1      -0.445   1.175  -0.644  0.00  0.00    +0.000 A 
ATOM     32  C   UNL     1       0.720   1.873  -0.387  0.00  0.00    +0.000 A 
ATOM     33  C   UNL     1       1.916   1.193  -0.247  0.00  0.00    +0.005 A 
ATOM     34  C   UNL     1       1.946  -0.184  -0.363  0.00  0.00    -0.026 A 
ATOM     35  C   UNL     1       0.780  -0.881  -0.620  0.00  0.00    +0.005 A 
ATOM     36  C   UNL     1      -0.415  -0.202  -0.761  0.00  0.00    +0.000 A 
ENDBRANCH  21  34
ENDBRANCH  20  21
ENDBRANCH   1  20
TORSDOF 6
