REMARK  Name = ZINC09463826
REMARK  10 active torsions:
REMARK  status: ('A' for Active; 'I' for Inactive)
REMARK    1  A    between atoms: C_1  and  C_2
REMARK    2  A    between atoms: C_5  and  N_8
REMARK    3  A    between atoms: C_9  and  C_32
REMARK    4  A    between atoms: C_10  and  N_14
REMARK    5  A    between atoms: C_11  and  C_13
REMARK    6  A    between atoms: C_15  and  C_17
REMARK    7  A    between atoms: C_17  and  S_18
REMARK    8  A    between atoms: S_18  and  C_19
REMARK    9  A    between atoms: C_22  and  C_25
REMARK   10  A    between atoms: N_23  and  N_24
REMARK                            x       y       z     vdW  Elec       q    Type
REMARK                         _______ _______ _______ _____ _____    ______ ____
ROOT
ATOM      1  N   UNL     1      -1.635   1.344   2.394  0.00  0.00    -0.282 N 
ATOM      2  C   UNL     1      -1.931   1.207   1.087  0.00  0.00    +0.228 C 
ATOM      3  O   UNL     1      -3.071   1.361   0.703  0.00  0.00    -0.275 OA
ATOM      4  H   UNL     1      -0.713   1.302   2.690  0.00  0.00    +0.155 HD
ENDROOT
BRANCH   1   7
ATOM      5  N   UNL     1      -3.926   1.393   5.118  0.00  0.00    -0.235 N 
ATOM      6  C   UNL     1      -2.807   0.906   4.518  0.00  0.00    +0.063 A 
ATOM      7  C   UNL     1      -2.666   1.549   3.331  0.00  0.00    +0.078 A 
ATOM      8  C   UNL     1      -3.727   2.458   3.206  0.00  0.00    +0.082 A 
ATOM      9  N   UNL     1      -4.481   2.361   4.271  0.00  0.00    -0.170 NA
ATOM     10  C   UNL     1      -3.960   3.387   2.042  0.00  0.00    +0.069 C 
ATOM     11  C   UNL     1      -1.890  -0.155   5.070  0.00  0.00    +0.068 C 
BRANCH   5  16
ATOM     12  C   UNL     1      -5.982  -0.208  10.160  0.00  0.00    +0.044 C 
ATOM     13  C   UNL     1      -5.436   0.217   8.821  0.00  0.00    -0.050 A 
ATOM     14  C   UNL     1      -4.074   0.383   8.652  0.00  0.00    +0.005 A 
ATOM     15  C   UNL     1      -3.570   0.772   7.427  0.00  0.00    +0.028 A 
ATOM     16  C   UNL     1      -4.434   0.998   6.363  0.00  0.00    +0.066 A 
ATOM     17  C   UNL     1      -5.802   0.837   6.537  0.00  0.00    +0.028 A 
ATOM     18  C   UNL     1      -6.299   0.441   7.764  0.00  0.00    +0.005 A 
ENDBRANCH   5  16
ENDBRANCH   1   7
BRANCH   2  19
ATOM     19  C   UNL     1      -0.844   0.862   0.101  0.00  0.00    +0.173 C 
BRANCH  19  20
ATOM     20  S   UNL     1      -1.552   0.749  -1.562  0.00  0.00    -0.075 S 
BRANCH  20  21
ATOM     21  C   UNL     1      -0.104   0.346  -2.483  0.00  0.00    +0.209 A 
ATOM     22  N   UNL     1       1.110   0.198  -2.002  0.00  0.00    -0.121 NA
ATOM     23  N   UNL     1       1.927  -0.097  -2.950  0.00  0.00    -0.127 NA
ATOM     24  C   UNL     1       1.286  -0.146  -4.094  0.00  0.00    +0.182 A 
ATOM     25  N   UNL     1      -0.035   0.136  -3.830  0.00  0.00    -0.224 N 
BRANCH  24  26
ATOM     26  C   UNL     1       1.873  -0.448  -5.417  0.00  0.00    +0.021 A 
ATOM     27  C   UNL     1       3.121  -1.066  -5.505  0.00  0.00    +0.013 A 
ATOM     28  C   UNL     1       3.661  -1.351  -6.742  0.00  0.00    +0.021 A 
ATOM     29  C   UNL     1       2.972  -1.014  -7.895  0.00  0.00    +0.041 A 
ATOM     30  C   UNL     1       1.736  -0.396  -7.814  0.00  0.00    +0.021 A 
ATOM     31  C   UNL     1       1.183  -0.112  -6.583  0.00  0.00    +0.013 A 
ATOM     32 CL   UNL     1       3.661  -1.369  -9.449  0.00  0.00    -0.084 Cl
ENDBRANCH  24  26
BRANCH  25  33
ATOM     33  N   UNL     1      -1.062   0.194  -4.729  0.00  0.00    -0.295 N 
ATOM     34  H   UNL     1      -1.173   1.128  -5.092  0.00  0.00    +0.163 HD
ATOM     35  H   UNL     1      -0.926  -0.471  -5.476  0.00  0.00    +0.163 HD
ENDBRANCH  25  33
ENDBRANCH  20  21
ENDBRANCH  19  20
ENDBRANCH   2  19
TORSDOF 7
