REMARK  Name = ZINC14505413
REMARK  2 active torsions:
REMARK  status: ('A' for Active; 'I' for Inactive)
REMARK    1  A    between atoms: C_15  and  C_17
REMARK    2  A    between atoms: C_17  and  N_18
REMARK                            x       y       z     vdW  Elec       q    Type
REMARK                         _______ _______ _______ _____ _____    ______ ____
ROOT
ATOM      1  C   UNL     1      -1.036 -11.057  -6.925  0.00  0.00    +0.001 A 
ATOM      2  C   UNL     1      -1.757  -9.894  -7.177  0.00  0.00    +0.001 A 
ATOM      3  C   UNL     1      -1.637  -8.807  -6.362  0.00  0.00    +0.010 A 
ATOM      4  C   UNL     1      -0.776  -8.863  -5.260  0.00  0.00    +0.009 A 
ATOM      5  C   UNL     1      -0.042 -10.040  -5.000  0.00  0.00    -0.016 A 
ATOM      6  C   UNL     1      -0.190 -11.142  -5.861  0.00  0.00    +0.008 A 
ATOM      7  C   UNL     1       0.827 -10.108  -3.892  0.00  0.00    +0.010 A 
ATOM      8  C   UNL     1       0.961  -9.036  -3.067  0.00  0.00    +0.018 A 
ATOM      9  C   UNL     1       0.260  -7.866  -3.289  0.00  0.00    +0.041 A 
ATOM     10  C   UNL     1      -0.632  -7.697  -4.365  0.00  0.00    +0.088 A 
ATOM     11  N   UNL     1      -1.237  -6.504  -4.446  0.00  0.00    -0.224 NA
ATOM     12  C   UNL     1      -1.022  -5.539  -3.580  0.00  0.00    +0.166 A 
ATOM     13  S   UNL     1       0.166  -6.288  -2.474  0.00  0.00    -0.052 S 
ATOM     14  N   UNL     1      -1.570  -4.266  -3.538  0.00  0.00    -0.263 N 
ATOM     15  C   UNL     1      -1.217  -3.413  -2.557  0.00  0.00    +0.237 C 
ATOM     16  O   UNL     1      -0.420  -3.758  -1.710  0.00  0.00    -0.274 OA
ATOM     17  H   UNL     1      -2.207  -3.991  -4.215  0.00  0.00    +0.157 HD
ENDROOT
BRANCH  15  18
ATOM     18  C   UNL     1      -1.813  -2.029  -2.511  0.00  0.00    +0.214 C 
BRANCH  18  19
ATOM     19  N   UNL     1      -1.273  -1.303  -1.359  0.00  0.00    -0.215 N 
ATOM     20  C   UNL     1      -0.155  -0.544  -1.395  0.00  0.00    +0.251 C 
ATOM     21  O   UNL     1       0.566  -0.342  -2.348  0.00  0.00    -0.272 OA
ATOM     22  C   UNL     1       0.002  -0.004   0.002  0.00  0.00    +0.138 C 
ATOM     23  C   UNL     1      -0.019   1.530   0.011  0.00  0.00    +0.045 C 
ATOM     24  C   UNL     1       1.487   1.876  -0.002  0.00  0.00    +0.038 C 
ATOM     25  C   UNL     1       2.177   0.676   0.613  0.00  0.00    -0.042 A 
ATOM     26  C   UNL     1       1.317  -0.410   0.610  0.00  0.00    -0.012 A 
ATOM     27  C   UNL     1       1.744  -1.624   1.124  0.00  0.00    +0.006 A 
ATOM     28  C   UNL     1       3.018  -1.753   1.640  0.00  0.00    +0.000 A 
ATOM     29  C   UNL     1       3.874  -0.668   1.644  0.00  0.00    +0.000 A 
ATOM     30  C   UNL     1       3.453   0.543   1.131  0.00  0.00    +0.004 A 
ATOM     31  N   UNL     1      -1.133  -0.558   0.742  0.00  0.00    -0.281 N 
ATOM     32  C   UNL     1      -1.826  -1.307  -0.139  0.00  0.00    +0.310 C 
ATOM     33  O   UNL     1      -2.838  -1.919   0.142  0.00  0.00    -0.252 OA
ATOM     34  H   UNL     1      -1.344  -0.414   1.678  0.00  0.00    +0.152 HD
ENDBRANCH  18  19
ENDBRANCH  15  18
TORSDOF 2
