REMARK  Name = ZINC39301986
REMARK  9 active torsions:
REMARK  status: ('A' for Active; 'I' for Inactive)
REMARK    1  A    between atoms: C_1  and  C_2
REMARK    2  A    between atoms: C_4  and  C_17
REMARK    3  A    between atoms: C_6  and  C_16
REMARK    4  A    between atoms: N_8  and  C_9
REMARK    5  A    between atoms: C_17  and  C_18
REMARK    6  A    between atoms: C_18  and  C_19
REMARK    7  A    between atoms: N_21  and  C_22
REMARK    8  A    between atoms: C_22  and  C_23
REMARK    9  A    between atoms: C_23  and  N_24
REMARK                            x       y       z     vdW  Elec       q    Type
REMARK                         _______ _______ _______ _____ _____    ______ ____
ROOT
ATOM      1  C   UNL     1      -4.930   0.566  -0.787  0.00  0.00    +0.213 C 
ATOM      2  O   UNL     1      -4.678   1.752  -0.809  0.00  0.00    -0.276 OA
ATOM      3  N   UNL     1      -6.183   0.138  -1.038  0.00  0.00    -0.314 N 
ATOM      4  H   UNL     1      -6.384  -0.811  -1.020  0.00  0.00    +0.149 HD
ENDROOT
BRANCH   1   5
ATOM      5  C   UNL     1      -3.841  -0.429  -0.479  0.00  0.00    +0.096 C 
BRANCH   5   6
ATOM      6  C   UNL     1      -2.525   0.313  -0.235  0.00  0.00    +0.020 C 
BRANCH   6   9
ATOM      7  C   UNL     1      -0.189   1.468  -0.494  0.00  0.00    +0.031 C 
ATOM      8  C   UNL     1      -0.023  -0.021  -0.184  0.00  0.00    +0.104 C 
ATOM      9  C   UNL     1      -1.398  -0.701  -0.027  0.00  0.00    +0.057 C 
ATOM     10  C   UNL     1      -1.391  -1.207   1.397  0.00  0.00    +0.039 C 
ATOM     11  N   UNL     1      -0.289  -0.906   1.954  0.00  0.00    -0.188 NA
ATOM     12  N   UNL     1       0.604  -0.211   1.135  0.00  0.00    -0.221 N 
ATOM     13  C   UNL     1      -2.520  -1.954   2.058  0.00  0.00    +0.063 C 
BRANCH  12  14
ATOM     14  C   UNL     1       1.876   0.230   1.502  0.00  0.00    +0.053 A 
ATOM     15  C   UNL     1       2.665   0.919   0.588  0.00  0.00    +0.025 A 
ATOM     16  C   UNL     1       3.923   1.355   0.954  0.00  0.00    +0.003 A 
ATOM     17  C   UNL     1       4.399   1.106   2.229  0.00  0.00    +0.015 A 
ATOM     18  C   UNL     1       3.617   0.420   3.141  0.00  0.00    +0.020 A 
ATOM     19  C   UNL     1       2.354  -0.013   2.783  0.00  0.00    +0.040 A 
ATOM     20 BR   UNL     1       4.274   0.082   4.882  0.00  0.00    -0.050 Br
ENDBRANCH  12  14
ENDBRANCH   6   9
ENDBRANCH   5   6
ENDBRANCH   1   5
BRANCH   3  21
ATOM     21  C   UNL     1      -7.241   1.105  -1.337  0.00  0.00    +0.126 C 
BRANCH  21  22
ATOM     22  C   UNL     1      -8.556   0.363  -1.581  0.00  0.00    +0.145 C 
BRANCH  22  23
ATOM     23  N   UNL     1      -9.615   1.330  -1.881  0.00  0.00    -0.291 N 
ATOM     24  C   UNL     1     -10.445   1.945  -0.947  0.00  0.00    +0.070 A 
ATOM     25  C   UNL     1     -10.548   1.865   0.434  0.00  0.00    +0.028 A 
ATOM     26  C   UNL     1     -11.497   2.618   1.098  0.00  0.00    +0.002 A 
ATOM     27  C   UNL     1     -12.347   3.451   0.390  0.00  0.00    +0.002 A 
ATOM     28  C   UNL     1     -12.252   3.537  -0.985  0.00  0.00    +0.028 A 
ATOM     29  C   UNL     1     -11.302   2.786  -1.660  0.00  0.00    +0.067 A 
ATOM     30  N   UNL     1     -10.966   2.656  -3.005  0.00  0.00    -0.306 N 
ATOM     31  H   UNL     1     -11.390   3.120  -3.744  0.00  0.00    +0.170 HD
ATOM     32  C   UNL     1      -9.947   1.781  -3.105  0.00  0.00    +0.328 A 
ATOM     33  O   UNL     1      -9.411   1.446  -4.145  0.00  0.00    -0.247 OA
ENDBRANCH  22  23
ENDBRANCH  21  22
ENDBRANCH   3  21
TORSDOF 7
