REMARK  Name = ZINC12311242
REMARK  11 active torsions:
REMARK  status: ('A' for Active; 'I' for Inactive)
REMARK    1  A    between atoms: C_1  and  C_2
REMARK    2  A    between atoms: C_2  and  N_3
REMARK    3  A    between atoms: N_3  and  C_4
REMARK    4  A    between atoms: N_3  and  S_6
REMARK    5  A    between atoms: C_4  and  C_5
REMARK    6  A    between atoms: S_6  and  C_9
REMARK    7  A    between atoms: C_12  and  C_15
REMARK    8  A    between atoms: C_18  and  C_20
REMARK    9  A    between atoms: C_23  and  C_38
REMARK   10  A    between atoms: C_34  and  C_36
REMARK   11  A    between atoms: C_34  and  C_37
REMARK                            x       y       z     vdW  Elec       q    Type
REMARK                         _______ _______ _______ _____ _____    ______ ____
ROOT
ATOM      1  C   UNL     1      -4.839   3.997   3.533  0.00  0.00    +0.135 A 
ATOM      2  C   UNL     1      -6.123   4.363   3.277  0.00  0.00    +0.050 A 
ATOM      3  C   UNL     1      -6.345   5.574   3.964  0.00  0.00    +0.046 A 
ATOM      4  C   UNL     1      -5.197   5.883   4.598  0.00  0.00    +0.118 A 
ATOM      5  O   UNL     1      -4.292   4.926   4.340  0.00  0.00    -0.459 OA
ENDROOT
BRANCH   4   6
ATOM      6  C   UNL     1      -4.970   7.099   5.460  0.00  0.00    +0.125 C 
ATOM      7  C   UNL     1      -3.855   7.922   4.879  0.00  0.00    +0.030 A 
ATOM      8  C   UNL     1      -3.634   8.317   3.567  0.00  0.00    +0.066 A 
ATOM      9  N   UNL     1      -2.533   9.029   3.531  0.00  0.00    -0.177 NA
ATOM     10  N   UNL     1      -2.012   9.109   4.833  0.00  0.00    -0.263 N 
ATOM     11  H   UNL     1      -1.204   9.576   5.099  0.00  0.00    +0.190 HD
ATOM     12  C   UNL     1      -2.836   8.422   5.646  0.00  0.00    +0.123 A 
ATOM     13  N   UNL     1      -2.776   8.188   7.014  0.00  0.00    -0.303 N 
ATOM     14  C   UNL     1      -3.577   7.209   7.547  0.00  0.00    +0.017 C 
ATOM     15  C   UNL     1      -4.603   6.662   6.861  0.00  0.00    +0.027 C 
ATOM     16  C   UNL     1      -5.387   5.642   7.431  0.00  0.00    +0.162 C 
ATOM     17  O   UNL     1      -6.306   5.173   6.789  0.00  0.00    -0.292 OA
ATOM     18  C   UNL     1      -5.116   5.120   8.814  0.00  0.00    +0.086 C 
ATOM     19  C   UNL     1      -3.625   5.289   9.125  0.00  0.00    -0.023 C 
ATOM     20  C   UNL     1      -3.265   6.765   8.958  0.00  0.00    +0.058 C 
ATOM     21  C   UNL     1      -3.345   4.850  10.563  0.00  0.00    +0.011 C 
ATOM     22  C   UNL     1      -2.797   4.442   8.156  0.00  0.00    +0.011 C 
ATOM     23  C   UNL     1      -4.510   7.986   2.386  0.00  0.00    +0.068 C 
ATOM     24  H   UNL     1      -2.181   8.704   7.580  0.00  0.00    +0.153 HD
ENDBRANCH   4   6
BRANCH   1  28
ATOM     25  C   UNL     1      -2.898   0.520   2.058  0.00  0.00    +0.106 A 
ATOM     26  C   UNL     1      -2.212   1.395   2.882  0.00  0.00    +0.029 A 
ATOM     27  C   UNL     1      -2.837   2.526   3.365  0.00  0.00    +0.013 A 
ATOM     28  C   UNL     1      -4.163   2.788   3.019  0.00  0.00    +0.017 A 
ATOM     29  C   UNL     1      -4.849   1.902   2.187  0.00  0.00    +0.013 A 
ATOM     30  C   UNL     1      -4.211   0.777   1.707  0.00  0.00    +0.029 A 
BRANCH  25  31
ATOM     31  S   UNL     1      -2.092  -0.923   1.446  0.00  0.00    +0.061 S 
ATOM     32  O   UNL     1      -3.116  -1.857   1.133  0.00  0.00    -0.153 OA
ATOM     33  O   UNL     1      -1.043  -1.219   2.357  0.00  0.00    -0.153 OA
BRANCH  31  34
ATOM     34  N   UNL     1      -1.372  -0.511   0.012  0.00  0.00    -0.177 NA
BRANCH  34  36
ATOM     35  C   UNL     1      -0.019   1.526   0.010  0.00  0.00    +0.022 C 
ATOM     36  C   UNL     1       0.002  -0.004   0.002  0.00  0.00    +0.106 C 
ENDBRANCH  34  36
BRANCH  34  37
ATOM     37  C   UNL     1      -2.110  -0.654  -1.245  0.00  0.00    +0.106 C 
ATOM     38  C   UNL     1      -1.773  -2.003  -1.884  0.00  0.00    +0.022 C 
ENDBRANCH  34  37
ENDBRANCH  31  34
ENDBRANCH  25  31
ENDBRANCH   1  28
TORSDOF 6
