REMARK  Name = ZINC62361510
REMARK  5 active torsions:
REMARK  status: ('A' for Active; 'I' for Inactive)
REMARK    1  A    between atoms: C_2  and  C_6
REMARK    2  A    between atoms: N_8  and  C_9
REMARK    3  A    between atoms: C_9  and  C_11
REMARK    4  A    between atoms: C_9  and  C_17
REMARK    5  A    between atoms: N_18  and  O_19
REMARK                            x       y       z     vdW  Elec       q    Type
REMARK                         _______ _______ _______ _____ _____    ______ ____
ROOT
ATOM      1  C   UNL     1       3.578   5.033  -0.006  0.00  0.00    +0.143 C 
ENDROOT
BRANCH   1   2
ATOM      2  C   UNL     1       4.974   5.099  -0.628  0.00  0.00    +0.017 C 
ATOM      3  C   UNL     1       5.937   4.232   0.185  0.00  0.00    +0.006 C 
ATOM      4  C   UNL     1       7.333   4.298  -0.437  0.00  0.00    +0.000 C 
ATOM      5  C   UNL     1       7.825   5.747  -0.434  0.00  0.00    +0.000 C 
ATOM      6  C   UNL     1       6.862   6.614  -1.248  0.00  0.00    +0.000 C 
ATOM      7  C   UNL     1       5.466   6.548  -0.626  0.00  0.00    +0.006 C 
ENDBRANCH   1   2
BRANCH   1   8
ATOM      8  C   UNL     1       3.636   5.542   1.411  0.00  0.00    +0.152 C 
ATOM      9  N   UNL     1       3.966   4.743   2.371  0.00  0.00    -0.075 NA
ATOM     10  N   UNL     1       3.336   6.858   1.684  0.00  0.00    -0.342 N 
ATOM     11  H   UNL     1       3.088   7.458   0.963  0.00  0.00    +0.144 HD
ATOM     12  H   UNL     1       3.373   7.185   2.596  0.00  0.00    +0.144 HD
BRANCH   9  13
ATOM     13  O   UNL     1       4.021   5.221   3.703  0.00  0.00    -0.408 OA
ATOM     14  H   UNL     1       4.277   4.550   4.351  0.00  0.00    +0.328 HD
ENDBRANCH   9  13
ENDBRANCH   1   8
BRANCH   1  17
ATOM     15  C   UNL     1       1.786   3.383   0.003  0.00  0.00    +0.263 C 
ATOM     16  O   UNL     1       0.984   4.298   0.015  0.00  0.00    -0.268 OA
ATOM     17  N   UNL     1       3.107   3.646  -0.009  0.00  0.00    -0.300 N 
ATOM     18  H   UNL     1       3.747   2.917  -0.018  0.00  0.00    +0.150 HD
BRANCH  15  20
ATOM     19  C   UNL     1      -0.021   1.676   0.011  0.00  0.00    +0.079 A 
ATOM     20  C   UNL     1       1.312   1.989   0.000  0.00  0.00    +0.132 A 
ATOM     21  N   UNL     1       2.159   0.954  -0.013  0.00  0.00    -0.243 NA
ATOM     22  C   UNL     1       1.662  -0.253  -0.015  0.00  0.00    +0.156 A 
ATOM     23  S   UNL     1       0.002  -0.004   0.002  0.00  0.00    -0.083 S 
ENDBRANCH  15  20
ENDBRANCH   1  17
TORSDOF 5
