REMARK  Name = ZINC21258789
REMARK  8 active torsions:
REMARK  status: ('A' for Active; 'I' for Inactive)
REMARK    1  A    between atoms: C_1  and  C_2
REMARK    2  A    between atoms: C_2  and  C_3
REMARK    3  A    between atoms: C_2  and  O_4
REMARK    4  A    between atoms: O_4  and  C_5
REMARK    5  A    between atoms: C_8  and  C_13
REMARK    6  A    between atoms: C_10  and  O_11
REMARK    7  A    between atoms: O_11  and  C_12
REMARK    8  A    between atoms: C_18  and  C_28
REMARK                            x       y       z     vdW  Elec       q    Type
REMARK                         _______ _______ _______ _____ _____    ______ ____
ROOT
ATOM      1  C   UNL     1      -0.533   1.326   1.471  0.00  0.00    +0.032 C 
ATOM      2  C   UNL     1      -0.787   2.743   1.982  0.00  0.00    +0.059 C 
ATOM      3  C   UNL     1      -1.739   3.471   1.048  0.00  0.00    +0.017 C 
ATOM      4  C   UNL     1      -1.736   3.208  -0.270  0.00  0.00    +0.036 C 
ATOM      5  C   UNL     1      -2.620   3.858  -1.306  0.00  0.00    +0.136 C 
ATOM      6  N   UNL     1      -3.343   5.021  -0.835  0.00  0.00    -0.331 N 
ATOM      7  C   UNL     1      -4.311   4.910   0.162  0.00  0.00    +0.049 A 
ATOM      8  C   UNL     1      -5.653   5.123  -0.106  0.00  0.00    +0.025 A 
ATOM      9  C   UNL     1      -6.590   4.892   0.886  0.00  0.00    +0.002 A 
ATOM     10  C   UNL     1      -6.192   4.454   2.136  0.00  0.00    +0.002 A 
ATOM     11  C   UNL     1      -4.849   4.261   2.414  0.00  0.00    +0.025 A 
ATOM     12  C   UNL     1      -3.910   4.509   1.428  0.00  0.00    +0.052 A 
ATOM     13  N   UNL     1      -2.544   4.382   1.652  0.00  0.00    -0.316 N 
ATOM     14  C   UNL     1      -0.856   2.233  -0.798  0.00  0.00    +0.163 C 
ATOM     15  O   UNL     1      -0.856   2.033  -1.997  0.00  0.00    -0.292 OA
ATOM     16  C   UNL     1       0.075   1.439   0.068  0.00  0.00    +0.088 C 
ATOM     17  H   UNL     1      -3.132   6.011  -1.265  0.00  0.00    +0.147 HD
ATOM     18  H   UNL     1      -2.123   5.091   2.381  0.00  0.00    +0.152 HD
ENDROOT
BRANCH   5  19
ATOM     19  C   UNL     1      -3.620   2.839  -1.789  0.00  0.00    -0.019 A 
ATOM     20  C   UNL     1      -4.559   2.325  -0.913  0.00  0.00    +0.009 A 
ATOM     21  C   UNL     1      -5.481   1.394  -1.353  0.00  0.00    +0.050 A 
ATOM     22  C   UNL     1      -5.458   0.964  -2.670  0.00  0.00    +0.166 A 
ATOM     23  C   UNL     1      -4.509   1.477  -3.550  0.00  0.00    +0.167 A 
ATOM     24  C   UNL     1      -3.591   2.414  -3.104  0.00  0.00    +0.055 A 
ATOM     25  O   UNL     1      -4.692   0.902  -4.774  0.00  0.00    -0.453 OA
ATOM     26  C   UNL     1      -5.498  -0.267  -4.533  0.00  0.00    +0.466 C 
ATOM     27  O   UNL     1      -6.237   0.067  -3.343  0.00  0.00    -0.453 OA
ENDBRANCH   5  19
BRANCH   1  31
ATOM     28  C   UNL     1       2.196  -0.693   4.072  0.00  0.00    +0.162 A 
ATOM     29  C   UNL     1       2.569   0.490   3.455  0.00  0.00    +0.050 A 
ATOM     30  C   UNL     1       1.685   1.140   2.615  0.00  0.00    +0.008 A 
ATOM     31  C   UNL     1       0.427   0.613   2.387  0.00  0.00    -0.040 A 
ATOM     32  C   UNL     1       0.047  -0.565   3.004  0.00  0.00    +0.053 A 
ATOM     33  C   UNL     1       0.930  -1.224   3.843  0.00  0.00    +0.162 A 
BRANCH  33  34
ATOM     34  O   UNL     1       0.559  -2.385   4.447  0.00  0.00    -0.491 OA
ATOM     35  C   UNL     1      -0.755  -2.871   4.165  0.00  0.00    +0.277 C 
ENDBRANCH  33  34
BRANCH  28  36
ATOM     36  O   UNL     1       3.064  -1.333   4.900  0.00  0.00    -0.486 OA
BRANCH  36  38
ATOM     37  C   UNL     1       4.415   0.306   6.052  0.00  0.00    +0.051 C 
ATOM     38  C   UNL     1       4.386  -0.798   4.994  0.00  0.00    +0.167 C 
ATOM     39  C   UNL     1       5.359  -1.910   5.390  0.00  0.00    +0.051 C 
ENDBRANCH  36  38
ENDBRANCH  28  36
ENDBRANCH   1  31
TORSDOF 5
