REMARK  Name = ZINC09126163
REMARK  14 active torsions:
REMARK  status: ('A' for Active; 'I' for Inactive)
REMARK    1  A    between atoms: C_1  and  C_2
REMARK    2  A    between atoms: C_2  and  C_3
REMARK    3  A    between atoms: C_3  and  N_4
REMARK    4  A    between atoms: C_5  and  N_34
REMARK    5  A    between atoms: C_6  and  C_13
REMARK    6  A    between atoms: C_13  and  C_15
REMARK    7  A    between atoms: C_15  and  S_16
REMARK    8  A    between atoms: S_16  and  C_17
REMARK    9  A    between atoms: C_20  and  C_29
REMARK   10  A    between atoms: N_21  and  C_22
REMARK   11  A    between atoms: C_29  and  C_31
REMARK   12  A    between atoms: C_29  and  N_59
REMARK   13  A    between atoms: C_32  and  N_59
REMARK   14  A    between atoms: C_33  and  N_59
REMARK                            x       y       z     vdW  Elec       q    Type
REMARK                         _______ _______ _______ _____ _____    ______ ____
ROOT
ATOM      1  S   UNL     1      -2.690   0.756   0.102  0.00  0.00    -0.078 S 
ENDROOT
BRANCH   1   2
ATOM      2  C   UNL     1      -4.063   1.859   0.159  0.00  0.00    +0.196 A 
ATOM      3  N   UNL     1      -4.011   3.170   0.182  0.00  0.00    -0.122 NA
ATOM      4  N   UNL     1      -5.201   3.655   0.222  0.00  0.00    -0.135 NA
ATOM      5  C   UNL     1      -6.078   2.691   0.227  0.00  0.00    +0.125 A 
ATOM      6  N   UNL     1      -5.386   1.510   0.182  0.00  0.00    -0.275 N 
BRANCH   6   7
ATOM      7  C   UNL     1      -5.921   0.214   0.165  0.00  0.00    +0.050 A 
ATOM      8  C   UNL     1      -6.685  -0.209  -0.914  0.00  0.00    +0.028 A 
ATOM      9  C   UNL     1      -7.208  -1.487  -0.931  0.00  0.00    +0.022 A 
ATOM     10  C   UNL     1      -6.979  -2.343   0.133  0.00  0.00    +0.041 A 
ATOM     11  C   UNL     1      -6.222  -1.922   1.212  0.00  0.00    +0.022 A 
ATOM     12  C   UNL     1      -5.693  -0.646   1.230  0.00  0.00    +0.028 A 
ATOM     13 CL   UNL     1      -7.642  -3.947   0.112  0.00  0.00    -0.084 Cl
ENDBRANCH   6   7
BRANCH   5  14
ATOM     14  C   UNL     1      -7.576   2.848   0.269  0.00  0.00    -0.003 C 
ATOM     15  C   UNL     1      -8.081   3.298  -1.103  0.00  0.00    -0.005 C 
BRANCH  14  18
ATOM     16  C   UNL     1      -9.392   4.034   1.346  0.00  0.00    -0.096 C 
ATOM     17  C   UNL     1      -7.385   3.501   2.593  0.00  0.00    -0.096 C 
ATOM     18  N   UNL     1      -7.924   3.879   1.269  0.00  0.00    +0.382 N 
ATOM     19  H   UNL     1      -7.509   4.774   0.983  0.00  0.00    -0.082 HD
ENDBRANCH  14  18
ENDBRANCH   5  14
ENDBRANCH   1   2
BRANCH   1  20
ATOM     20  C   UNL     1      -1.329   1.949   0.089  0.00  0.00    +0.157 C 
BRANCH  20  21
ATOM     21  C   UNL     1      -0.015   1.213   0.041  0.00  0.00    +0.182 C 
ATOM     22  O   UNL     1      -0.001  -0.002   0.017  0.00  0.00    -0.291 OA
BRANCH  21  25
ATOM     23  N   UNL     1       3.583   2.014   0.059  0.00  0.00    -0.281 N 
ATOM     24  C   UNL     1       2.436   1.273   0.091  0.00  0.00    +0.116 A 
ATOM     25  C   UNL     1       1.198   1.934   0.017  0.00  0.00    +0.120 A 
ATOM     26  C   UNL     1       1.206   3.399  -0.080  0.00  0.00    +0.266 A 
ATOM     27  O   UNL     1       0.164   4.024  -0.142  0.00  0.00    -0.267 OA
ATOM     28  N   UNL     1       2.394   4.038  -0.098  0.00  0.00    -0.274 N 
ATOM     29  H   UNL     1       2.417   5.036  -0.164  0.00  0.00    +0.173 HD
ATOM     30  C   UNL     1       3.547   3.352  -0.030  0.00  0.00    +0.331 A 
ATOM     31  O   UNL     1       4.595   3.966  -0.049  0.00  0.00    -0.246 OA
BRANCH  24  32
ATOM     32  N   UNL     1       2.491  -0.083   0.187  0.00  0.00    -0.344 N 
ATOM     33  H   UNL     1       1.678  -0.608   0.122  0.00  0.00    +0.144 HD
ATOM     34  H   UNL     1       3.344  -0.526   0.321  0.00  0.00    +0.144 HD
ENDBRANCH  24  32
BRANCH  23  35
ATOM     35  C   UNL     1       4.879   1.334   0.131  0.00  0.00    +0.128 C 
BRANCH  35  37
ATOM     36  C   UNL     1       6.653   0.482   1.670  0.00  0.00    +0.005 C 
ATOM     37  C   UNL     1       5.300   1.192   1.595  0.00  0.00    +0.018 C 
ENDBRANCH  35  37
ENDBRANCH  23  35
ENDBRANCH  21  25
ENDBRANCH  20  21
ENDBRANCH   1  20
TORSDOF 10
