REMARK  Name = ZINC40823895
REMARK  6 active torsions:
REMARK  status: ('A' for Active; 'I' for Inactive)
REMARK    1  A    between atoms: C_1  and  C_2
REMARK    2  A    between atoms: C_6  and  C_7
REMARK    3  A    between atoms: N_9  and  N_10
REMARK    4  A    between atoms: C_11  and  C_13
REMARK    5  A    between atoms: N_24  and  N_25
REMARK    6  A    between atoms: N_25  and  C_26
REMARK                            x       y       z     vdW  Elec       q    Type
REMARK                         _______ _______ _______ _____ _____    ______ ____
ROOT
ATOM      1  C   UNL     1      -0.018   1.503   0.010  0.00  0.00    +0.048 C 
ATOM      2  C   UNL     1       0.002  -0.004   0.002  0.00  0.00    +0.009 A 
ATOM      3  C   UNL     1       0.009  -0.838  -1.122  0.00  0.00    +0.042 A 
ATOM      4  C   UNL     1       0.027  -2.137  -0.673  0.00  0.00    +0.115 A 
ATOM      5  O   UNL     1       0.035  -2.112   0.658  0.00  0.00    -0.454 OA
ATOM      6  C   UNL     1       0.024  -0.830   1.091  0.00  0.00    +0.194 A 
ATOM      7  C   UNL     1       0.033  -3.326  -1.600  0.00  0.00    +0.075 C 
ATOM      8  C   UNL     1      -0.492  -2.902  -2.974  0.00  0.00    +0.014 C 
ATOM      9  C   UNL     1       0.279  -1.684  -3.495  0.00  0.00    +0.058 C 
ATOM     10  C   UNL     1       0.001  -0.511  -2.566  0.00  0.00    +0.070 C 
ATOM     11  N   UNL     1      -0.227   0.687  -3.008  0.00  0.00    -0.186 NA
ENDROOT
BRANCH   6  12
ATOM     12  C   UNL     1       0.032  -0.400   2.494  0.00  0.00    +0.296 C 
ATOM     13  O   UNL     1       0.018   0.786   2.766  0.00  0.00    -0.265 OA
ATOM     14  N   UNL     1       0.054  -1.317   3.480  0.00  0.00    -0.228 N 
ATOM     15  H   UNL     1       0.065  -2.263   3.263  0.00  0.00    +0.173 HD
BRANCH  14  16
ATOM     16  N   UNL     1       0.062  -0.906   4.820  0.00  0.00    -0.230 N 
ATOM     17  C   UNL     1       0.084  -1.824   5.806  0.00  0.00    +0.260 C 
ATOM     18  O   UNL     1       0.098  -3.009   5.534  0.00  0.00    -0.269 OA
ATOM     19  H   UNL     1       0.051   0.039   5.037  0.00  0.00    +0.173 HD
BRANCH  17  20
ATOM     20  C   UNL     1       0.092  -1.390   7.219  0.00  0.00    +0.038 A 
ATOM     21  C   UNL     1       0.070  -0.030   7.535  0.00  0.00    +0.014 A 
ATOM     22  C   UNL     1       0.078   0.369   8.855  0.00  0.00    +0.021 A 
ATOM     23  C   UNL     1       0.107  -0.577   9.867  0.00  0.00    +0.041 A 
ATOM     24  C   UNL     1       0.128  -1.927   9.560  0.00  0.00    +0.021 A 
ATOM     25  C   UNL     1       0.115  -2.338   8.243  0.00  0.00    +0.014 A 
ATOM     26 CL   UNL     1       0.116  -0.067  11.526  0.00  0.00    -0.084 Cl
ENDBRANCH  17  20
ENDBRANCH  14  16
ENDBRANCH   6  12
BRANCH  11  27
ATOM     27  N   UNL     1      -0.223   0.939  -4.386  0.00  0.00    -0.238 N 
ATOM     28  H   UNL     1      -0.049   0.217  -5.010  0.00  0.00    +0.174 HD
BRANCH  27  29
ATOM     29  C   UNL     1      -0.468   2.229  -4.861  0.00  0.00    +0.048 A 
ATOM     30  C   UNL     1      -0.711   3.265  -3.967  0.00  0.00    +0.027 A 
ATOM     31  C   UNL     1      -0.953   4.540  -4.439  0.00  0.00    +0.040 A 
ATOM     32  C   UNL     1      -0.953   4.787  -5.802  0.00  0.00    +0.124 A 
ATOM     33  C   UNL     1      -0.712   3.756  -6.695  0.00  0.00    +0.040 A 
ATOM     34  C   UNL     1      -0.464   2.480  -6.228  0.00  0.00    +0.027 A 
ATOM     35  F   UNL     1      -1.190   6.035  -6.262  0.00  0.00    -0.205 F 
ENDBRANCH  27  29
ENDBRANCH  11  27
TORSDOF 5
