REMARK  Name = ZINC36514636
REMARK  17 active torsions:
REMARK  status: ('A' for Active; 'I' for Inactive)
REMARK    1  A    between atoms: C_1  and  C_2
REMARK    2  A    between atoms: C_2  and  C_3
REMARK    3  A    between atoms: C_3  and  C_4
REMARK    4  A    between atoms: C_4  and  C_5
REMARK    5  A    between atoms: C_5  and  C_6
REMARK    6  A    between atoms: C_6  and  N_7
REMARK    7  A    between atoms: N_7  and  C_8
REMARK    8  A    between atoms: C_8  and  C_10
REMARK    9  A    between atoms: C_8  and  C_13
REMARK   10  A    between atoms: C_11  and  C_12
REMARK   11  A    between atoms: N_15  and  C_16
REMARK   12  A    between atoms: C_16  and  S_17
REMARK   13  A    between atoms: S_17  and  C_20
REMARK   14  A    between atoms: C_23  and  C_26
REMARK   15  A    between atoms: C_27  and  C_29
REMARK   16  A    between atoms: C_30  and  O_36
REMARK   17  A    between atoms: C_34  and  O_35
REMARK                            x       y       z     vdW  Elec       q    Type
REMARK                         _______ _______ _______ _____ _____    ______ ____
ROOT
ATOM      1  N   UNL     1       2.162  -4.523  -3.738  0.00  0.00    -0.282 N 
ATOM      2  C   UNL     1       1.461  -4.751  -4.866  0.00  0.00    +0.255 C 
ATOM      3  O   UNL     1       2.030  -5.143  -5.867  0.00  0.00    -0.270 OA
ENDROOT
BRANCH   2   4
ATOM      4  C   UNL     1       0.006  -4.525  -4.888  0.00  0.00    +0.119 A 
ATOM      5  C   UNL     1      -0.509  -3.272  -5.249  0.00  0.00    +0.133 A 
ATOM      6  C   UNL     1      -1.880  -3.070  -5.266  0.00  0.00    +0.046 A 
ATOM      7  C   UNL     1      -2.739  -4.099  -4.929  0.00  0.00    +0.007 A 
ATOM      8  C   UNL     1      -2.242  -5.339  -4.571  0.00  0.00    +0.046 A 
ATOM      9  C   UNL     1      -0.875  -5.564  -4.552  0.00  0.00    +0.133 A 
BRANCH   9  10
ATOM     10  O   UNL     1      -0.390  -6.783  -4.207  0.00  0.00    -0.506 OA
ATOM     11  H   UNL     1      -0.223  -6.885  -3.260  0.00  0.00    +0.292 HD
ENDBRANCH   9  10
BRANCH   5  12
ATOM     12  O   UNL     1       0.332  -2.260  -5.580  0.00  0.00    -0.506 OA
ATOM     13  H   UNL     1       0.549  -2.221  -6.521  0.00  0.00    +0.292 HD
ENDBRANCH   5  12
ENDBRANCH   2   4
BRANCH   1  14
ATOM     14  C   UNL     1       1.476  -4.051  -2.532  0.00  0.00    +0.109 C 
BRANCH  14  15
ATOM     15  C   UNL     1       1.455  -2.521  -2.524  0.00  0.00    +0.019 C 
BRANCH  15  16
ATOM     16  C   UNL     1       0.739  -2.027  -1.265  0.00  0.00    +0.002 C 
BRANCH  16  17
ATOM     17  C   UNL     1       0.718  -0.497  -1.257  0.00  0.00    -0.000 C 
BRANCH  17  19
ATOM     18  C   UNL     1      -0.019   1.526   0.010  0.00  0.00    +0.004 C 
ATOM     19  C   UNL     1       0.002  -0.004   0.002  0.00  0.00    -0.003 C 
ENDBRANCH  17  19
ENDBRANCH  16  17
ENDBRANCH  15  16
ENDBRANCH  14  15
ENDBRANCH   1  14
BRANCH   1  20
ATOM     20  C   UNL     1       3.609  -4.748  -3.716  0.00  0.00    +0.185 C 
BRANCH  20  21
ATOM     21  C   UNL     1       4.270  -3.862  -4.741  0.00  0.00    +0.239 C 
ATOM     22  O   UNL     1       3.598  -3.116  -5.421  0.00  0.00    -0.273 OA
ATOM     23  N   UNL     1       5.608  -3.898  -4.900  0.00  0.00    -0.294 N 
ATOM     24  H   UNL     1       6.145  -4.494  -4.356  0.00  0.00    +0.150 HD
BRANCH  23  25
ATOM     25  C   UNL     1       6.250  -3.037  -5.896  0.00  0.00    +0.278 C 
BRANCH  25  26
ATOM     26  S   UNL     1       6.822  -1.511  -5.098  0.00  0.00    +0.013 S 
ATOM     27  O   UNL     1       7.503  -0.693  -6.038  0.00  0.00    -0.168 OA
ATOM     28  O   UNL     1       5.793  -0.972  -4.280  0.00  0.00    -0.168 OA
BRANCH  26  29
ATOM     29  C   UNL     1       8.069  -2.032  -3.967  0.00  0.00    +0.090 A 
ATOM     30  C   UNL     1       7.728  -2.377  -2.673  0.00  0.00    +0.027 A 
ATOM     31  C   UNL     1       8.706  -2.785  -1.786  0.00  0.00    +0.005 A 
ATOM     32  C   UNL     1      10.025  -2.849  -2.193  0.00  0.00    -0.050 A 
ATOM     33  C   UNL     1      10.366  -2.505  -3.488  0.00  0.00    +0.005 A 
ATOM     34  C   UNL     1       9.387  -2.100  -4.376  0.00  0.00    +0.027 A 
ATOM     35  C   UNL     1      11.092  -3.293  -1.226  0.00  0.00    +0.044 C 
ENDBRANCH  26  29
ENDBRANCH  25  26
ENDBRANCH  23  25
ENDBRANCH  20  21
BRANCH  20  36
ATOM     36  C   UNL     1       3.898  -6.191  -4.039  0.00  0.00    +0.000 C 
ATOM     37  C   UNL     1       4.443  -6.968  -3.136  0.00  0.00    -0.032 C 
ATOM     38  C   UNL     1       4.780  -6.418  -1.774  0.00  0.00    +0.035 C 
ENDBRANCH  20  36
ENDBRANCH   1  20
TORSDOF 14
