REMARK  Name = ZINC55161966
REMARK  5 active torsions:
REMARK  status: ('A' for Active; 'I' for Inactive)
REMARK    1  A    between atoms: C_11  and  C_20
REMARK    2  A    between atoms: CA_14  and  C_17
REMARK    3  A    between atoms: C_20  and  O_22
REMARK    4  A    between atoms: O_22  and  C_23
REMARK    5  A    between atoms: C_23  and  C_24
REMARK                            x       y       z     vdW  Elec       q    Type
REMARK                         _______ _______ _______ _____ _____    ______ ____
ROOT
ATOM      1  C   UNL     1      -0.016   1.362   0.009  0.00  0.00    +0.001 A 
ATOM      2  C   UNL     1       1.169   2.083   0.002  0.00  0.00    +0.002 A 
ATOM      3  C   UNL     1       2.385   1.435  -0.013  0.00  0.00    +0.026 A 
ATOM      4  C   UNL     1       2.428   0.045  -0.021  0.00  0.00    +0.047 A 
ATOM      5  C   UNL     1       1.222  -0.683  -0.013  0.00  0.00    +0.003 A 
ATOM      6  C   UNL     1       0.002  -0.004   0.002  0.00  0.00    +0.010 A 
ATOM      7  C   UNL     1       1.609  -2.088  -0.023  0.00  0.00    -0.015 A 
ATOM      8  C   UNL     1       2.957  -2.137  -0.037  0.00  0.00    +0.049 A 
ATOM      9  N   UNL     1       3.460  -0.869  -0.035  0.00  0.00    -0.356 N 
ATOM     10  H   UNL     1       4.403  -0.644  -0.044  0.00  0.00    +0.166 HD
ATOM     11  C   UNL     1       3.732  -3.434  -0.054  0.00  0.00    +0.211 C 
ATOM     12  N   UNL     1       2.817  -4.517  -0.454  0.00  0.00    -0.287 NA
ATOM     13  CA  UNL     1       1.595  -4.518   0.362  0.00  0.00    +0.173 C 
ATOM     14  C   UNL     1       0.726  -3.310  -0.018  0.00  0.00    +0.068 C 
ATOM     15  H   UNL     1       2.596  -4.459  -1.437  0.00  0.00    +0.124 HD
ENDROOT
BRANCH  13  16
ATOM     16  C   UNL     1       0.825  -5.789   0.112  0.00  0.00    +0.373 C 
ATOM     17  O   UNL     1       1.255  -6.617  -0.672  0.00  0.00    -0.245 OA
ATOM     18  OXT UNL     1      -0.227  -5.989   0.695  0.00  0.00    -0.245 OA
ENDBRANCH  13  16
BRANCH  11  19
ATOM     19  C   UNL     1       4.281  -3.715   1.321  0.00  0.00    +0.330 C 
ATOM     20  O   UNL     1       3.718  -4.498   2.049  0.00  0.00    -0.249 OA
BRANCH  19  21
ATOM     21  O   UNL     1       5.397  -3.096   1.737  0.00  0.00    -0.462 OA
BRANCH  21  22
ATOM     22  C   UNL     1       5.862  -3.410   3.051  0.00  0.00    +0.245 C 
BRANCH  22  23
ATOM     23  C   UNL     1       7.134  -2.613   3.346  0.00  0.00    +0.088 C 
ATOM     24  C   UNL     1       8.268  -3.107   2.481  0.00  0.00    -0.029 A 
ATOM     25  C   UNL     1       8.436  -3.154   1.113  0.00  0.00    +0.005 A 
ATOM     26  C   UNL     1       9.602  -3.669   0.576  0.00  0.00    +0.000 A 
ATOM     27  C   UNL     1      10.602  -4.138   1.410  0.00  0.00    +0.001 A 
ATOM     28  C   UNL     1      10.443  -4.094   2.779  0.00  0.00    +0.009 A 
ATOM     29  C   UNL     1       9.268  -3.576   3.328  0.00  0.00    -0.014 A 
ATOM     30  C   UNL     1       8.839  -3.411   4.739  0.00  0.00    -0.014 A 
ATOM     31  C   UNL     1       7.570  -2.839   4.773  0.00  0.00    -0.029 A 
ATOM     32  C   UNL     1       6.953  -2.587   5.980  0.00  0.00    +0.005 A 
ATOM     33  C   UNL     1       7.595  -2.901   7.165  0.00  0.00    +0.000 A 
ATOM     34  C   UNL     1       8.856  -3.469   7.141  0.00  0.00    +0.001 A 
ATOM     35  C   UNL     1       9.480  -3.725   5.938  0.00  0.00    +0.009 A 
ENDBRANCH  22  23
ENDBRANCH  21  22
ENDBRANCH  19  21
ENDBRANCH  11  19
TORSDOF 5
