REMARK  Name = ZINC12703871
REMARK  12 active torsions:
REMARK  status: ('A' for Active; 'I' for Inactive)
REMARK    1  A    between atoms: C_1  and  C_2
REMARK    2  A    between atoms: C_2  and  N_63
REMARK    3  A    between atoms: C_3  and  C_4
REMARK    4  A    between atoms: C_3  and  N_63
REMARK    5  A    between atoms: C_5  and  C_6
REMARK    6  A    between atoms: C_5  and  N_63
REMARK    7  A    between atoms: C_6  and  N_7
REMARK    8  A    between atoms: N_7  and  C_8
REMARK    9  A    between atoms: C_8  and  C_9
REMARK   10  A    between atoms: C_14  and  C_22
REMARK   11  A    between atoms: C_15  and  C_21
REMARK   12  A    between atoms: N_25  and  C_26
REMARK                            x       y       z     vdW  Elec       q    Type
REMARK                         _______ _______ _______ _____ _____    ______ ____
ROOT
ATOM      1  N   UNL     1       2.843   3.732   1.440  0.00  0.00    -0.283 N 
ATOM      2  C   UNL     1       2.509   4.828   2.149  0.00  0.00    +0.307 C 
ATOM      3  O   UNL     1       1.643   5.577   1.739  0.00  0.00    -0.252 OA
ATOM      4  N   UNL     1       3.134   5.095   3.313  0.00  0.00    -0.269 N 
ATOM      5  H   UNL     1       3.870   4.536   3.607  0.00  0.00    +0.156 HD
ENDROOT
BRANCH   4   6
ATOM      6  C   UNL     1       2.721   6.179   4.097  0.00  0.00    +0.035 A 
ATOM      7  C   UNL     1       2.285   7.350   3.491  0.00  0.00    +0.025 A 
ATOM      8  C   UNL     1       1.873   8.416   4.266  0.00  0.00    +0.022 A 
ATOM      9  C   UNL     1       1.907   8.322   5.646  0.00  0.00    +0.041 A 
ATOM     10  C   UNL     1       2.346   7.159   6.253  0.00  0.00    +0.022 A 
ATOM     11  C   UNL     1       2.753   6.088   5.482  0.00  0.00    +0.025 A 
ATOM     12 CL   UNL     1       1.395   9.666   6.619  0.00  0.00    -0.084 Cl
ENDBRANCH   4   6
BRANCH   1  13
ATOM     13  C   UNL     1       3.887   2.830   1.935  0.00  0.00    +0.091 C 
BRANCH  13  14
ATOM     14  C   UNL     1       5.246   3.280   1.396  0.00  0.00    -0.060 C 
BRANCH  14  15
ATOM     15  N   UNL     1       6.300   2.450   2.017  0.00  0.00    +0.380 N 
ATOM     16  H   UNL     1       6.086   2.330   3.014  0.00  0.00    -0.082 HD
BRANCH  15  18
ATOM     17  C   UNL     1       7.275   0.212   2.173  0.00  0.00    -0.017 C 
ATOM     18  C   UNL     1       6.340   1.120   1.372  0.00  0.00    -0.082 C 
ENDBRANCH  15  18
BRANCH  15  19
ATOM     19  C   UNL     1       7.612   3.116   1.884  0.00  0.00    -0.082 C 
ATOM     20  C   UNL     1       7.700   4.238   2.920  0.00  0.00    -0.017 C 
ENDBRANCH  15  19
ENDBRANCH  14  15
ENDBRANCH  13  14
ENDBRANCH   1  13
BRANCH   1  21
ATOM     21  C   UNL     1       2.163   3.442   0.175  0.00  0.00    +0.149 C 
BRANCH  21  22
ATOM     22  C   UNL     1       0.949   2.591   0.441  0.00  0.00    +0.035 A 
ATOM     23  C   UNL     1      -0.266   3.174   0.588  0.00  0.00    +0.020 A 
ATOM     24  C   UNL     1      -1.426   2.319   0.845  0.00  0.00    -0.001 A 
ATOM     25  C   UNL     1      -2.705   2.862   1.004  0.00  0.00    +0.010 A 
ATOM     26  C   UNL     1      -3.767   2.037   1.242  0.00  0.00    +0.004 A 
ATOM     27  C   UNL     1      -3.588   0.662   1.328  0.00  0.00    -0.046 A 
ATOM     28  C   UNL     1      -2.338   0.105   1.175  0.00  0.00    -0.024 A 
ATOM     29  C   UNL     1      -1.242   0.925   0.925  0.00  0.00    +0.052 A 
ATOM     30  N   UNL     1       0.021   0.395   0.772  0.00  0.00    -0.322 N 
ATOM     31  H   UNL     1       0.147  -0.565   0.831  0.00  0.00    +0.169 HD
ATOM     32  C   UNL     1       1.081   1.189   0.537  0.00  0.00    +0.254 A 
ATOM     33  O   UNL     1       2.182   0.685   0.402  0.00  0.00    -0.268 OA
ATOM     34  C   UNL     1      -2.158  -1.388   1.272  0.00  0.00    +0.046 C 
ATOM     35  C   UNL     1      -4.775  -0.229   1.593  0.00  0.00    +0.044 C 
ENDBRANCH  21  22
ENDBRANCH   1  21
TORSDOF 8
