REMARK  Name = ZINC03991826
REMARK  10 active torsions:
REMARK  status: ('A' for Active; 'I' for Inactive)
REMARK    1  A    between atoms: C_1  and  C_2
REMARK    2  A    between atoms: C_6  and  C_38
REMARK    3  A    between atoms: C_7  and  N_8
REMARK    4  A    between atoms: N_8  and  S_9
REMARK    5  A    between atoms: S_9  and  C_12
REMARK    6  A    between atoms: C_25  and  C_27
REMARK    7  A    between atoms: C_25  and  C_28
REMARK    8  A    between atoms: C_31  and  C_34
REMARK    9  A    between atoms: C_34  and  O_36
REMARK   10  A    between atoms: O_36  and  C_37
REMARK                            x       y       z     vdW  Elec       q    Type
REMARK                         _______ _______ _______ _____ _____    ______ ____
ROOT
ATOM      1  C   UNL     1       1.968   3.390   0.467  0.00  0.00    +0.109 A 
ATOM      2  C   UNL     1       2.677   2.258   0.824  0.00  0.00    +0.030 A 
ATOM      3  C   UNL     1       3.886   2.375   1.478  0.00  0.00    +0.025 A 
ATOM      4  C   UNL     1       4.394   3.629   1.794  0.00  0.00    +0.032 A 
ATOM      5  C   UNL     1       3.664   4.770   1.444  0.00  0.00    -0.018 A 
ATOM      6  C   UNL     1       2.462   4.643   0.782  0.00  0.00    +0.034 A 
ATOM      7  C   UNL     1       4.228   6.084   1.822  0.00  0.00    +0.049 C 
ATOM      8  C   UNL     1       3.905   7.325   1.074  0.00  0.00    -0.023 C 
ATOM      9  C   UNL     1       4.949   8.143   1.137  0.00  0.00    -0.030 C 
ATOM     10  C   UNL     1       6.109   7.477   1.907  0.00  0.00    +0.033 C 
ATOM     11  C   UNL     1       5.779   5.992   1.708  0.00  0.00    +0.031 C 
ATOM     12  C   UNL     1       6.208   5.035   2.807  0.00  0.00    +0.058 C 
ATOM     13  N   UNL     1       5.632   3.723   2.441  0.00  0.00    -0.334 N 
ATOM     14  C   UNL     1       7.735   4.946   2.862  0.00  0.00    +0.037 C 
ATOM     15  H   UNL     1       6.121   2.913   2.653  0.00  0.00    +0.147 HD
ENDROOT
BRANCH  12  16
ATOM     16  C   UNL     1       5.666   5.489   4.138  0.00  0.00    -0.024 A 
ATOM     17  C   UNL     1       6.266   6.543   4.803  0.00  0.00    +0.006 A 
ATOM     18  C   UNL     1       5.772   6.967   6.019  0.00  0.00    +0.015 A 
ATOM     19  C   UNL     1       4.670   6.322   6.583  0.00  0.00    +0.059 A 
ATOM     20  C   UNL     1       4.072   5.256   5.909  0.00  0.00    +0.015 A 
ATOM     21  C   UNL     1       4.573   4.846   4.691  0.00  0.00    +0.006 A 
BRANCH  19  22
ATOM     22  C   UNL     1       4.138   6.767   7.888  0.00  0.00    +0.339 C 
ATOM     23  O   UNL     1       3.178   6.205   8.376  0.00  0.00    -0.245 OA
BRANCH  22  24
ATOM     24  O   UNL     1       4.717   7.796   8.536  0.00  0.00    -0.464 OA
ATOM     25  C   UNL     1       4.141   8.179   9.813  0.00  0.00    +0.280 C 
ENDBRANCH  22  24
ENDBRANCH  19  22
ENDBRANCH  12  16
BRANCH   1  26
ATOM     26  S   UNL     1       0.431   3.237  -0.382  0.00  0.00    +0.072 S 
ATOM     27  O   UNL     1       0.281   4.413  -1.165  0.00  0.00    -0.150 OA
ATOM     28  O   UNL     1       0.410   1.935  -0.951  0.00  0.00    -0.150 OA
BRANCH  26  29
ATOM     29  N   UNL     1      -0.766   3.274   0.761  0.00  0.00    -0.216 N 
ATOM     30  H   UNL     1      -1.301   2.482   0.929  0.00  0.00    +0.174 HD
BRANCH  29  37
ATOM     31  C   UNL     1       0.116   3.386   3.464  0.00  0.00    +0.046 C 
ATOM     32  C   UNL     1      -0.592   4.543   2.807  0.00  0.00    -0.028 A 
ATOM     33  C   UNL     1      -0.826   5.703   3.518  0.00  0.00    +0.005 A 
ATOM     34  C   UNL     1      -1.481   6.763   2.918  0.00  0.00    +0.001 A 
ATOM     35  C   UNL     1      -1.899   6.667   1.603  0.00  0.00    +0.005 A 
ATOM     36  C   UNL     1      -1.663   5.511   0.885  0.00  0.00    -0.028 A 
ATOM     37  C   UNL     1      -1.005   4.444   1.485  0.00  0.00    +0.054 A 
ATOM     38  C   UNL     1      -2.118   5.407  -0.548  0.00  0.00    +0.046 C 
ENDBRANCH  29  37
ENDBRANCH  26  29
ENDBRANCH   1  26
TORSDOF 6
