REMARK  Name = ZINC09618896
REMARK  5 active torsions:
REMARK  status: ('A' for Active; 'I' for Inactive)
REMARK    1  A    between atoms: C_8  and  C_29
REMARK    2  A    between atoms: C_11  and  C_12
REMARK    3  A    between atoms: C_11  and  N_61
REMARK    4  A    between atoms: N_14  and  C_15
REMARK    5  A    between atoms: N_14  and  C_21
REMARK                            x       y       z     vdW  Elec       q    Type
REMARK                         _______ _______ _______ _____ _____    ______ ____
ROOT
ATOM      1  C   UNL     1       3.425   6.412  -1.248  0.00  0.00    +0.020 C 
ENDROOT
BRANCH   1  11
ATOM      2  C   UNL     1       0.066   1.435   1.048  0.00  0.00    +0.000 A 
ATOM      3  C   UNL     1       1.044   0.958   0.195  0.00  0.00    +0.000 A 
ATOM      4  C   UNL     1       1.862   1.843  -0.477  0.00  0.00    +0.002 A 
ATOM      5  C   UNL     1       1.712   3.211  -0.299  0.00  0.00    -0.061 A 
ATOM      6  C   UNL     1       0.742   3.686   0.557  0.00  0.00    -0.047 A 
ATOM      7  C   UNL     1      -0.080   2.796   1.231  0.00  0.00    +0.004 A 
ATOM      8  C   UNL     1       0.545   5.162   0.788  0.00  0.00    +0.029 C 
ATOM      9  C   UNL     1       1.232   5.960  -0.321  0.00  0.00    +0.024 C 
ATOM     10  C   UNL     1       2.625   4.137  -1.059  0.00  0.00    -0.041 C 
ATOM     11  N   UNL     1       2.620   5.471  -0.436  0.00  0.00    +0.396 N 
ATOM     12  H   UNL     1       3.031   5.404   0.503  0.00  0.00    -0.080 HD
BRANCH   9  13
ATOM     13  C   UNL     1       1.242   7.423   0.040  0.00  0.00    +0.197 C 
ATOM     14  O   UNL     1       2.129   7.869   0.737  0.00  0.00    -0.278 OA
ATOM     15  N   UNL     1       0.267   8.236  -0.413  0.00  0.00    -0.331 N 
ATOM     16  H   UNL     1      -0.442   7.879  -0.971  0.00  0.00    +0.145 HD
ATOM     17  H   UNL     1       0.274   9.178  -0.180  0.00  0.00    +0.145 HD
ENDBRANCH   9  13
ENDBRANCH   1  11
BRANCH   1  18
ATOM     18  C   UNL     1       4.887   6.153  -0.988  0.00  0.00    +0.200 C 
ATOM     19  O   UNL     1       5.222   5.225  -0.283  0.00  0.00    -0.278 OA
ATOM     20  N   UNL     1       5.821   6.953  -1.538  0.00  0.00    -0.295 N 
BRANCH  20  21
ATOM     21  C   UNL     1       5.415   8.138  -2.299  0.00  0.00    +0.099 C 
ATOM     22  C   UNL     1       5.900   9.408  -1.579  0.00  0.00    +0.046 C 
ATOM     23  C   UNL     1       5.764  10.630  -2.518  0.00  0.00    +0.168 C 
ATOM     24  S   UNL     1       5.929   9.878  -4.188  0.00  0.00    -0.029 S 
ATOM     25  O   UNL     1       4.718  10.072  -4.905  0.00  0.00    -0.174 OA
ATOM     26  O   UNL     1       7.158  10.298  -4.765  0.00  0.00    -0.174 OA
ATOM     27  C   UNL     1       6.065   8.103  -3.711  0.00  0.00    +0.188 C 
ENDBRANCH  20  21
BRANCH  20  28
ATOM     28  C   UNL     1       7.243   6.638  -1.377  0.00  0.00    +0.076 C 
ATOM     29  C   UNL     1       7.532   5.262  -1.980  0.00  0.00    +0.022 C 
ATOM     30  C   UNL     1       9.017   4.933  -1.811  0.00  0.00    +0.002 C 
ATOM     31  C   UNL     1       9.371   4.922  -0.323  0.00  0.00    +0.000 C 
ATOM     32  C   UNL     1       9.081   6.298   0.281  0.00  0.00    +0.002 C 
ATOM     33  C   UNL     1       7.597   6.627   0.112  0.00  0.00    +0.022 C 
ENDBRANCH  20  28
ENDBRANCH   1  18
TORSDOF 5
