REMARK  Name = ZINC35646775
REMARK  16 active torsions:
REMARK  status: ('A' for Active; 'I' for Inactive)
REMARK    1  A    between atoms: C_1  and  C_2
REMARK    2  A    between atoms: C_2  and  O_3
REMARK    3  A    between atoms: O_3  and  C_4
REMARK    4  A    between atoms: C_4  and  C_6
REMARK    5  A    between atoms: C_7  and  C_25
REMARK    6  A    between atoms: N_8  and  C_24
REMARK    7  A    between atoms: C_12  and  C_14
REMARK    8  A    between atoms: C_17  and  C_20
REMARK    9  A    between atoms: C_20  and  C_21
REMARK   10  A    between atoms: C_20  and  C_22
REMARK   11  A    between atoms: C_20  and  C_23
REMARK   12  A    between atoms: C_25  and  N_26
REMARK   13  A    between atoms: N_35  and  C_36
REMARK   14  A    between atoms: C_36  and  C_37
REMARK   15  A    between atoms: C_36  and  C_38
REMARK   16  A    between atoms: C_36  and  C_39
REMARK                            x       y       z     vdW  Elec       q    Type
REMARK                         _______ _______ _______ _____ _____    ______ ____
ROOT
ATOM      1  C   UNL     1       0.716  -2.687  -2.591  0.00  0.00    +0.076 C 
ATOM      2  C   UNL     1       1.389  -3.841  -2.785  0.00  0.00    +0.010 C 
ATOM      3  N   UNL     1       2.372  -3.934  -3.729  0.00  0.00    -0.264 N 
ATOM      4  C   UNL     1       2.740  -2.918  -4.519  0.00  0.00    +0.307 C 
ATOM      5  O   UNL     1       3.627  -3.097  -5.332  0.00  0.00    -0.252 OA
ATOM      6  N   UNL     1       2.161  -1.704  -4.444  0.00  0.00    -0.288 N 
ATOM      7  C   UNL     1       1.084  -1.501  -3.460  0.00  0.00    +0.143 C 
ATOM      8  C   UNL     1       3.061  -5.217  -3.885  0.00  0.00    +0.139 C 
ATOM      9  H   UNL     1       2.443  -0.982  -5.026  0.00  0.00    +0.151 HD
ENDROOT
BRANCH   7  10
ATOM     10  C   UNL     1      -0.154  -1.068  -4.202  0.00  0.00    -0.022 A 
ATOM     11  C   UNL     1      -0.561  -1.756  -5.330  0.00  0.00    +0.006 A 
ATOM     12  C   UNL     1      -1.696  -1.358  -6.011  0.00  0.00    +0.004 A 
ATOM     13  C   UNL     1      -2.426  -0.272  -5.563  0.00  0.00    -0.042 A 
ATOM     14  C   UNL     1      -2.020   0.415  -4.435  0.00  0.00    +0.004 A 
ATOM     15  C   UNL     1      -0.886   0.015  -3.752  0.00  0.00    +0.006 A 
BRANCH  13  16
ATOM     16  C   UNL     1      -3.663   0.162  -6.306  0.00  0.00    -0.013 C 
ATOM     17  C   UNL     1      -4.677  -0.983  -6.321  0.00  0.00    +0.015 C 
ATOM     18  C   UNL     1      -4.277   1.377  -5.607  0.00  0.00    +0.015 C 
ATOM     19  C   UNL     1      -3.291   0.533  -7.743  0.00  0.00    +0.015 C 
ENDBRANCH  13  16
ENDBRANCH   7  10
BRANCH   1  20
ATOM     20  C   UNL     1      -0.302  -2.589  -1.614  0.00  0.00    +0.339 C 
ATOM     21  O   UNL     1      -0.675  -3.585  -1.022  0.00  0.00    -0.245 OA
BRANCH  20  22
ATOM     22  O   UNL     1      -0.861  -1.392  -1.339  0.00  0.00    -0.462 OA
BRANCH  22  24
ATOM     23  C   UNL     1      -2.392   0.065  -0.167  0.00  0.00    +0.048 C 
ATOM     24  C   UNL     1      -1.883  -1.367  -0.341  0.00  0.00    +0.229 C 
ENDBRANCH  22  24
ENDBRANCH  20  22
ENDBRANCH   1  20
BRANCH   2  25
ATOM     25  C   UNL     1       1.052  -5.046  -1.945  0.00  0.00    -0.026 C 
BRANCH  25  26
ATOM     26  N   UNL     1      -0.116  -5.730  -2.517  0.00  0.00    +0.384 N 
ATOM     27  C   UNL     1      -0.572  -6.740  -1.565  0.00  0.00    -0.077 C 
ATOM     28  C   UNL     1      -2.063  -6.938  -1.722  0.00  0.00    +0.000 C 
ATOM     29  C   UNL     1      -2.325  -8.102  -2.695  0.00  0.00    +0.107 C 
ATOM     30  N   UNL     1      -1.376  -8.073  -3.826  0.00  0.00    -0.287 N 
ATOM     31  C   UNL     1      -0.997  -6.842  -4.488  0.00  0.00    +0.091 C 
ATOM     32  C   UNL     1       0.239  -6.229  -3.790  0.00  0.00    -0.059 C 
ATOM     33  C   UNL     1      -0.843  -9.233  -4.258  0.00  0.00    +0.303 C 
ATOM     34  O   UNL     1      -1.213 -10.288  -3.779  0.00  0.00    -0.253 OA
ATOM     35  N   UNL     1       0.099  -9.225  -5.221  0.00  0.00    -0.294 N 
ATOM     36  H   UNL     1       0.447  -8.382  -5.553  0.00  0.00    +0.151 HD
ATOM     37  H   UNL     1      -0.854  -5.052  -2.636  0.00  0.00    -0.081 HD
BRANCH  35  38
ATOM     38  C   UNL     1       0.599 -10.489  -5.769  0.00  0.00    +0.028 C 
ATOM     39  C   UNL     1      -0.561 -11.268  -6.393  0.00  0.00    +0.031 C 
ATOM     40  C   UNL     1       1.653 -10.200  -6.839  0.00  0.00    +0.031 C 
ATOM     41  C   UNL     1       1.225 -11.318  -4.646  0.00  0.00    +0.031 C 
ENDBRANCH  35  38
ENDBRANCH  25  26
ENDBRANCH   2  25
TORSDOF 8
