REMARK  Name = ZINC39692392
REMARK  13 active torsions:
REMARK  status: ('A' for Active; 'I' for Inactive)
REMARK    1  A    between atoms: C_1  and  C_2
REMARK    2  A    between atoms: C_2  and  C_3
REMARK    3  A    between atoms: C_2  and  C_4
REMARK    4  A    between atoms: C_2  and  C_5
REMARK    5  A    between atoms: C_8  and  C_11
REMARK    6  A    between atoms: C_15  and  S_19
REMARK    7  A    between atoms: N_17  and  C_18
REMARK    8  A    between atoms: S_19  and  C_20
REMARK    9  A    between atoms: C_20  and  C_21
REMARK   10  A    between atoms: N_23  and  CA_24
REMARK   11  A    between atoms: CA_24  and  CB_26
REMARK   12  A    between atoms: CA_24  and  C_36
REMARK   13  A    between atoms: CB_26  and  CG_27
REMARK                            x       y       z     vdW  Elec       q    Type
REMARK                         _______ _______ _______ _____ _____    ______ ____
ROOT
ATOM      1  S   UNK A   0       5.947  -2.480  -6.485  0.00  0.00    -0.150 S 
ENDROOT
BRANCH   1   5
ATOM      2  C   UNK A   0       2.709  -2.033  -4.766  0.00  0.00    +0.049 C 
ATOM      3  N   UNK A   0       2.471  -3.458  -5.116  0.00  0.00    -0.267 NA
ATOM      4  N   UNK A   0       3.659  -3.808  -5.910  0.00  0.00    -0.262 NA
ATOM      5  C   UNK A   0       4.772  -3.093  -5.245  0.00  0.00    +0.077 C 
ATOM      6  N   UNK A   0       4.167  -1.956  -4.517  0.00  0.00    +0.409 N 
ATOM      7  C   UNK A   0       4.439  -2.076  -3.078  0.00  0.00    -0.090 C 
ATOM      8  H   UNK A   0       2.409  -4.029  -4.287  0.00  0.00    +0.139 HD
ATOM      9  H   UNK A   0       3.816  -4.805  -5.905  0.00  0.00    +0.140 HD
ATOM     10  H   UNK A   0       4.532  -1.083  -4.868  0.00  0.00    -0.076 HD
BRANCH   2  14
ATOM     11  C   UNK A   0       0.534  -0.974  -1.246  0.00  0.00    -0.042 A 
ATOM     12  C   UNK A   0       1.125  -2.220  -1.344  0.00  0.00    +0.004 A 
ATOM     13  C   UNK A   0       1.829  -2.562  -2.484  0.00  0.00    +0.003 A 
ATOM     14  C   UNK A   0       1.941  -1.660  -3.525  0.00  0.00    -0.046 A 
ATOM     15  C   UNK A   0       1.349  -0.415  -3.426  0.00  0.00    +0.003 A 
ATOM     16  C   UNK A   0       0.641  -0.073  -2.289  0.00  0.00    +0.004 A 
BRANCH  11  18
ATOM     17  C   UNK A   0      -1.685  -0.290  -0.375  0.00  0.00    +0.015 C 
ATOM     18  C   UNK A   0      -0.234  -0.600  -0.004  0.00  0.00    -0.013 C 
ATOM     19  C   UNK A   0       0.404   0.633   0.638  0.00  0.00    +0.015 C 
ATOM     20  C   UNK A   0      -0.199  -1.766   0.987  0.00  0.00    +0.015 C 
ENDBRANCH  11  18
ENDBRANCH   2  14
ENDBRANCH   1   5
BRANCH   1  21
ATOM     21  C   UNK A   0       4.943  -1.406  -7.547  0.00  0.00    +0.164 C 
BRANCH  21  22
ATOM     22  C   UNK A   0       5.809  -0.824  -8.635  0.00  0.00    +0.223 C 
ATOM     23  O   UNK A   0       6.987  -1.107  -8.688  0.00  0.00    -0.275 OA
ATOM     24  N   TRP A   1       5.274   0.010  -9.548  0.00  0.00    -0.301 N 
ATOM     25  H   TRP A   1       4.331   0.235  -9.506  0.00  0.00    +0.150 HD
BRANCH  24  26
ATOM     26  CA  TRP A   1       6.116   0.575 -10.605  0.00  0.00    +0.191 C 
BRANCH  26  27
ATOM     27  C   TRP A   1       6.804   1.813 -10.091  0.00  0.00    +0.376 C 
ATOM     28  O   TRP A   1       7.898   2.128 -10.527  0.00  0.00    -0.244 OA
ATOM     29  OXT TRP A   1       6.267   2.499  -9.238  0.00  0.00    -0.244 OA
ENDBRANCH  26  27
BRANCH  26  30
ATOM     30  CB  TRP A   1       5.246   0.939 -11.810  0.00  0.00    +0.071 C 
BRANCH  30  31
ATOM     31  CG  TRP A   1       4.654  -0.315 -12.400  0.00  0.00    -0.020 A 
ATOM     32  CD2 TRP A   1       3.429  -0.989 -11.965  0.00  0.00    +0.003 A 
ATOM     33  CE3 TRP A   1       2.485  -0.737 -10.967  0.00  0.00    +0.010 A 
ATOM     34  CZ3 TRP A   1       1.421  -1.581 -10.812  0.00  0.00    +0.001 A 
ATOM     35  CH2 TRP A   1       1.271  -2.686 -11.638  0.00  0.00    +0.002 A 
ATOM     36  CZ2 TRP A   1       2.190  -2.953 -12.628  0.00  0.00    +0.026 A 
ATOM     37  CE2 TRP A   1       3.281  -2.108 -12.805  0.00  0.00    +0.047 A 
ATOM     38  NE1 TRP A   1       4.344  -2.102 -13.680  0.00  0.00    -0.360 N 
ATOM     39  CD1 TRP A   1       5.148  -1.024 -13.428  0.00  0.00    +0.087 A 
ATOM     40  HE1 TRP A   1       4.497  -2.761 -14.375  0.00  0.00    +0.165 HD
ENDBRANCH  30  31
ENDBRANCH  26  30
ENDBRANCH  24  26
ENDBRANCH  21  22
ENDBRANCH   1  21
TORSDOF 9
