REMARK  Name = ZINC14067020
REMARK  8 active torsions:
REMARK  status: ('A' for Active; 'I' for Inactive)
REMARK    1  A    between atoms: C_1  and  C_2
REMARK    2  A    between atoms: C_2  and  C_3
REMARK    3  A    between atoms: C_3  and  C_30
REMARK    4  A    between atoms: N_6  and  N_10
REMARK    5  A    between atoms: C_11  and  C_13
REMARK    6  A    between atoms: C_13  and  N_14
REMARK    7  A    between atoms: C_21  and  C_24
REMARK    8  A    between atoms: C_27  and  C_29
REMARK                            x       y       z     vdW  Elec       q    Type
REMARK                         _______ _______ _______ _____ _____    ______ ____
ROOT
ATOM      1  C   UNL     1       1.867   6.512   3.374  0.00  0.00    +0.223 C 
ENDROOT
BRANCH   1   2
ATOM      2  N   UNL     1       3.284   6.808   3.148  0.00  0.00    -0.290 N 
ATOM      3  C   UNL     1       3.665   7.388   1.981  0.00  0.00    +0.203 A 
ATOM      4  N   UNL     1       4.919   7.666   1.744  0.00  0.00    -0.230 NA
ATOM      5  C   UNL     1       5.864   7.390   2.639  0.00  0.00    +0.116 A 
ATOM      6  C   UNL     1       5.564   6.790   3.873  0.00  0.00    +0.080 A 
ATOM      7  C   UNL     1       4.181   6.504   4.104  0.00  0.00    +0.263 A 
ATOM      8  O   UNL     1       3.822   5.988   5.149  0.00  0.00    -0.267 OA
ATOM      9  C   UNL     1       6.713   6.554   4.741  0.00  0.00    +0.010 A 
ATOM     10  C   UNL     1       7.944   6.919   4.304  0.00  0.00    +0.057 A 
ATOM     11  S   UNL     1       7.624   7.606   2.691  0.00  0.00    -0.076 S 
BRANCH   9  12
ATOM     12  C   UNL     1       6.538   5.930   6.069  0.00  0.00    +0.021 A 
ATOM     13  C   UNL     1       7.206   4.868   6.618  0.00  0.00    +0.016 A 
ATOM     14  C   UNL     1       6.870   4.461   7.892  0.00  0.00    +0.011 A 
ATOM     15  C   UNL     1       5.883   5.114   8.556  0.00  0.00    -0.013 A 
ATOM     16  S   UNL     1       5.396   6.360   7.373  0.00  0.00    -0.093 S 
ATOM     17  C   UNL     1       5.338   4.855   9.937  0.00  0.00    +0.051 C 
ENDBRANCH   9  12
ENDBRANCH   1   2
BRANCH   1  19
ATOM     18  N   UNL     1       0.304   4.637   2.974  0.00  0.00    -0.222 N 
ATOM     19  C   UNL     1       1.556   5.127   2.870  0.00  0.00    +0.250 C 
ATOM     20  O   UNL     1       2.432   4.452   2.372  0.00  0.00    -0.272 OA
ATOM     21  H   UNL     1      -0.396   5.176   3.373  0.00  0.00    +0.174 HD
BRANCH  18  25
ATOM     22  C   UNL     1      -0.729   1.579   1.267  0.00  0.00    +0.111 C 
ATOM     23  C   UNL     1      -0.654   3.090   1.365  0.00  0.00    +0.263 C 
ATOM     24  O   UNL     1      -1.103   3.898   0.580  0.00  0.00    -0.271 OA
ATOM     25  N   UNL     1       0.015   3.349   2.506  0.00  0.00    -0.137 N 
ATOM     26  C   UNL     1       0.371   2.223   3.135  0.00  0.00    +0.326 C 
ATOM     27  O   UNL     1       0.984   2.200   4.184  0.00  0.00    -0.251 OA
ATOM     28  N   UNL     1      -0.026   1.119   2.477  0.00  0.00    -0.284 N 
ATOM     29  C   UNL     1      -0.013   1.086   0.008  0.00  0.00    +0.041 C 
ATOM     30  H   UNL     1       0.121   0.199   2.746  0.00  0.00    +0.151 HD
BRANCH  22  32
ATOM     31  C   UNL     1      -2.224  -0.420   1.358  0.00  0.00    +0.006 C 
ATOM     32  C   UNL     1      -2.184   1.107   1.276  0.00  0.00    +0.032 C 
ENDBRANCH  22  32
ENDBRANCH  18  25
ENDBRANCH   1  19
TORSDOF 5
