REMARK  Name = ZINC40336693
REMARK  7 active torsions:
REMARK  status: ('A' for Active; 'I' for Inactive)
REMARK    1  A    between atoms: C_4  and  C_7
REMARK    2  A    between atoms: N_15  and  C_25
REMARK    3  A    between atoms: C_16  and  C_18
REMARK    4  A    between atoms: C_21  and  O_24
REMARK    5  A    between atoms: C_25  and  C_26
REMARK    6  A    between atoms: C_26  and  C_27
REMARK    7  A    between atoms: C_27  and  N_28
REMARK                            x       y       z     vdW  Elec       q    Type
REMARK                         _______ _______ _______ _____ _____    ______ ____
ROOT
ATOM      1  C   UNL     1       3.696  -0.686  -0.038  0.00  0.00    +0.072 A 
ATOM      2  C   UNL     1       4.038  -1.757   0.723  0.00  0.00    +0.035 A 
ATOM      3  C   UNL     1       5.362  -2.090   0.354  0.00  0.00    +0.153 A 
ATOM      4  N   UNL     1       5.728  -1.230  -0.575  0.00  0.00    -0.168 NA
ATOM      5  H   UNL     1       4.817   0.312  -1.478  0.00  0.00    +0.189 HD
ATOM      6  N   UNL     1       4.775  -0.405  -0.827  0.00  0.00    -0.276 N 
ATOM      7  C   UNL     1       5.777  -3.253   1.159  0.00  0.00    +0.268 C 
ATOM      8  O   UNL     1       6.864  -3.793   1.088  0.00  0.00    -0.268 OA
ATOM      9  N   UNL     1       4.785  -3.633   1.982  0.00  0.00    -0.285 N 
ATOM     10  C   UNL     1       3.633  -2.745   1.783  0.00  0.00    +0.141 C 
ENDROOT
BRANCH   1  14
ATOM     11  C   UNL     1      -0.017   1.379   0.010  0.00  0.00    +0.000 A 
ATOM     12  C   UNL     1       1.168   2.093   0.002  0.00  0.00    +0.001 A 
ATOM     13  C   UNL     1       2.377   1.428  -0.013  0.00  0.00    +0.010 A 
ATOM     14  C   UNL     1       2.403   0.033  -0.021  0.00  0.00    +0.000 A 
ATOM     15  C   UNL     1       1.205  -0.680  -0.013  0.00  0.00    +0.010 A 
ATOM     16  C   UNL     1       0.002  -0.004   0.002  0.00  0.00    +0.001 A 
ENDBRANCH   1  14
BRANCH  10  17
ATOM     17  C   UNL     1       2.440  -3.541   1.319  0.00  0.00    -0.022 A 
ATOM     18  C   UNL     1       2.611  -4.589   0.434  0.00  0.00    +0.009 A 
ATOM     19  C   UNL     1       1.519  -5.320   0.008  0.00  0.00    +0.046 A 
ATOM     20  C   UNL     1       0.250  -5.001   0.469  0.00  0.00    +0.117 A 
ATOM     21  C   UNL     1       0.081  -3.949   1.357  0.00  0.00    +0.046 A 
ATOM     22  C   UNL     1       1.177  -3.225   1.784  0.00  0.00    +0.009 A 
BRANCH  20  23
ATOM     23  O   UNL     1      -0.826  -5.718   0.050  0.00  0.00    -0.507 OA
ATOM     24  H   UNL     1      -1.030  -6.482   0.607  0.00  0.00    +0.292 HD
ENDBRANCH  20  23
ENDBRANCH  10  17
BRANCH   9  25
ATOM     25  C   UNL     1       4.843  -4.752   2.925  0.00  0.00    +0.111 C 
BRANCH  25  26
ATOM     26  C   UNL     1       5.370  -4.256   4.273  0.00  0.00    +0.040 C 
BRANCH  26  27
ATOM     27  C   UNL     1       5.430  -5.425   5.258  0.00  0.00    +0.124 C 
BRANCH  27  28
ATOM     28  N   UNL     1       5.935  -4.950   6.549  0.00  0.00    -0.338 N 
ATOM     29  C   UNL     1       7.246  -4.899   6.940  0.00  0.00    +0.104 A 
ATOM     30  C   UNL     1       7.260  -4.400   8.191  0.00  0.00    +0.101 A 
ATOM     31  N   UNL     1       5.993  -4.153   8.554  0.00  0.00    -0.352 N 
ATOM     32  C   UNL     1       5.194  -4.475   7.574  0.00  0.00    +0.173 A 
ATOM     33  H   UNL     1       5.714  -3.789   9.409  0.00  0.00    +0.166 HD
ENDBRANCH  27  28
ENDBRANCH  26  27
ENDBRANCH  25  26
ENDBRANCH   9  25
TORSDOF 7
