REMARK  Name = ZINC38757993
REMARK  9 active torsions:
REMARK  status: ('A' for Active; 'I' for Inactive)
REMARK    1  A    between atoms: C_1  and  C_2
REMARK    2  A    between atoms: C_4  and  C_9
REMARK    3  A    between atoms: C_5  and  C_8
REMARK    4  A    between atoms: C_9  and  S_10
REMARK    5  A    between atoms: S_10  and  C_11
REMARK    6  A    between atoms: C_12  and  C_17
REMARK    7  A    between atoms: N_19  and  N_20
REMARK    8  A    between atoms: C_21  and  C_23
REMARK    9  A    between atoms: C_23  and  C_24
REMARK                            x       y       z     vdW  Elec       q    Type
REMARK                         _______ _______ _______ _____ _____    ______ ____
ROOT
ATOM      1  C   UNL     1      -4.813   3.848  -1.363  0.00  0.00    +0.263 C 
ATOM      2  O   UNL     1      -3.965   3.777  -0.494  0.00  0.00    -0.269 OA
ATOM      3  N   UNL     1      -5.509   4.989  -1.532  0.00  0.00    -0.230 N 
ATOM      4  H   UNL     1      -6.186   5.046  -2.225  0.00  0.00    +0.173 HD
ENDROOT
BRANCH   1   6
ATOM      5  C   UNL     1      -4.359   1.490  -2.064  0.00  0.00    +0.109 A 
ATOM      6  C   UNL     1      -5.079   2.687  -2.230  0.00  0.00    +0.070 A 
ATOM      7  C   UNL     1      -6.052   2.754  -3.233  0.00  0.00    +0.017 A 
ATOM      8  C   UNL     1      -6.263   1.636  -4.021  0.00  0.00    +0.020 A 
ATOM      9  C   UNL     1      -5.516   0.494  -3.797  0.00  0.00    +0.112 A 
ATOM     10  N   UNL     1      -4.599   0.451  -2.850  0.00  0.00    -0.248 NA
BRANCH   5  11
ATOM     11  S   UNL     1      -3.128   1.373  -0.809  0.00  0.00    -0.101 S 
BRANCH  11  12
ATOM     12  C   UNL     1      -2.483  -0.314  -0.982  0.00  0.00    +0.111 C 
BRANCH  12  15
ATOM     13  C   UNL     1      -0.019   1.526   0.010  0.00  0.00    +0.045 C 
ATOM     14  C   UNL     1       0.002  -0.004   0.002  0.00  0.00    +0.174 C 
ATOM     15  C   UNL     1      -1.407  -0.548   0.046  0.00  0.00    -0.008 C 
ATOM     16  C   UNL     1      -1.526  -1.263   1.145  0.00  0.00    +0.038 C 
ATOM     17  N   UNL     1      -0.345  -1.271   1.865  0.00  0.00    -0.269 N 
ATOM     18  O   UNL     1       0.636  -0.500   1.190  0.00  0.00    -0.267 OA
ATOM     19  C   UNL     1      -2.784  -1.980   1.564  0.00  0.00    +0.065 C 
ATOM     20  H   UNL     1      -0.208  -1.735   2.706  0.00  0.00    +0.194 HD
ENDBRANCH  12  15
ENDBRANCH  11  12
ENDBRANCH   5  11
ENDBRANCH   1   6
BRANCH   3  21
ATOM     21  N   UNL     1      -5.257   6.093  -0.708  0.00  0.00    -0.234 N 
ATOM     22  C   UNL     1      -5.953   7.235  -0.877  0.00  0.00    +0.233 C 
ATOM     23  O   UNL     1      -6.799   7.306  -1.744  0.00  0.00    -0.274 OA
ATOM     24  H   UNL     1      -4.580   6.037  -0.015  0.00  0.00    +0.173 HD
BRANCH  22  25
ATOM     25  C   UNL     1      -5.681   8.422   0.009  0.00  0.00    +0.134 C 
BRANCH  25  26
ATOM     26  C   UNL     1      -6.587   9.561  -0.384  0.00  0.00    -0.014 A 
ATOM     27  C   UNL     1      -7.961   9.780   0.073  0.00  0.00    +0.003 A 
ATOM     28  C   UNL     1      -8.818   9.092   0.934  0.00  0.00    +0.010 A 
ATOM     29  C   UNL     1     -10.078   9.570   1.161  0.00  0.00    +0.001 A 
ATOM     30  C   UNL     1     -10.514  10.733   0.541  0.00  0.00    +0.002 A 
ATOM     31  C   UNL     1      -9.684  11.427  -0.313  0.00  0.00    +0.026 A 
ATOM     32  C   UNL     1      -8.397  10.959  -0.557  0.00  0.00    +0.047 A 
ATOM     33  N   UNL     1      -7.356  11.412  -1.336  0.00  0.00    -0.360 N 
ATOM     34  C   UNL     1      -6.285  10.570  -1.216  0.00  0.00    +0.087 A 
ATOM     35  H   UNL     1      -7.378  12.212  -1.885  0.00  0.00    +0.165 HD
ENDBRANCH  25  26
ENDBRANCH  22  25
ENDBRANCH   3  21
TORSDOF 7
