REMARK  Name = ZINC36545272
REMARK  16 active torsions:
REMARK  status: ('A' for Active; 'I' for Inactive)
REMARK    1  A    between atoms: C_1  and  C_2
REMARK    2  A    between atoms: C_3  and  C_4
REMARK    3  A    between atoms: C_4  and  C_6
REMARK    4  A    between atoms: C_4  and  N_17
REMARK    5  A    between atoms: N_8  and  C_9
REMARK    6  A    between atoms: C_9  and  C_10
REMARK    7  A    between atoms: C_9  and  C_11
REMARK    8  A    between atoms: C_9  and  C_12
REMARK    9  A    between atoms: C_12  and  C_13
REMARK   10  A    between atoms: C_13  and  C_14
REMARK   11  A    between atoms: C_13  and  C_15
REMARK   12  A    between atoms: C_13  and  C_16
REMARK   13  A    between atoms: N_17  and  C_18
REMARK   14  A    between atoms: C_25  and  C_27
REMARK   15  A    between atoms: C_28  and  O_34
REMARK   16  A    between atoms: C_32  and  O_33
REMARK                            x       y       z     vdW  Elec       q    Type
REMARK                         _______ _______ _______ _____ _____    ______ ____
ROOT
ATOM      1  N   UNL     1       1.830   1.015   2.333  0.00  0.00    -0.250 N 
ATOM      2  C   UNL     1       1.306   1.419   1.159  0.00  0.00    +0.259 C 
ATOM      3  O   UNL     1       1.195   0.631   0.239  0.00  0.00    -0.269 OA
ENDROOT
BRANCH   1   4
ATOM      4  C   UNL     1       2.077   1.947   3.347  0.00  0.00    +0.056 A 
ATOM      5  C   UNL     1       1.072   2.280   4.247  0.00  0.00    +0.025 A 
ATOM      6  C   UNL     1       1.319   3.200   5.247  0.00  0.00    +0.002 A 
ATOM      7  C   UNL     1       2.565   3.791   5.353  0.00  0.00    +0.002 A 
ATOM      8  C   UNL     1       3.568   3.462   4.459  0.00  0.00    +0.022 A 
ATOM      9  C   UNL     1       3.329   2.538   3.460  0.00  0.00    +0.062 A 
ATOM     10 CL   UNL     1       4.591   2.122   2.342  0.00  0.00    -0.082 Cl
ENDBRANCH   1   4
BRANCH   2  11
ATOM     11  C   UNL     1       0.869   2.815   0.990  0.00  0.00    +0.120 A 
ATOM     12  C   UNL     1       1.759   3.779   0.495  0.00  0.00    +0.133 A 
ATOM     13  C   UNL     1       1.337   5.089   0.340  0.00  0.00    +0.046 A 
ATOM     14  C   UNL     1       0.043   5.448   0.670  0.00  0.00    +0.007 A 
ATOM     15  C   UNL     1      -0.843   4.505   1.159  0.00  0.00    +0.046 A 
ATOM     16  C   UNL     1      -0.443   3.188   1.316  0.00  0.00    +0.133 A 
BRANCH  16  17
ATOM     17  O   UNL     1      -1.316   2.264   1.790  0.00  0.00    -0.506 OA
ATOM     18  H   UNL     1      -1.260   2.123   2.745  0.00  0.00    +0.292 HD
ENDBRANCH  16  17
BRANCH  12  19
ATOM     19  O   UNL     1       3.030   3.430   0.171  0.00  0.00    -0.506 OA
ATOM     20  H   UNL     1       3.137   3.147  -0.747  0.00  0.00    +0.292 HD
ENDBRANCH  12  19
ENDBRANCH   2  11
BRANCH   1  21
ATOM     21  C   UNL     1       2.140  -0.401   2.548  0.00  0.00    +0.190 C 
BRANCH  21  22
ATOM     22  C   UNL     1       3.233  -0.825   1.601  0.00  0.00    +0.238 C 
ATOM     23  O   UNL     1       3.615  -0.064   0.737  0.00  0.00    -0.273 OA
ATOM     24  N   UNL     1       3.786  -2.048   1.714  0.00  0.00    -0.308 N 
ATOM     25  H   UNL     1       3.480  -2.656   2.406  0.00  0.00    +0.149 HD
BRANCH  24  26
ATOM     26  C   UNL     1       4.848  -2.461   0.794  0.00  0.00    +0.030 C 
ATOM     27  C   UNL     1       4.278  -2.582  -0.621  0.00  0.00    +0.031 C 
ATOM     28  C   UNL     1       5.966  -1.417   0.805  0.00  0.00    +0.031 C 
BRANCH  26  29
ATOM     29  C   UNL     1       5.409  -3.814   1.235  0.00  0.00    +0.031 C 
BRANCH  29  30
ATOM     30  C   UNL     1       5.306  -3.937   2.757  0.00  0.00    -0.036 C 
ATOM     31  C   UNL     1       3.891  -4.374   3.139  0.00  0.00    +0.010 C 
ATOM     32  C   UNL     1       6.312  -4.977   3.253  0.00  0.00    +0.010 C 
ATOM     33  C   UNL     1       5.613  -2.583   3.400  0.00  0.00    +0.010 C 
ENDBRANCH  29  30
ENDBRANCH  26  29
ENDBRANCH  24  26
ENDBRANCH  21  22
BRANCH  21  36
ATOM     34  C   UNL     1       0.888  -1.756   4.680  0.00  0.00    +0.035 C 
ATOM     35  C   UNL     1       0.359  -1.903   3.277  0.00  0.00    -0.032 C 
ATOM     36  C   UNL     1       0.907  -1.229   2.296  0.00  0.00    +0.000 C 
ENDBRANCH  21  36
ENDBRANCH   1  21
TORSDOF 10
