REMARK  Name = ZINC20967575
REMARK  18 active torsions:
REMARK  status: ('A' for Active; 'I' for Inactive)
REMARK    1  A    between atoms: C_1  and  C_2
REMARK    2  A    between atoms: C_2  and  C_3
REMARK    3  A    between atoms: C_3  and  C_4
REMARK    4  A    between atoms: C_4  and  N_5
REMARK    5  A    between atoms: N_5  and  C_6
REMARK    6  A    between atoms: N_5  and  C_10
REMARK    7  A    between atoms: C_6  and  C_7
REMARK    8  A    between atoms: C_7  and  C_8
REMARK    9  A    between atoms: C_8  and  C_9
REMARK   10  A    between atoms: C_10  and  C_11
REMARK   11  A    between atoms: C_11  and  C_12
REMARK   12  A    between atoms: C_12  and  N_13
REMARK   13  A    between atoms: N_13  and  C_14
REMARK   14  A    between atoms: C_14  and  C_15
REMARK   15  A    between atoms: C_18  and  O_22
REMARK   16  A    between atoms: O_22  and  C_23
REMARK   17  A    between atoms: C_23  and  C_24
REMARK   18  A    between atoms: C_24  and  C_25
REMARK                            x       y       z     vdW  Elec       q    Type
REMARK                         _______ _______ _______ _____ _____    ______ ____
ROOT
ATOM      1  N   UNL     1      -1.575  -6.026   3.385  0.00  0.00    -0.312 NA
ATOM      2  H   UNL     1      -0.631  -5.672   3.397  0.00  0.00    +0.122 HD
ENDROOT
BRANCH   1   3
ATOM      3  C   UNL     1      -2.217  -5.769   2.089  0.00  0.00    +0.079 C 
BRANCH   3   4
ATOM      4  C   UNL     1      -2.166  -4.271   1.782  0.00  0.00    -0.003 C 
BRANCH   4   5
ATOM      5  C   UNL     1      -2.834  -4.003   0.432  0.00  0.00    -0.078 C 
BRANCH   5   6
ATOM      6  N   UNL     1      -2.785  -2.565   0.138  0.00  0.00    +0.380 N 
ATOM      7  H   UNL     1      -3.200  -2.051   0.901  0.00  0.00    -0.082 HD
BRANCH   6   8
ATOM      8  C   UNL     1      -1.387  -2.147  -0.031  0.00  0.00    -0.079 C 
BRANCH   8   9
ATOM      9  C   UNL     1      -1.326  -0.627  -0.195  0.00  0.00    -0.019 C 
BRANCH   9  11
ATOM     10  C   UNL     1       0.197   1.343  -0.401  0.00  0.00    +0.004 C 
ATOM     11  C   UNL     1       0.136  -0.177  -0.236  0.00  0.00    -0.005 C 
ENDBRANCH   9  11
ENDBRANCH   8   9
ENDBRANCH   6   8
BRANCH   6  12
ATOM     12  C   UNL     1      -3.530  -2.292  -1.098  0.00  0.00    -0.079 C 
BRANCH  12  13
ATOM     13  C   UNL     1      -5.014  -2.593  -0.876  0.00  0.00    -0.019 C 
BRANCH  13  14
ATOM     14  C   UNL     1      -5.809  -2.184  -2.119  0.00  0.00    -0.005 C 
ATOM     15  C   UNL     1      -7.293  -2.484  -1.897  0.00  0.00    +0.004 C 
ENDBRANCH  13  14
ENDBRANCH  12  13
ENDBRANCH   6  12
ENDBRANCH   5   6
ENDBRANCH   4   5
ENDBRANCH   3   4
ENDBRANCH   1   3
BRANCH   1  16
ATOM     16  C   UNL     1      -1.606  -7.457   3.713  0.00  0.00    +0.116 C 
BRANCH  16  17
ATOM     17  C   UNL     1      -0.940  -7.681   5.046  0.00  0.00    -0.031 A 
ATOM     18  C   UNL     1       0.419  -7.926   5.107  0.00  0.00    +0.024 A 
ATOM     19  C   UNL     1       1.032  -8.133   6.329  0.00  0.00    +0.061 A 
ATOM     20  C   UNL     1       0.282  -8.093   7.495  0.00  0.00    +0.148 A 
ATOM     21  C   UNL     1      -1.083  -7.846   7.432  0.00  0.00    +0.061 A 
ATOM     22  C   UNL     1      -1.689  -7.636   6.208  0.00  0.00    +0.024 A 
ATOM     23 BR   UNL     1      -2.109  -7.791   9.019  0.00  0.00    -0.046 Br
ATOM     24 BR   UNL     1       2.891  -8.469   6.410  0.00  0.00    -0.046 Br
BRANCH  20  25
ATOM     25  O   UNL     1       0.882  -8.296   8.698  0.00  0.00    -0.490 OA
BRANCH  25  26
ATOM     26  C   UNL     1       1.390  -7.143   9.372  0.00  0.00    +0.229 C 
BRANCH  26  27
ATOM     27  C   UNL     1       2.025  -7.566  10.698  0.00  0.00    +0.038 C 
ATOM     28  C   UNL     1       2.569  -6.332  11.420  0.00  0.00    +0.007 C 
ENDBRANCH  26  27
ENDBRANCH  25  26
ENDBRANCH  20  25
ENDBRANCH  16  17
ENDBRANCH   1  16
TORSDOF 15
