REMARK  Name = ZINC06134492
REMARK  13 active torsions:
REMARK  status: ('A' for Active; 'I' for Inactive)
REMARK    1  A    between atoms: C_1  and  C_2
REMARK    2  A    between atoms: C_2  and  C_3
REMARK    3  A    between atoms: C_3  and  C_4
REMARK    4  A    between atoms: C_4  and  N_5
REMARK    5  A    between atoms: C_9  and  S_29
REMARK    6  A    between atoms: C_13  and  S_14
REMARK    7  A    between atoms: S_14  and  C_15
REMARK    8  A    between atoms: C_15  and  C_16
REMARK    9  A    between atoms: C_16  and  C_18
REMARK   10  A    between atoms: C_19  and  N_28
REMARK   11  A    between atoms: N_20  and  C_27
REMARK   12  A    between atoms: N_23  and  C_26
REMARK   13  A    between atoms: S_29  and  N_32
REMARK                            x       y       z     vdW  Elec       q    Type
REMARK                         _______ _______ _______ _____ _____    ______ ____
ROOT
ATOM      1  N   UNL     1      -1.393   5.282  -4.708  0.00  0.00    -0.319 N 
ATOM      2  C   UNL     1      -1.465   4.270  -3.764  0.00  0.00    +0.070 A 
ATOM      3  C   UNL     1      -1.928   2.964  -3.789  0.00  0.00    +0.030 A 
ATOM      4  C   UNL     1      -1.860   2.188  -2.650  0.00  0.00    +0.030 A 
ATOM      5  C   UNL     1      -1.329   2.708  -1.478  0.00  0.00    +0.107 A 
ATOM      6  C   UNL     1      -0.870   4.005  -1.433  0.00  0.00    +0.058 A 
ATOM      7  C   UNL     1      -0.927   4.801  -2.580  0.00  0.00    +0.092 A 
ATOM      8  N   UNL     1      -0.559   6.082  -2.846  0.00  0.00    -0.222 NA
ATOM      9  C   UNL     1      -0.832   6.367  -4.096  0.00  0.00    +0.170 A 
ENDROOT
BRANCH   5  10
ATOM     10  S   UNL     1      -1.250   1.702  -0.033  0.00  0.00    +0.056 S 
ATOM     11  O   UNL     1      -2.248   0.701  -0.179  0.00  0.00    -0.153 OA
ATOM     12  O   UNL     1      -1.215   2.587   1.077  0.00  0.00    -0.153 OA
BRANCH  10  13
ATOM     13  N   UNL     1       0.210   0.920  -0.061  0.00  0.00    -0.204 NA
ATOM     14  H   UNL     1       0.242  -0.049  -0.073  0.00  0.00    +0.144 HD
ATOM     15  H   UNL     1       1.034   1.432  -0.068  0.00  0.00    +0.144 HD
ENDBRANCH  10  13
ENDBRANCH   5  10
BRANCH   1  16
ATOM     16  C   UNL     1      -1.836   5.203  -6.102  0.00  0.00    +0.124 C 
BRANCH  16  17
ATOM     17  C   UNL     1      -3.301   5.633  -6.197  0.00  0.00    +0.021 C 
BRANCH  17  19
ATOM     18  C   UNL     1      -5.229   5.981  -7.748  0.00  0.00    +0.004 C 
ATOM     19  C   UNL     1      -3.763   5.551  -7.653  0.00  0.00    -0.002 C 
ENDBRANCH  17  19
ENDBRANCH  16  17
ENDBRANCH   1  16
BRANCH   9  20
ATOM     20  S   UNL     1      -0.520   7.918  -4.871  0.00  0.00    -0.080 S 
BRANCH  20  21
ATOM     21  C   UNL     1       0.208   8.823  -3.483  0.00  0.00    +0.157 C 
BRANCH  21  22
ATOM     22  C   UNL     1       0.565  10.219  -3.925  0.00  0.00    +0.182 C 
ATOM     23  O   UNL     1       0.347  10.568  -5.068  0.00  0.00    -0.291 OA
BRANCH  22  24
ATOM     24  C   UNL     1       1.151  11.120  -3.011  0.00  0.00    +0.120 A 
ATOM     25  C   UNL     1       1.605  12.384  -3.428  0.00  0.00    +0.116 A 
ATOM     26  N   UNL     1       2.161  13.223  -2.506  0.00  0.00    -0.284 N 
ATOM     27  C   UNL     1       2.290  12.860  -1.220  0.00  0.00    +0.333 A 
ATOM     28  O   UNL     1       2.796  13.642  -0.439  0.00  0.00    -0.246 OA
ATOM     29  N   UNL     1       1.881  11.665  -0.765  0.00  0.00    -0.263 N 
ATOM     30  C   UNL     1       1.313  10.765  -1.595  0.00  0.00    +0.269 A 
ATOM     31  O   UNL     1       0.944   9.683  -1.180  0.00  0.00    -0.267 OA
ATOM     32  C   UNL     1       2.053  11.333   0.651  0.00  0.00    +0.157 C 
ATOM     33  C   UNL     1       2.631  14.544  -2.929  0.00  0.00    +0.155 C 
BRANCH  25  34
ATOM     34  N   UNL     1       1.486  12.766  -4.729  0.00  0.00    -0.344 N 
ATOM     35  H   UNL     1       1.016  12.200  -5.360  0.00  0.00    +0.144 HD
ATOM     36  H   UNL     1       1.873  13.605  -5.024  0.00  0.00    +0.144 HD
ENDBRANCH  25  34
ENDBRANCH  22  24
ENDBRANCH  21  22
ENDBRANCH  20  21
ENDBRANCH   9  20
TORSDOF 10
