REMARK  Name = ZINC43221548
REMARK  9 active torsions:
REMARK  status: ('A' for Active; 'I' for Inactive)
REMARK    1  A    between atoms: C_1  and  C_2
REMARK    2  A    between atoms: C_7  and  C_8
REMARK    3  A    between atoms: N_16  and  C_19
REMARK    4  A    between atoms: C_22  and  C_26
REMARK    5  A    between atoms: C_27  and  C_29
REMARK    6  A    between atoms: C_27  and  C_36
REMARK    7  A    between atoms: C_29  and  C_30
REMARK    8  A    between atoms: C_30  and  C_31
REMARK    9  A    between atoms: C_31  and  N_32
REMARK                            x       y       z     vdW  Elec       q    Type
REMARK                         _______ _______ _______ _____ _____    ______ ____
ROOT
ATOM      1  C   UNL     1       0.242   0.057   2.487  0.00  0.00    -0.026 C 
ATOM      2  C   UNL     1       1.640   0.634   2.638  0.00  0.00    +0.077 C 
ATOM      3  C   UNL     1       2.344  -0.624   3.278  0.00  0.00    +0.086 C 
ATOM      4  C   UNL     1       3.737  -0.305   3.094  0.00  0.00    +0.229 C 
ATOM      5  O   UNL     1       4.661  -0.584   3.828  0.00  0.00    -0.275 OA
ATOM      6  N   UNL     1       3.793   0.382   1.907  0.00  0.00    -0.210 N 
ATOM      7  C   UNL     1       2.554   0.787   1.462  0.00  0.00    +0.229 C 
ATOM      8  O   UNL     1       2.258   1.180   0.354  0.00  0.00    -0.275 OA
ATOM      9  C   UNL     1       1.400  -0.990   4.348  0.00  0.00    +0.048 C 
ATOM     10  N   UNL     1       0.065  -0.875   3.642  0.00  0.00    +0.395 N 
ATOM     11  H   UNL     1      -0.624  -0.503   4.279  0.00  0.00    -0.083 HD
ATOM     12  H   UNL     1      -0.232  -1.780   3.308  0.00  0.00    -0.083 HD
ENDROOT
BRANCH   6  13
ATOM     13  C   UNL     1       4.985   0.654   1.222  0.00  0.00    +0.045 A 
ATOM     14  C   UNL     1       6.198   0.217   1.736  0.00  0.00    +0.024 A 
ATOM     15  C   UNL     1       7.372   0.486   1.059  0.00  0.00    +0.006 A 
ATOM     16  C   UNL     1       7.340   1.190  -0.130  0.00  0.00    -0.032 A 
ATOM     17  C   UNL     1       6.133   1.627  -0.646  0.00  0.00    +0.046 A 
ATOM     18  C   UNL     1       4.954   1.356   0.025  0.00  0.00    +0.044 A 
ATOM     19 CL   UNL     1       6.097   2.512  -2.140  0.00  0.00    -0.083 Cl
ATOM     20  C   UNL     1       8.622   1.482  -0.866  0.00  0.00    +0.045 C 
ENDBRANCH   6  13
BRANCH   1  27
ATOM     21  C   UNL     1      -0.694   1.411   0.113  0.00  0.00    +0.044 C 
ATOM     22  C   UNL     1      -0.321  -0.048   0.051  0.00  0.00    -0.049 A 
ATOM     23  C   UNL     1      -0.422  -0.737  -1.143  0.00  0.00    +0.003 A 
ATOM     24  C   UNL     1      -0.080  -2.075  -1.200  0.00  0.00    +0.000 A 
ATOM     25  C   UNL     1       0.363  -2.724  -0.062  0.00  0.00    +0.000 A 
ATOM     26  C   UNL     1       0.465  -2.035   1.131  0.00  0.00    +0.002 A 
ATOM     27  C   UNL     1       0.127  -0.696   1.187  0.00  0.00    -0.058 A 
ENDBRANCH   1  27
BRANCH   9  28
ATOM     28  C   UNL     1       1.500  -0.026   5.503  0.00  0.00    +0.346 C 
ATOM     29  O   UNL     1       0.524   0.622   5.841  0.00  0.00    -0.248 OA
ATOM     30  O   UNL     1       2.556   0.106   6.098  0.00  0.00    -0.248 OA
ENDBRANCH   9  28
BRANCH   9  31
ATOM     31  C   UNL     1       1.638  -2.427   4.816  0.00  0.00    +0.001 C 
BRANCH  31  32
ATOM     32  C   UNL     1       0.566  -2.816   5.835  0.00  0.00    +0.018 C 
BRANCH  32  33
ATOM     33  C   UNL     1       0.804  -4.253   6.303  0.00  0.00    +0.105 C 
BRANCH  33  34
ATOM     34  N   UNL     1      -0.223  -4.625   7.279  0.00  0.00    -0.300 N 
ATOM     35  C   UNL     1      -0.213  -5.855   7.832  0.00  0.00    +0.297 C 
ATOM     36  O   UNL     1       0.647  -6.655   7.519  0.00  0.00    -0.253 OA
ATOM     37  N   UNL     1      -1.158  -6.197   8.730  0.00  0.00    -0.313 N 
ATOM     38  H   UNL     1      -0.909  -3.987   7.529  0.00  0.00    +0.150 HD
ATOM     39  H   UNL     1      -1.844  -5.559   8.979  0.00  0.00    +0.146 HD
ATOM     40  H   UNL     1      -1.151  -7.082   9.128  0.00  0.00    +0.146 HD
ENDBRANCH  33  34
ENDBRANCH  32  33
ENDBRANCH  31  32
ENDBRANCH   9  31
TORSDOF 7
