REMARK  Name = ZINC02136685
REMARK  9 active torsions:
REMARK  status: ('A' for Active; 'I' for Inactive)
REMARK    1  A    between atoms: C_1  and  C_2
REMARK    2  A    between atoms: C_2  and  C_3
REMARK    3  A    between atoms: C_17  and  C_19
REMARK    4  A    between atoms: C_19  and  C_20
REMARK    5  A    between atoms: C_20  and  C_21
REMARK    6  A    between atoms: N_26  and  C_29
REMARK    7  A    between atoms: C_29  and  C_30
REMARK    8  A    between atoms: C_35  and  O_36
REMARK    9  A    between atoms: O_36  and  C_37
REMARK                            x       y       z     vdW  Elec       q    Type
REMARK                         _______ _______ _______ _____ _____    ______ ____
ROOT
ATOM      1  C   UNL     1       0.282   7.210   2.469  0.00  0.00    -0.026 A 
ATOM      2  C   UNL     1      -1.047   7.124   2.830  0.00  0.00    +0.005 A 
ATOM      3  C   UNL     1      -1.728   5.928   2.702  0.00  0.00    +0.001 A 
ATOM      4  C   UNL     1      -1.075   4.811   2.211  0.00  0.00    +0.004 A 
ATOM      5  C   UNL     1       0.252   4.892   1.851  0.00  0.00    -0.027 A 
ATOM      6  C   UNL     1       0.948   6.091   1.974  0.00  0.00    +0.039 A 
ATOM      7  N   UNL     1       2.268   5.930   1.547  0.00  0.00    -0.286 N 
ATOM      8  C   UNL     1       2.518   4.672   1.134  0.00  0.00    +0.211 C 
ATOM      9  O   UNL     1       3.571   4.245   0.712  0.00  0.00    -0.277 OA
ATOM     10  C   UNL     1       1.237   3.901   1.300  0.00  0.00    +0.050 C 
ATOM     11  C   UNL     1       0.761   3.312  -0.052  0.00  0.00    +0.088 C 
ATOM     12  C   UNL     1       1.257   1.840  -0.010  0.00  0.00    +0.073 C 
ATOM     13  C   UNL     1       1.992   1.691   1.339  0.00  0.00    -0.057 C 
ATOM     14  C   UNL     1      -0.025   1.040   0.028  0.00  0.00    +0.224 C 
ATOM     15  O   UNL     1      -0.095  -0.170   0.075  0.00  0.00    -0.275 OA
ATOM     16  N   UNL     1      -1.070   1.874  -0.003  0.00  0.00    -0.237 N 
ATOM     17  C   UNL     1      -0.745   3.171  -0.045  0.00  0.00    +0.225 C 
ATOM     18  O   UNL     1      -1.534   4.090  -0.078  0.00  0.00    -0.275 OA
ATOM     19  H   UNL     1       2.928   6.640   1.548  0.00  0.00    +0.155 HD
ATOM     20  N   UNL     1       1.424   2.754   2.171  0.00  0.00    +0.394 N 
ATOM     21  H   UNL     1       0.523   2.455   2.562  0.00  0.00    -0.083 HD
ATOM     22  H   UNL     1       2.068   2.989   2.935  0.00  0.00    -0.083 HD
ENDROOT
BRANCH   1  24
ATOM     23  C   UNL     1       0.983   9.270   1.280  0.00  0.00    +0.009 C 
ATOM     24  C   UNL     1       1.016   8.518   2.612  0.00  0.00    +0.033 C 
ENDBRANCH   1  24
BRANCH  13  25
ATOM     25  C   UNL     1       1.726   0.309   1.940  0.00  0.00    -0.006 C 
BRANCH  25  26
ATOM     26  C   UNL     1       2.561   0.137   3.211  0.00  0.00    +0.094 C 
BRANCH  26  27
ATOM     27  C   UNL     1       2.299  -1.224   3.803  0.00  0.00    +0.210 C 
ATOM     28  O   UNL     1       1.521  -1.982   3.262  0.00  0.00    -0.276 OA
ATOM     29  N   UNL     1       2.929  -1.600   4.934  0.00  0.00    -0.329 N 
ATOM     30  H   UNL     1       3.550  -0.994   5.367  0.00  0.00    +0.145 HD
ATOM     31  H   UNL     1       2.760  -2.475   5.315  0.00  0.00    +0.145 HD
ENDBRANCH  26  27
ENDBRANCH  25  26
ENDBRANCH  13  25
BRANCH  16  32
ATOM     32  C   UNL     1      -2.458   1.406   0.012  0.00  0.00    +0.155 C 
BRANCH  32  33
ATOM     33  C   UNL     1      -2.979   1.333  -1.400  0.00  0.00    +0.012 A 
ATOM     34  C   UNL     1      -3.770   2.351  -1.899  0.00  0.00    +0.009 A 
ATOM     35  C   UNL     1      -4.244   2.287  -3.196  0.00  0.00    +0.001 A 
ATOM     36  C   UNL     1      -3.938   1.200  -3.994  0.00  0.00    +0.004 A 
ATOM     37  C   UNL     1      -3.152   0.178  -3.498  0.00  0.00    +0.046 A 
ATOM     38  C   UNL     1      -2.671   0.242  -2.199  0.00  0.00    +0.125 A 
BRANCH  38  39
ATOM     39  O   UNL     1      -1.897  -0.763  -1.709  0.00  0.00    -0.495 OA
ATOM     40  C   UNL     1      -1.524  -1.797  -2.621  0.00  0.00    +0.277 C 
ENDBRANCH  38  39
ENDBRANCH  32  33
ENDBRANCH  16  32
TORSDOF 7
