REMARK  Name = ZINC18200066
REMARK  6 active torsions:
REMARK  status: ('A' for Active; 'I' for Inactive)
REMARK    1  A    between atoms: C_1  and  C_2
REMARK    2  A    between atoms: C_2  and  O_3
REMARK    3  A    between atoms: O_3  and  C_4
REMARK    4  A    between atoms: C_7  and  C_10
REMARK    5  A    between atoms: N_16  and  C_19
REMARK    6  A    between atoms: C_31  and  C_34
REMARK                            x       y       z     vdW  Elec       q    Type
REMARK                         _______ _______ _______ _____ _____    ______ ____
ROOT
ATOM      1  C   UNL     1       1.144  -6.059   1.764  0.00  0.00    +0.092 C 
ATOM      2  C   UNL     1       2.597  -6.443   1.806  0.00  0.00    +0.070 A 
ATOM      3  C   UNL     1       3.224  -6.826   2.965  0.00  0.00    +0.125 A 
ATOM      4  N   UNL     1       4.524  -7.102   2.673  0.00  0.00    -0.277 N 
ATOM      5  H   UNL     1       5.201  -7.394   3.304  0.00  0.00    +0.189 HD
ATOM      6  N   UNL     1       4.712  -6.888   1.298  0.00  0.00    -0.218 N 
ATOM      7  C   UNL     1       3.534  -6.487   0.773  0.00  0.00    +0.278 A 
ATOM      8  O   UNL     1       3.325  -6.212  -0.397  0.00  0.00    -0.265 OA
ATOM      9  N   UNL     1       2.548  -6.887   4.160  0.00  0.00    -0.303 N 
ATOM     10  C   UNL     1       1.173  -6.851   4.144  0.00  0.00    +0.017 C 
ATOM     11  C   UNL     1       0.472  -6.483   3.053  0.00  0.00    +0.024 C 
ATOM     12  C   UNL     1      -0.936  -6.477   3.065  0.00  0.00    +0.162 C 
ATOM     13  O   UNL     1      -1.537  -6.127   2.069  0.00  0.00    -0.292 OA
ATOM     14  C   UNL     1      -1.713  -6.894   4.282  0.00  0.00    +0.091 C 
ATOM     15  C   UNL     1      -0.877  -7.896   5.086  0.00  0.00    +0.068 C 
ATOM     16  C   UNL     1       0.464  -7.243   5.421  0.00  0.00    +0.063 C 
ATOM     17  H   UNL     1       3.031  -6.954   4.998  0.00  0.00    +0.153 HD
ENDROOT
BRANCH   1  21
ATOM     18  C   UNL     1       0.802  -1.824   1.306  0.00  0.00    +0.121 A 
ATOM     19  C   UNL     1       0.260  -2.673   0.351  0.00  0.00    +0.046 A 
ATOM     20  C   UNL     1       0.372  -4.041   0.502  0.00  0.00    +0.008 A 
ATOM     21  C   UNL     1       1.024  -4.566   1.603  0.00  0.00    -0.035 A 
ATOM     22  C   UNL     1       1.565  -3.722   2.555  0.00  0.00    +0.008 A 
ATOM     23  C   UNL     1       1.460  -2.353   2.406  0.00  0.00    +0.046 A 
BRANCH  18  24
ATOM     24  O   UNL     1       0.693  -0.477   1.160  0.00  0.00    -0.492 OA
BRANCH  24  26
ATOM     25  C   UNL     1      -0.019   1.526   0.010  0.00  0.00    +0.048 C 
ATOM     26  C   UNL     1       0.002  -0.004   0.002  0.00  0.00    +0.225 C 
ENDBRANCH  24  26
ENDBRANCH  18  24
ENDBRANCH   1  21
BRANCH   6  27
ATOM     27  C   UNL     1       5.909  -7.061   0.596  0.00  0.00    +0.067 A 
ATOM     28  C   UNL     1       5.957  -6.807  -0.769  0.00  0.00    +0.028 A 
ATOM     29  C   UNL     1       7.141  -6.978  -1.460  0.00  0.00    +0.002 A 
ATOM     30  C   UNL     1       8.277  -7.402  -0.795  0.00  0.00    +0.000 A 
ATOM     31  C   UNL     1       8.232  -7.655   0.564  0.00  0.00    +0.002 A 
ATOM     32  C   UNL     1       7.053  -7.480   1.262  0.00  0.00    +0.028 A 
ENDBRANCH   6  27
BRANCH  15  33
ATOM     33  C   UNL     1      -1.600  -8.256   6.358  0.00  0.00    +0.109 A 
ATOM     34  C   UNL     1      -1.991  -9.491   6.719  0.00  0.00    +0.045 A 
ATOM     35  C   UNL     1      -2.627  -9.369   7.976  0.00  0.00    +0.041 A 
ATOM     36  C   UNL     1      -2.586  -8.067   8.308  0.00  0.00    +0.195 A 
ATOM     37  O   UNL     1      -1.958  -7.398   7.328  0.00  0.00    -0.468 OA
ENDBRANCH  15  33
TORSDOF 5
