REMARK  Name = ZINC36207807
REMARK  12 active torsions:
REMARK  status: ('A' for Active; 'I' for Inactive)
REMARK    1  A    between atoms: C_2  and  C_3
REMARK    2  A    between atoms: C_3  and  O_4
REMARK    3  A    between atoms: O_4  and  C_5
REMARK    4  A    between atoms: C_5  and  C_6
REMARK    5  A    between atoms: C_6  and  C_8
REMARK    6  A    between atoms: C_6  and  O_35
REMARK    7  A    between atoms: C_8  and  N_9
REMARK    8  A    between atoms: N_9  and  C_10
REMARK    9  A    between atoms: N_9  and  C_16
REMARK   10  A    between atoms: C_10  and  C_11
REMARK   11  A    between atoms: C_16  and  C_17
REMARK   12  A    between atoms: C_23  and  C_28
REMARK                            x       y       z     vdW  Elec       q    Type
REMARK                         _______ _______ _______ _____ _____    ______ ____
ROOT
ATOM      1  C   UNL     1      -3.885  -6.993  -3.166  0.00  0.00    -0.003 C 
ENDROOT
BRANCH   1   2
ATOM      2  C   UNL     1      -3.435  -7.998  -4.195  0.00  0.00    +0.094 A 
ATOM      3  N   UNL     1      -4.206  -9.087  -4.445  0.00  0.00    -0.312 N 
ATOM      4  H   UNL     1      -5.037  -9.204  -3.958  0.00  0.00    +0.170 HD
ATOM      5  C   UNL     1      -3.841 -10.007  -5.357  0.00  0.00    +0.260 A 
ATOM      6  O   UNL     1      -4.545 -10.979  -5.571  0.00  0.00    -0.267 OA
ATOM      7  C   UNL     1      -2.614  -9.827  -6.071  0.00  0.00    +0.080 A 
ATOM      8  C   UNL     1      -2.009 -10.672  -7.094  0.00  0.00    +0.006 A 
ATOM      9  C   UNL     1      -0.826 -10.294  -7.636  0.00  0.00    +0.056 A 
ATOM     10  S   UNL     1      -0.456  -8.767  -6.795  0.00  0.00    -0.076 S 
ATOM     11  C   UNL     1      -1.884  -8.673  -5.745  0.00  0.00    +0.116 A 
ATOM     12  N   UNL     1      -2.313  -7.803  -4.834  0.00  0.00    -0.229 NA
BRANCH   8  13
ATOM     13  C   UNL     1      -2.675 -11.922  -7.532  0.00  0.00    +0.019 A 
ATOM     14  C   UNL     1      -2.078 -13.157  -7.285  0.00  0.00    +0.011 A 
ATOM     15  C   UNL     1      -2.703 -14.318  -7.694  0.00  0.00    +0.001 A 
ATOM     16  C   UNL     1      -3.920 -14.258  -8.349  0.00  0.00    +0.003 A 
ATOM     17  C   UNL     1      -4.519 -13.037  -8.598  0.00  0.00    +0.039 A 
ATOM     18  C   UNL     1      -3.906 -11.867  -8.188  0.00  0.00    +0.131 A 
ATOM     19  F   UNL     1      -4.494 -10.675  -8.427  0.00  0.00    -0.205 F 
ENDBRANCH   8  13
ENDBRANCH   1   2
BRANCH   1  20
ATOM     20  N   UNL     1      -2.898  -5.908  -3.076  0.00  0.00    +0.391 N 
ATOM     21  H   UNL     1      -1.987  -6.298  -2.887  0.00  0.00    -0.080 HD
BRANCH  20  22
ATOM     22  C   UNL     1      -3.275  -4.992  -1.992  0.00  0.00    -0.044 C 
BRANCH  22  23
ATOM     23  C   UNL     1      -3.174  -5.721  -0.650  0.00  0.00    +0.124 C 
BRANCH  23  24
ATOM     24  O   UNL     1      -1.824  -6.137  -0.434  0.00  0.00    -0.391 OA
ATOM     25  H   UNL     1      -1.197  -5.406  -0.344  0.00  0.00    +0.210 HD
ENDBRANCH  23  24
BRANCH  23  26
ATOM     26  C   UNL     1      -3.603  -4.779   0.476  0.00  0.00    +0.189 C 
BRANCH  26  27
ATOM     27  O   UNL     1      -3.621  -5.492   1.714  0.00  0.00    -0.373 OA
BRANCH  27  28
ATOM     28  C   UNL     1      -4.011  -4.699   2.837  0.00  0.00    +0.186 C 
BRANCH  28  30
ATOM     29  C   UNL     1      -3.457  -5.086   5.183  0.00  0.00    +0.006 C 
ATOM     30  C   UNL     1      -3.995  -5.549   4.082  0.00  0.00    -0.007 C 
ENDBRANCH  28  30
ENDBRANCH  27  28
ENDBRANCH  26  27
ENDBRANCH  23  26
ENDBRANCH  22  23
ENDBRANCH  20  22
BRANCH  20  31
ATOM     31  C   UNL     1      -2.862  -5.173  -4.348  0.00  0.00    -0.002 C 
BRANCH  31  32
ATOM     32  C   UNL     1      -1.751  -4.155  -4.307  0.00  0.00    +0.089 A 
ATOM     33  C   UNL     1      -0.458  -4.390  -4.593  0.00  0.00    +0.042 A 
ATOM     34  C   UNL     1       0.227  -3.164  -4.428  0.00  0.00    +0.041 A 
ATOM     35  C   UNL     1      -0.689  -2.253  -4.051  0.00  0.00    +0.195 A 
ATOM     36  O   UNL     1      -1.886  -2.858  -3.986  0.00  0.00    -0.470 OA
ENDBRANCH  31  32
ENDBRANCH  20  31
ENDBRANCH   1  20
TORSDOF 12
