REMARK  Name = ZINC17097106
REMARK  5 active torsions:
REMARK  status: ('A' for Active; 'I' for Inactive)
REMARK    1  A    between atoms: C_4  and  N_7
REMARK    2  A    between atoms: C_8  and  C_10
REMARK    3  A    between atoms: C_14  and  N_15
REMARK    4  A    between atoms: C_16  and  C_18
REMARK    5  A    between atoms: C_24  and  C_26
REMARK                            x       y       z     vdW  Elec       q    Type
REMARK                         _______ _______ _______ _____ _____    ______ ____
ROOT
ATOM      1  C   UNL     1       2.264  -3.564  -2.629  0.00  0.00    +0.069 A 
ATOM      2  C   UNL     1       3.111  -3.768  -3.791  0.00  0.00    -0.023 A 
ATOM      3  C   UNL     1       3.458  -2.644  -4.455  0.00  0.00    -0.004 A 
ATOM      4  S   UNL     1       2.671  -1.331  -3.564  0.00  0.00    -0.077 S 
ATOM      5  C   UNL     1       1.901  -2.260  -2.321  0.00  0.00    +0.084 A 
ATOM      6  C   UNL     1       4.316  -2.546  -5.678  0.00  0.00    +0.043 C 
ATOM      7  C   UNL     1       5.057  -3.879  -5.858  0.00  0.00    +0.005 C 
ATOM      8  C   UNL     1       4.051  -5.025  -5.714  0.00  0.00    +0.005 C 
ATOM      9  C   UNL     1       3.593  -5.136  -4.259  0.00  0.00    +0.037 C 
ENDROOT
BRANCH   1  11
ATOM     10  N   UNL     1       2.548  -5.106  -0.763  0.00  0.00    -0.308 N 
ATOM     11  C   UNL     1       1.809  -4.693  -1.811  0.00  0.00    +0.247 C 
ATOM     12  O   UNL     1       0.764  -5.257  -2.079  0.00  0.00    -0.270 OA
ATOM     13  H   UNL     1       3.381  -4.657  -0.549  0.00  0.00    +0.149 HD
BRANCH  10  17
ATOM     14  C   UNL     1       1.854  -7.569   2.651  0.00  0.00    +0.000 C 
ATOM     15  C   UNL     1       2.824  -8.072   1.581  0.00  0.00    +0.002 C 
ATOM     16  C   UNL     1       3.299  -6.894   0.728  0.00  0.00    +0.022 C 
ATOM     17  C   UNL     1       2.094  -6.234   0.054  0.00  0.00    +0.073 C 
ATOM     18  C   UNL     1       1.123  -5.731   1.124  0.00  0.00    +0.022 C 
ATOM     19  C   UNL     1       0.649  -6.909   1.977  0.00  0.00    +0.002 C 
ENDBRANCH  10  17
ENDBRANCH   1  11
BRANCH   5  20
ATOM     20  N   UNL     1       1.109  -1.810  -1.275  0.00  0.00    -0.279 N 
ATOM     21  C   UNL     1       0.863  -0.493  -1.134  0.00  0.00    +0.222 C 
ATOM     22  O   UNL     1       1.334   0.300  -1.922  0.00  0.00    -0.275 OA
ATOM     23  H   UNL     1       0.732  -2.444  -0.645  0.00  0.00    +0.155 HD
BRANCH  21  24
ATOM     24  C   UNL     1       0.002  -0.004   0.002  0.00  0.00    +0.093 C 
ATOM     25  C   UNL     1       0.574   1.300   0.562  0.00  0.00    +0.040 C 
ATOM     26  C   UNL     1       0.379   2.415  -0.424  0.00  0.00    -0.030 C 
ATOM     27  C   UNL     1      -0.452   2.369  -1.416  0.00  0.00    -0.030 C 
ATOM     28  C   UNL     1      -1.328   1.191  -1.725  0.00  0.00    +0.042 C 
ATOM     29  C   UNL     1      -1.419   0.268  -0.508  0.00  0.00    +0.118 C 
BRANCH  29  30
ATOM     30  C   UNL     1      -2.072  -1.031  -0.904  0.00  0.00    +0.360 C 
ATOM     31  O   UNL     1      -1.467  -2.070  -0.793  0.00  0.00    -0.246 OA
ATOM     32  O   UNL     1      -3.327  -1.033  -1.382  0.00  0.00    -0.246 OA
ENDBRANCH  29  30
ENDBRANCH  21  24
ENDBRANCH   5  20
TORSDOF 5
