REMARK  Name = ZINC39755691
REMARK  15 active torsions:
REMARK  status: ('A' for Active; 'I' for Inactive)
REMARK    1  A    between atoms: C_1  and  C_2
REMARK    2  A    between atoms: C_2  and  N_3
REMARK    3  A    between atoms: C_4  and  CA_25
REMARK    4  A    between atoms: C_7  and  S_8
REMARK    5  A    between atoms: S_8  and  C_9
REMARK    6  A    between atoms: C_9  and  C_11
REMARK    7  A    between atoms: C_9  and  C_12
REMARK    8  A    between atoms: N_14  and  C_15
REMARK    9  A    between atoms: C_18  and  N_21
REMARK   10  A    between atoms: C_22  and  C_24
REMARK   11  A    between atoms: CA_25  and  C_27
REMARK   12  A    between atoms: CA_25  and  N_29
REMARK   13  A    between atoms: C_27  and  O_28
REMARK   14  A    between atoms: C_30  and  C_32
REMARK   15  A    between atoms: C_36  and  C_38
REMARK                            x       y       z     vdW  Elec       q    Type
REMARK                         _______ _______ _______ _____ _____    ______ ____
ROOT
ATOM      1  N   UNL     1       0.686  -0.464   1.150  0.00  0.00    -0.305 N 
ATOM      2  C   UNL     1       2.024  -0.727   1.260  0.00  0.00    +0.157 A 
ATOM      3  N   UNL     1       2.237  -1.153   2.473  0.00  0.00    -0.131 NA
ATOM      4  N   UNL     1       1.134  -1.177   3.133  0.00  0.00    -0.122 NA
ATOM      5  C   UNL     1       0.150  -0.758   2.371  0.00  0.00    +0.192 A 
ENDROOT
BRANCH   1   7
ATOM      6  C   UNL     1      -0.031   1.567  -0.009  0.00  0.00    +0.027 C 
ATOM      7  C   UNL     1      -0.022   0.037  -0.030  0.00  0.00    +0.122 C 
ENDBRANCH   1   7
BRANCH   5   8
ATOM      8  S   UNL     1      -1.544  -0.609   2.834  0.00  0.00    -0.074 S 
BRANCH   8   9
ATOM      9  C   UNL     1      -1.575  -1.155   4.564  0.00  0.00    +0.137 C 
ATOM     10  C   UNL     1      -1.198  -2.636   4.638  0.00  0.00    +0.029 C 
BRANCH   9  11
ATOM     11  C   UNL     1      -2.959  -0.959   5.127  0.00  0.00    +0.230 C 
ATOM     12  O   UNL     1      -3.919  -0.943   4.386  0.00  0.00    -0.274 OA
ATOM     13  N   UNL     1      -3.130  -0.803   6.455  0.00  0.00    -0.285 N 
ATOM     14  H   UNL     1      -2.372  -0.883   7.054  0.00  0.00    +0.155 HD
BRANCH  13  15
ATOM     15  C   UNL     1      -4.403  -0.525   6.969  0.00  0.00    +0.034 A 
ATOM     16  C   UNL     1      -4.541   0.313   8.067  0.00  0.00    +0.025 A 
ATOM     17  C   UNL     1      -5.795   0.587   8.574  0.00  0.00    +0.025 A 
ATOM     18  C   UNL     1      -6.920   0.024   7.985  0.00  0.00    +0.033 A 
ATOM     19  C   UNL     1      -6.782  -0.815   6.887  0.00  0.00    +0.025 A 
ATOM     20  C   UNL     1      -5.528  -1.084   6.377  0.00  0.00    +0.025 A 
BRANCH  18  21
ATOM     21  N   UNL     1      -8.193   0.301   8.499  0.00  0.00    -0.286 N 
ATOM     22  C   UNL     1      -9.147  -0.651   8.487  0.00  0.00    +0.214 C 
ATOM     23  O   UNL     1      -8.931  -1.719   7.955  0.00  0.00    -0.276 OA
ATOM     24  C   UNL     1     -10.483  -0.388   9.133  0.00  0.00    +0.109 C 
ATOM     25  H   UNL     1      -8.388   1.178   8.865  0.00  0.00    +0.155 HD
ENDBRANCH  18  21
ENDBRANCH  13  15
ENDBRANCH   9  11
ENDBRANCH   8   9
ENDBRANCH   5   8
BRANCH   2  26
ATOM     26  CA  UNL     1       3.060  -0.557   0.179  0.00  0.00    +0.167 C 
BRANCH  26  27
ATOM     27  N   UNL     1       3.930  -1.735   0.147  0.00  0.00    -0.299 N 
ATOM     28  C   UNL     1       4.577  -2.065  -0.989  0.00  0.00    +0.245 C 
ATOM     29  O   UNL     1       4.437  -1.385  -1.987  0.00  0.00    -0.270 OA
ATOM     30  H   UNL     1       4.042  -2.278   0.944  0.00  0.00    +0.150 HD
BRANCH  28  31
ATOM     31  C   UNL     1       5.455  -3.254  -1.020  0.00  0.00    +0.037 A 
ATOM     32  C   UNL     1       5.613  -4.040   0.122  0.00  0.00    +0.013 A 
ATOM     33  C   UNL     1       6.434  -5.148   0.086  0.00  0.00    +0.001 A 
ATOM     34  C   UNL     1       7.101  -5.480  -1.081  0.00  0.00    +0.003 A 
ATOM     35  C   UNL     1       6.949  -4.706  -2.216  0.00  0.00    -0.050 A 
ATOM     36  C   UNL     1       6.126  -3.598  -2.195  0.00  0.00    +0.016 A 
ATOM     37  C   UNL     1       7.679  -5.075  -3.482  0.00  0.00    +0.044 C 
ENDBRANCH  28  31
ENDBRANCH  26  27
BRANCH  26  38
ATOM     38  C   UNL     1       3.898   0.689   0.467  0.00  0.00    +0.186 C 
BRANCH  38  39
ATOM     39  O   UNL     1       4.455   0.595   1.780  0.00  0.00    -0.393 OA
ATOM     40  H   UNL     1       5.000   1.353   2.031  0.00  0.00    +0.209 HD
ENDBRANCH  38  39
ENDBRANCH  26  38
ENDBRANCH   2  26
TORSDOF 11
