REMARK  Name = ZINC03878105
REMARK  11 active torsions:
REMARK  status: ('A' for Active; 'I' for Inactive)
REMARK    1  A    between atoms: C_4  and  O_7
REMARK    2  A    between atoms: O_7  and  C_8
REMARK    3  A    between atoms: C_8  and  C_9
REMARK    4  A    between atoms: N_11  and  C_12
REMARK    5  A    between atoms: C_12  and  C_14
REMARK    6  A    between atoms: C_12  and  N_18
REMARK    7  A    between atoms: N_18  and  C_19
REMARK    8  A    between atoms: C_19  and  N_21
REMARK    9  A    between atoms: N_21  and  C_22
REMARK   10  A    between atoms: C_25  and  S_28
REMARK   11  A    between atoms: S_28  and  N_30
REMARK                            x       y       z     vdW  Elec       q    Type
REMARK                         _______ _______ _______ _____ _____    ______ ____
ROOT
ATOM      1  C   UNL     1       1.855   5.057   0.419  0.00  0.00    +0.211 C 
ENDROOT
BRANCH   1   4
ATOM      2  C   UNL     1       1.477   2.741   1.075  0.00  0.00    +0.252 C 
ATOM      3  O   UNL     1       0.289   2.980   1.127  0.00  0.00    -0.272 OA
ATOM      4  N   UNL     1       2.346   3.712   0.731  0.00  0.00    -0.291 N 
ATOM      5  H   UNL     1       3.296   3.521   0.690  0.00  0.00    +0.151 HD
BRANCH   2   6
ATOM      6  C   UNL     1       1.982   1.358   1.396  0.00  0.00    +0.324 C 
BRANCH   6   7
ATOM      7  O   UNL     1       0.878   0.514   1.729  0.00  0.00    -0.483 OA
BRANCH   7  11
ATOM      8  C   UNL     1       1.742  -3.404   2.694  0.00  0.00    +0.000 A 
ATOM      9  C   UNL     1       0.431  -2.963   2.703  0.00  0.00    +0.004 A 
ATOM     10  C   UNL     1       0.139  -1.652   2.381  0.00  0.00    +0.045 A 
ATOM     11  C   UNL     1       1.163  -0.777   2.047  0.00  0.00    +0.121 A 
ATOM     12  C   UNL     1       2.476  -1.223   2.033  0.00  0.00    +0.045 A 
ATOM     13  C   UNL     1       2.764  -2.533   2.362  0.00  0.00    +0.004 A 
ENDBRANCH   7  11
ENDBRANCH   6   7
ENDBRANCH   2   6
ENDBRANCH   1   4
BRANCH   1  14
ATOM     14  C   UNL     1       2.545   5.571  -0.847  0.00  0.00    +0.225 C 
ATOM     15 CL   UNL     1       2.180   4.464  -2.222  0.00  0.00    -0.080 Cl
ATOM     16 CL   UNL     1       1.941   7.226  -1.231  0.00  0.00    -0.080 Cl
ATOM     17 CL   UNL     1       4.327   5.629  -0.578  0.00  0.00    -0.080 Cl
ENDBRANCH   1  14
BRANCH   1  18
ATOM     18  N   UNL     1       2.151   5.957   1.536  0.00  0.00    -0.305 N 
ATOM     19  H   UNL     1       3.058   6.273   1.677  0.00  0.00    +0.150 HD
BRANCH  18  20
ATOM     20  C   UNL     1       1.165   6.345   2.369  0.00  0.00    +0.136 C 
ATOM     21  S   UNL     1      -0.434   5.787   2.120  0.00  0.00    -0.019 S 
BRANCH  20  22
ATOM     22  N   UNL     1       1.438   7.173   3.397  0.00  0.00    -0.297 N 
ATOM     23  H   UNL     1       2.353   7.440   3.575  0.00  0.00    +0.154 HD
BRANCH  22  24
ATOM     24  C   UNL     1       0.401   7.646   4.207  0.00  0.00    +0.033 A 
ATOM     25  C   UNL     1       0.349   8.989   4.558  0.00  0.00    +0.024 A 
ATOM     26  C   UNL     1      -0.679   9.454   5.354  0.00  0.00    +0.020 A 
ATOM     27  C   UNL     1      -1.650   8.583   5.812  0.00  0.00    +0.054 A 
ATOM     28  C   UNL     1      -1.598   7.244   5.469  0.00  0.00    +0.020 A 
ATOM     29  C   UNL     1      -0.576   6.773   4.668  0.00  0.00    +0.024 A 
BRANCH  27  30
ATOM     30  S   UNL     1      -2.955   9.179   6.834  0.00  0.00    +0.123 S 
ATOM     31  O   UNL     1      -2.361   9.293   8.119  0.00  0.00    -0.236 OA
BRANCH  30  32
ATOM     32  N   UNL     1      -3.161  10.748   6.346  0.00  0.00    -0.248 NA
ATOM     33  H   UNL     1      -2.606  11.113   5.640  0.00  0.00    +0.134 HD
ATOM     34  H   UNL     1      -3.837  11.302   6.767  0.00  0.00    +0.134 HD
ENDBRANCH  30  32
ENDBRANCH  27  30
ENDBRANCH  22  24
ENDBRANCH  20  22
ENDBRANCH  18  20
ENDBRANCH   1  18
TORSDOF 11
