REMARK  Name = ZINC13806358
REMARK  3 active torsions:
REMARK  status: ('A' for Active; 'I' for Inactive)
REMARK    1  A    between atoms: C_1  and  C_2
REMARK    2  A    between atoms: C_6  and  C_8
REMARK    3  A    between atoms: C_11  and  C_23
REMARK                            x       y       z     vdW  Elec       q    Type
REMARK                         _______ _______ _______ _____ _____    ______ ____
ROOT
ATOM      1  C   UNL     1       0.054  -2.845   2.489  0.00  0.00    +0.122 C 
ATOM      2  C   UNL     1       1.314  -3.715   2.558  0.00  0.00    +0.057 C 
ATOM      3  C   UNL     1       1.210  -4.681   3.744  0.00  0.00    +0.106 C 
ATOM      4  N   UNL     1       0.067  -5.584   3.515  0.00  0.00    -0.309 N 
ATOM      5  C   UNL     1      -1.100  -4.997   3.050  0.00  0.00    +0.175 A 
ATOM      6  N   UNL     1      -1.128  -3.708   2.567  0.00  0.00    -0.306 N 
ATOM      7  C   UNL     1      -2.418  -3.439   2.203  0.00  0.00    +0.069 A 
ATOM      8  C   UNL     1      -3.033  -2.316   1.664  0.00  0.00    +0.028 A 
ATOM      9  C   UNL     1      -4.393  -2.399   1.415  0.00  0.00    +0.002 A 
ATOM     10  C   UNL     1      -5.120  -3.545   1.687  0.00  0.00    +0.002 A 
ATOM     11  C   UNL     1      -4.532  -4.676   2.224  0.00  0.00    +0.028 A 
ATOM     12  C   UNL     1      -3.159  -4.615   2.484  0.00  0.00    +0.065 A 
ATOM     13  N   UNL     1      -2.295  -5.523   2.993  0.00  0.00    -0.327 N 
ATOM     14  H   UNL     1       0.129  -6.538   3.681  0.00  0.00    +0.149 HD
ATOM     15  H   UNL     1      -2.527  -6.421   3.275  0.00  0.00    +0.169 HD
ENDROOT
BRANCH   1  21
ATOM     16  C   UNL     1      -0.018   1.503   0.010  0.00  0.00    +0.044 C 
ATOM     17  C   UNL     1       0.002  -0.004   0.002  0.00  0.00    -0.050 A 
ATOM     18  C   UNL     1       0.006  -0.689  -1.199  0.00  0.00    +0.003 A 
ATOM     19  C   UNL     1       0.025  -2.071  -1.207  0.00  0.00    +0.001 A 
ATOM     20  C   UNL     1       0.040  -2.768  -0.013  0.00  0.00    +0.006 A 
ATOM     21  C   UNL     1       0.037  -2.084   1.188  0.00  0.00    -0.024 A 
ATOM     22  C   UNL     1       0.023  -0.702   1.195  0.00  0.00    +0.009 A 
ENDBRANCH   1  21
BRANCH   3  23
ATOM     23  C   UNL     1       2.480  -5.484   3.855  0.00  0.00    -0.027 A 
ATOM     24  C   UNL     1       2.685  -6.571   3.026  0.00  0.00    +0.007 A 
ATOM     25  C   UNL     1       3.850  -7.308   3.128  0.00  0.00    +0.020 A 
ATOM     26  C   UNL     1       4.811  -6.957   4.058  0.00  0.00    +0.041 A 
ATOM     27  C   UNL     1       4.606  -5.868   4.887  0.00  0.00    +0.020 A 
ATOM     28  C   UNL     1       3.443  -5.129   4.781  0.00  0.00    +0.007 A 
ATOM     29 CL   UNL     1       6.275  -7.882   4.187  0.00  0.00    -0.084 Cl
ENDBRANCH   3  23
TORSDOF 2
