REMARK  Name = ZINC03771829
REMARK  13 active torsions:
REMARK  status: ('A' for Active; 'I' for Inactive)
REMARK    1  A    between atoms: C_1  and  C_2
REMARK    2  A    between atoms: C_4  and  C_41
REMARK    3  A    between atoms: C_6  and  S_8
REMARK    4  A    between atoms: S_8  and  C_9
REMARK    5  A    between atoms: C_9  and  C_10
REMARK    6  A    between atoms: N_12  and  C_13
REMARK    7  A    between atoms: N_12  and  C_21
REMARK    8  A    between atoms: C_13  and  C_14
REMARK    9  A    between atoms: C_21  and  C_23
REMARK   10  A    between atoms: C_21  and  C_30
REMARK   11  A    between atoms: N_32  and  C_33
REMARK   12  A    between atoms: C_36  and  O_39
REMARK   13  A    between atoms: O_39  and  C_40
REMARK                            x       y       z     vdW  Elec       q    Type
REMARK                         _______ _______ _______ _____ _____    ______ ____
ROOT
ATOM      1  C   UNL     1       1.868  -2.239  -2.662  0.00  0.00    +0.227 C 
ATOM      2  O   UNL     1       1.746  -2.899  -3.672  0.00  0.00    -0.275 OA
ATOM      3  N   UNL     1       0.786  -1.947  -1.913  0.00  0.00    -0.281 N 
ENDROOT
BRANCH   1   4
ATOM      4  C   UNL     1       3.229  -1.744  -2.244  0.00  0.00    +0.173 C 
BRANCH   4   5
ATOM      5  S   UNL     1       4.456  -2.240  -3.479  0.00  0.00    -0.077 S 
BRANCH   5  11
ATOM      6  C   UNL     1       6.770   0.374   0.264  0.00  0.00    +0.066 C 
ATOM      7  C   UNL     1       6.886  -0.368  -1.042  0.00  0.00    +0.043 A 
ATOM      8  C   UNL     1       8.118  -0.505  -1.664  0.00  0.00    +0.046 A 
ATOM      9  C   UNL     1       8.181  -1.195  -2.865  0.00  0.00    +0.043 A 
ATOM     10  N   UNL     1       7.072  -1.700  -3.378  0.00  0.00    -0.227 NA
ATOM     11  C   UNL     1       5.909  -1.551  -2.759  0.00  0.00    +0.189 A 
ATOM     12  N   UNL     1       5.814  -0.892  -1.612  0.00  0.00    -0.227 NA
ATOM     13  C   UNL     1       9.498  -1.369  -3.576  0.00  0.00    +0.066 C 
ENDBRANCH   5  11
ENDBRANCH   4   5
ENDBRANCH   1   4
BRANCH   3  14
ATOM     14  C   UNL     1       0.892  -0.982  -0.817  0.00  0.00    +0.144 C 
BRANCH  14  15
ATOM     15  C   UNL     1       0.737   0.415  -1.361  0.00  0.00    -0.030 A 
ATOM     16  C   UNL     1      -0.223   0.680  -2.320  0.00  0.00    +0.006 A 
ATOM     17  C   UNL     1      -0.366   1.961  -2.819  0.00  0.00    +0.020 A 
ATOM     18  C   UNL     1       0.451   2.978  -2.359  0.00  0.00    +0.041 A 
ATOM     19  C   UNL     1       1.411   2.712  -1.399  0.00  0.00    +0.020 A 
ATOM     20  C   UNL     1       1.554   1.431  -0.900  0.00  0.00    +0.006 A 
ATOM     21 CL   UNL     1       0.272   4.587  -2.985  0.00  0.00    -0.084 Cl
ENDBRANCH  14  15
ENDBRANCH   3  14
BRANCH   3  22
ATOM     22  C   UNL     1      -0.497  -2.597  -2.196  0.00  0.00    +0.193 C 
BRANCH  22  23
ATOM     23  C   UNL     1      -0.345  -4.090  -2.058  0.00  0.00    -0.018 A 
ATOM     24  C   UNL     1       0.307  -4.619  -0.960  0.00  0.00    +0.007 A 
ATOM     25  C   UNL     1       0.442  -5.989  -0.830  0.00  0.00    +0.020 A 
ATOM     26  C   UNL     1      -0.067  -6.829  -1.804  0.00  0.00    +0.041 A 
ATOM     27  C   UNL     1      -0.715  -6.298  -2.905  0.00  0.00    +0.020 A 
ATOM     28  C   UNL     1      -0.854  -4.929  -3.031  0.00  0.00    +0.007 A 
ATOM     29 CL   UNL     1       0.108  -8.549  -1.645  0.00  0.00    -0.084 Cl
ENDBRANCH  22  23
BRANCH  22  30
ATOM     30  C   UNL     1      -1.535  -2.104  -1.220  0.00  0.00    +0.242 C 
ATOM     31  O   UNL     1      -1.360  -1.063  -0.623  0.00  0.00    -0.273 OA
ATOM     32  N   UNL     1      -2.656  -2.821  -1.011  0.00  0.00    -0.284 N 
ATOM     33  H   UNL     1      -2.812  -3.637  -1.513  0.00  0.00    +0.155 HD
BRANCH  32  34
ATOM     34  C   UNL     1      -3.599  -2.389  -0.069  0.00  0.00    +0.034 A 
ATOM     35  C   UNL     1      -3.224  -2.207   1.256  0.00  0.00    +0.027 A 
ATOM     36  C   UNL     1      -4.151  -1.776   2.183  0.00  0.00    +0.047 A 
ATOM     37  C   UNL     1      -5.461  -1.535   1.794  0.00  0.00    +0.120 A 
ATOM     38  C   UNL     1      -5.838  -1.722   0.472  0.00  0.00    +0.047 A 
ATOM     39  C   UNL     1      -4.910  -2.147  -0.457  0.00  0.00    +0.027 A 
BRANCH  37  40
ATOM     40  O   UNL     1      -6.376  -1.116   2.709  0.00  0.00    -0.495 OA
ATOM     41  C   UNL     1      -5.918  -0.945   4.052  0.00  0.00    +0.277 C 
ENDBRANCH  37  40
ENDBRANCH  32  34
ENDBRANCH  22  30
ENDBRANCH   3  22
TORSDOF 10
