REMARK  Name = ZINC58763541
REMARK  8 active torsions:
REMARK  status: ('A' for Active; 'I' for Inactive)
REMARK    1  A    between atoms: C_1  and  C_2
REMARK    2  A    between atoms: C_5  and  C_8
REMARK    3  A    between atoms: N_14  and  C_15
REMARK    4  A    between atoms: C_15  and  C_16
REMARK    5  A    between atoms: C_16  and  C_17
REMARK    6  A    between atoms: N_19  and  C_20
REMARK    7  A    between atoms: N_25  and  C_27
REMARK    8  A    between atoms: C_27  and  C_28
REMARK                            x       y       z     vdW  Elec       q    Type
REMARK                         _______ _______ _______ _____ _____    ______ ____
ROOT
ATOM      1  C   UNL     1      -0.980  -4.002   4.516  0.00  0.00    +0.215 C 
ATOM      2  O   UNL     1       0.097  -3.637   4.938  0.00  0.00    -0.276 OA
ATOM      3  N   UNL     1      -2.081  -3.884   5.285  0.00  0.00    -0.314 N 
ATOM      4  H   UNL     1      -2.942  -4.176   4.947  0.00  0.00    +0.149 HD
ENDROOT
BRANCH   3   5
ATOM      5  C   UNL     1      -1.976  -3.316   6.631  0.00  0.00    +0.056 C 
ATOM      6  C   UNL     1      -1.583  -4.415   7.622  0.00  0.00    +0.018 C 
ATOM      7  C   UNL     1      -1.553  -3.828   9.036  0.00  0.00    -0.017 C 
ATOM      8  C   UNL     1      -2.919  -3.218   9.358  0.00  0.00    -0.078 C 
ATOM      9  N   UNL     1      -3.225  -2.156   8.392  0.00  0.00    +0.384 N 
ATOM     10  C   UNL     1      -3.326  -2.724   7.042  0.00  0.00    -0.056 C 
ATOM     11  H   UNL     1      -2.491  -1.465   8.410  0.00  0.00    -0.081 HD
BRANCH   9  12
ATOM     12  C   UNL     1      -4.500  -1.522   8.751  0.00  0.00    -0.043 C 
BRANCH  12  13
ATOM     13  C   UNL     1      -4.357  -0.825  10.080  0.00  0.00    -0.064 A 
ATOM     14  C   UNL     1      -4.626  -1.507  11.251  0.00  0.00    +0.002 A 
ATOM     15  C   UNL     1      -4.495  -0.868  12.470  0.00  0.00    +0.000 A 
ATOM     16  C   UNL     1      -4.095   0.455  12.516  0.00  0.00    +0.000 A 
ATOM     17  C   UNL     1      -3.826   1.137  11.345  0.00  0.00    +0.000 A 
ATOM     18  C   UNL     1      -3.953   0.496  10.127  0.00  0.00    +0.002 A 
ENDBRANCH  12  13
ENDBRANCH   9  12
ENDBRANCH   3   5
BRANCH   1  19
ATOM     19  C   UNL     1      -1.088  -4.587   3.131  0.00  0.00    +0.117 C 
BRANCH  19  20
ATOM     20  C   UNL     1       0.295  -4.607   2.477  0.00  0.00    +0.135 C 
BRANCH  20  27
ATOM     21  C   UNL     1       0.069  -4.239  -0.020  0.00  0.00    +0.163 A 
ATOM     22  N   UNL     1      -0.017  -4.989  -1.082  0.00  0.00    -0.153 NA
ATOM     23  N   UNL     1       0.023  -6.329  -0.671  0.00  0.00    -0.254 N 
ATOM     24  H   UNL     1      -0.022  -7.107  -1.248  0.00  0.00    +0.191 HD
ATOM     25  C   UNL     1       0.137  -6.338   0.672  0.00  0.00    +0.176 A 
ATOM     26  S   UNL     1       0.227  -7.726   1.670  0.00  0.00    -0.011 S 
ATOM     27  N   UNL     1       0.172  -5.056   1.088  0.00  0.00    -0.303 N 
BRANCH  21  32
ATOM     28  C   UNL     1       0.050   1.517   0.037  0.00  0.00    +0.044 C 
ATOM     29  C   UNL     1       0.055   0.010   0.022  0.00  0.00    -0.050 A 
ATOM     30  C   UNL     1       0.399  -0.666  -1.135  0.00  0.00    +0.004 A 
ATOM     31  C   UNL     1       0.406  -2.046  -1.155  0.00  0.00    +0.012 A 
ATOM     32  C   UNL     1       0.065  -2.759  -0.005  0.00  0.00    +0.019 A 
ATOM     33  C   UNL     1      -0.281  -2.071   1.158  0.00  0.00    +0.012 A 
ATOM     34  C   UNL     1      -0.279  -0.691   1.167  0.00  0.00    +0.004 A 
ENDBRANCH  21  32
ENDBRANCH  20  27
ENDBRANCH  19  20
ENDBRANCH   1  19
TORSDOF 7
