REMARK  Name = ZINC36648988
REMARK  10 active torsions:
REMARK  status: ('A' for Active; 'I' for Inactive)
REMARK    1  A    between atoms: C_1  and  C_2
REMARK    2  A    between atoms: C_2  and  N_3
REMARK    3  A    between atoms: N_3  and  C_4
REMARK    4  A    between atoms: N_3  and  C_6
REMARK    5  A    between atoms: C_4  and  C_5
REMARK    6  A    between atoms: C_6  and  C_7
REMARK    7  A    between atoms: C_7  and  N_8
REMARK    8  A    between atoms: N_17  and  C_18
REMARK    9  A    between atoms: C_18  and  C_20
REMARK   10  A    between atoms: C_27  and  C_29
REMARK                            x       y       z     vdW  Elec       q    Type
REMARK                         _______ _______ _______ _____ _____    ______ ____
ROOT
ATOM      1  N   UNL     1       2.435  -3.670  -0.672  0.00  0.00    -0.314 N 
ATOM      2  C   UNL     1       3.650  -4.319  -0.477  0.00  0.00    +0.068 A 
ATOM      3  C   UNL     1       4.840  -3.940   0.128  0.00  0.00    +0.028 A 
ATOM      4  C   UNL     1       5.902  -4.821   0.169  0.00  0.00    +0.002 A 
ATOM      5  C   UNL     1       5.785  -6.082  -0.392  0.00  0.00    +0.002 A 
ATOM      6  C   UNL     1       4.606  -6.469  -0.996  0.00  0.00    +0.028 A 
ATOM      7  C   UNL     1       3.532  -5.591  -1.042  0.00  0.00    +0.066 A 
ATOM      8  N   UNL     1       2.248  -5.688  -1.567  0.00  0.00    -0.326 N 
ATOM      9  C   UNL     1       1.599  -4.518  -1.328  0.00  0.00    +0.201 A 
ATOM     10  N   UNL     1       0.347  -4.244  -1.682  0.00  0.00    -0.146 NA
ATOM     11  H   UNL     1       1.877  -6.460  -2.024  0.00  0.00    +0.169 HD
ENDROOT
BRANCH  10  12
ATOM     12  C   UNL     1      -0.420  -5.198  -2.202  0.00  0.00    +0.244 C 
ATOM     13  O   UNL     1      -0.006  -6.339  -2.276  0.00  0.00    -0.273 OA
BRANCH  12  14
ATOM     14  C   UNL     1      -1.803  -4.864  -2.701  0.00  0.00    +0.094 C 
ATOM     15  C   UNL     1      -2.469  -6.130  -3.245  0.00  0.00    +0.016 C 
ATOM     16  C   UNL     1      -3.860  -5.787  -3.781  0.00  0.00    +0.020 C 
ATOM     17  C   UNL     1      -4.722  -5.239  -2.640  0.00  0.00    +0.108 C 
ATOM     18  N   UNL     1      -4.020  -4.109  -2.017  0.00  0.00    -0.297 N 
ATOM     19  C   UNL     1      -2.641  -4.305  -1.548  0.00  0.00    +0.121 C 
ATOM     20  C   UNL     1      -4.628  -2.914  -1.879  0.00  0.00    +0.247 C 
ATOM     21  O   UNL     1      -4.003  -1.958  -1.462  0.00  0.00    -0.270 OA
BRANCH  20  22
ATOM     22  C   UNL     1      -6.054  -2.765  -2.235  0.00  0.00    +0.037 A 
ATOM     23  C   UNL     1      -6.963  -3.780  -1.929  0.00  0.00    +0.014 A 
ATOM     24  C   UNL     1      -8.293  -3.636  -2.263  0.00  0.00    +0.021 A 
ATOM     25  C   UNL     1      -8.728  -2.486  -2.902  0.00  0.00    +0.041 A 
ATOM     26  C   UNL     1      -7.832  -1.476  -3.209  0.00  0.00    +0.021 A 
ATOM     27  C   UNL     1      -6.500  -1.607  -2.874  0.00  0.00    +0.014 A 
ATOM     28 CL   UNL     1     -10.403  -2.312  -3.321  0.00  0.00    -0.084 Cl
ENDBRANCH  20  22
ENDBRANCH  12  14
ENDBRANCH  10  12
BRANCH   1  29
ATOM     29  C   UNL     1       2.110  -2.309  -0.238  0.00  0.00    +0.106 C 
BRANCH  29  30
ATOM     30  C   UNL     1       1.526  -2.350   1.175  0.00  0.00    -0.057 C 
BRANCH  30  31
ATOM     31  N   UNL     1       1.200  -0.985   1.610  0.00  0.00    +0.380 N 
ATOM     32  H   UNL     1       2.019  -0.402   1.529  0.00  0.00    -0.082 HD
BRANCH  31  34
ATOM     33  C   UNL     1      -0.116   1.022   1.124  0.00  0.00    -0.017 C 
ATOM     34  C   UNL     1       0.129  -0.444   0.763  0.00  0.00    -0.082 C 
ENDBRANCH  31  34
BRANCH  31  35
ATOM     35  C   UNL     1       0.752  -1.010   3.009  0.00  0.00    -0.082 C 
ATOM     36  C   UNL     1       1.913  -1.440   3.908  0.00  0.00    -0.017 C 
ENDBRANCH  31  35
ENDBRANCH  30  31
ENDBRANCH  29  30
ENDBRANCH   1  29
TORSDOF 8
