REMARK  Name = ZINC39634893
REMARK  11 active torsions:
REMARK  status: ('A' for Active; 'I' for Inactive)
REMARK    1  A    between atoms: C_1  and  C_2
REMARK    2  A    between atoms: C_2  and  C_3
REMARK    3  A    between atoms: C_2  and  N_4
REMARK    4  A    between atoms: N_4  and  C_5
REMARK    5  A    between atoms: N_4  and  C_33
REMARK    6  A    between atoms: C_5  and  C_6
REMARK    7  A    between atoms: C_6  and  N_7
REMARK    8  A    between atoms: C_8  and  C_10
REMARK    9  A    between atoms: C_21  and  C_23
REMARK   10  A    between atoms: C_33  and  C_34
REMARK   11  A    between atoms: C_33  and  C_35
REMARK                            x       y       z     vdW  Elec       q    Type
REMARK                         _______ _______ _______ _____ _____    ______ ____
ROOT
ATOM      1  C   UNL     1      -4.312   0.507  -4.630  0.00  0.00    +0.100 C 
ATOM      2  C   UNL     1      -3.390   1.499  -5.374  0.00  0.00    +0.121 C 
ATOM      3  N   UNL     1      -4.282   2.616  -5.766  0.00  0.00    -0.295 N 
ATOM      4  C   UNL     1      -5.182   2.795  -4.602  0.00  0.00    +0.115 C 
ATOM      5  C   UNL     1      -5.486   1.361  -4.124  0.00  0.00    -0.004 C 
ATOM      6  C   UNL     1      -5.554   1.317  -2.600  0.00  0.00    -0.010 C 
ATOM      7  C   UNL     1      -6.763   2.126  -2.124  0.00  0.00    -0.082 C 
ATOM      8  N   UNL     1      -7.989   1.565  -2.705  0.00  0.00    +0.379 N 
ATOM      9  C   UNL     1      -7.956   1.697  -4.166  0.00  0.00    -0.082 C 
ATOM     10  C   UNL     1      -6.797   0.870  -4.729  0.00  0.00    -0.010 C 
ATOM     11  C   UNL     1      -4.277   3.311  -6.921  0.00  0.00    +0.265 C 
ATOM     12  O   UNL     1      -5.022   4.260  -7.062  0.00  0.00    -0.268 OA
ATOM     13  H   UNL     1      -8.061   0.590  -2.458  0.00  0.00    -0.086 HD
ATOM     14  H   UNL     1      -8.789   2.062  -2.342  0.00  0.00    -0.086 HD
ENDROOT
BRANCH  11  15
ATOM     15  C   UNL     1      -3.361   2.917  -8.019  0.00  0.00    +0.126 A 
ATOM     16  C   UNL     1      -3.284   3.719  -9.167  0.00  0.00    +0.033 A 
ATOM     17  C   UNL     1      -2.444   3.368 -10.185  0.00  0.00    +0.012 A 
ATOM     18  C   UNL     1      -1.677   2.197 -10.041  0.00  0.00    +0.000 A 
ATOM     19  C   UNL     1      -0.793   1.777 -11.048  0.00  0.00    +0.010 A 
ATOM     20  C   UNL     1      -0.066   0.639 -10.874  0.00  0.00    +0.001 A 
ATOM     21  C   UNL     1      -0.186  -0.117  -9.709  0.00  0.00    +0.002 A 
ATOM     22  C   UNL     1      -1.032   0.259  -8.713  0.00  0.00    +0.028 A 
ATOM     23  C   UNL     1      -1.802   1.430  -8.854  0.00  0.00    +0.072 A 
ATOM     24  N   UNL     1      -2.634   1.824  -7.891  0.00  0.00    -0.242 NA
ENDBRANCH  11  15
BRANCH   1  26
ATOM     25  N   UNL     1      -3.907  -1.361  -3.059  0.00  0.00    -0.317 N 
ATOM     26  C   UNL     1      -3.581  -0.120  -3.470  0.00  0.00    +0.218 C 
ATOM     27  O   UNL     1      -2.699   0.493  -2.907  0.00  0.00    -0.275 OA
ATOM     28  H   UNL     1      -4.612  -1.851  -3.510  0.00  0.00    +0.149 HD
BRANCH  25  29
ATOM     29  C   UNL     1      -3.196  -1.970  -1.932  0.00  0.00    +0.085 C 
BRANCH  29  30
ATOM     30  C   UNL     1      -3.756  -3.370  -1.673  0.00  0.00    -0.059 C 
BRANCH  30  31
ATOM     31  N   UNL     1      -3.076  -3.962  -0.513  0.00  0.00    +0.384 N 
ATOM     32  H   UNL     1      -2.079  -3.950  -0.665  0.00  0.00    -0.081 HD
BRANCH  31  34
ATOM     33  C   UNL     1      -3.215  -6.152  -1.600  0.00  0.00    -0.014 C 
ATOM     34  C   UNL     1      -3.528  -5.349  -0.336  0.00  0.00    -0.074 C 
ATOM     35  C   UNL     1      -2.802  -5.973   0.858  0.00  0.00    -0.014 C 
ENDBRANCH  31  34
BRANCH  31  36
ATOM     36  C   UNL     1      -3.397  -3.185   0.692  0.00  0.00    -0.074 C 
ATOM     37  C   UNL     1      -4.737  -3.656   1.260  0.00  0.00    -0.014 C 
ATOM     38  C   UNL     1      -2.299  -3.389   1.738  0.00  0.00    -0.014 C 
ENDBRANCH  31  36
ENDBRANCH  30  31
ENDBRANCH  29  30
ENDBRANCH  25  29
ENDBRANCH   1  26
TORSDOF 7
