REMARK  Name = ZINC25155225
REMARK  7 active torsions:
REMARK  status: ('A' for Active; 'I' for Inactive)
REMARK    1  A    between atoms: C_1  and  C_2
REMARK    2  A    between atoms: C_7  and  C_28
REMARK    3  A    between atoms: C_11  and  C_12
REMARK    4  A    between atoms: N_14  and  C_15
REMARK    5  A    between atoms: N_19  and  C_21
REMARK    6  A    between atoms: C_21  and  C_22
REMARK    7  A    between atoms: C_28  and  C_29
REMARK                            x       y       z     vdW  Elec       q    Type
REMARK                         _______ _______ _______ _____ _____    ______ ____
ROOT
ATOM      1  C   UNL     1      -0.355   4.363   0.028  0.00  0.00    +0.046 C 
ATOM      2  C   UNL     1      -1.518   3.405   0.028  0.00  0.00    -0.017 A 
ATOM      3  C   UNL     1      -2.827   3.893   0.037  0.00  0.00    +0.075 A 
ATOM      4  C   UNL     1      -3.303   5.295   0.046  0.00  0.00    +0.282 A 
ATOM      5  O   UNL     1      -2.514   6.223   0.047  0.00  0.00    -0.265 OA
ATOM      6  N   UNL     1      -4.632   5.519   0.053  0.00  0.00    -0.195 NA
ATOM      7  C   UNL     1      -5.519   4.494   0.052  0.00  0.00    +0.116 A 
ATOM      8  N   UNL     1      -5.134   3.247   0.044  0.00  0.00    -0.337 N 
ATOM      9  C   UNL     1      -3.849   2.916   0.036  0.00  0.00    +0.092 A 
ATOM     10  S   UNL     1      -2.949   1.386   0.016  0.00  0.00    -0.066 S 
ATOM     11  C   UNL     1      -1.296   2.059   0.019  0.00  0.00    +0.079 A 
ATOM     12  H   UNL     1      -5.881   2.440   0.044  0.00  0.00    +0.168 HD
ENDROOT
BRANCH  11  13
ATOM     13  C   UNL     1      -0.016   1.344   0.009  0.00  0.00    +0.251 C 
ATOM     14  O   UNL     1       1.029   1.966   0.003  0.00  0.00    -0.270 OA
ATOM     15  N   UNL     1       0.002  -0.004   0.002  0.00  0.00    -0.310 N 
ATOM     16  H   UNL     1      -0.943  -0.567   0.008  0.00  0.00    +0.149 HD
BRANCH  15  17
ATOM     17  C   UNL     1       1.281  -0.719  -0.014  0.00  0.00    +0.055 C 
ATOM     18  C   UNL     1       1.744  -0.958  -1.470  0.00  0.00    +0.002 C 
ATOM     19  C   UNL     1       2.342  -2.385  -1.413  0.00  0.00    -0.077 C 
ATOM     20  N   UNL     1       1.435  -3.098  -0.477  0.00  0.00    +0.384 N 
ATOM     21  C   UNL     1       1.114  -2.126   0.590  0.00  0.00    -0.056 C 
ATOM     22  H   UNL     1       0.527  -3.457  -0.982  0.00  0.00    -0.081 HD
BRANCH  20  23
ATOM     23  C   UNL     1       2.084  -4.293   0.077  0.00  0.00    -0.043 C 
BRANCH  23  24
ATOM     24  C   UNL     1       2.174  -5.356  -0.987  0.00  0.00    -0.064 A 
ATOM     25  C   UNL     1       1.150  -6.271  -1.138  0.00  0.00    +0.002 A 
ATOM     26  C   UNL     1       1.230  -7.243  -2.118  0.00  0.00    +0.000 A 
ATOM     27  C   UNL     1       2.339  -7.305  -2.941  0.00  0.00    +0.000 A 
ATOM     28  C   UNL     1       3.366  -6.393  -2.787  0.00  0.00    +0.000 A 
ATOM     29  C   UNL     1       3.284  -5.418  -1.810  0.00  0.00    +0.002 A 
ENDBRANCH  23  24
ENDBRANCH  20  23
ENDBRANCH  15  17
ENDBRANCH  11  13
BRANCH   7  30
ATOM     30  C   UNL     1      -6.994   4.803   0.060  0.00  0.00    +0.109 C 
BRANCH  30  31
ATOM     31  C   UNL     1      -7.778   3.516   0.057  0.00  0.00    -0.040 A 
ATOM     32  C   UNL     1      -8.147   2.935  -1.141  0.00  0.00    +0.004 A 
ATOM     33  C   UNL     1      -8.861   1.751  -1.144  0.00  0.00    +0.000 A 
ATOM     34  C   UNL     1      -9.216   1.155   0.051  0.00  0.00    +0.000 A 
ATOM     35  C   UNL     1      -8.851   1.739   1.250  0.00  0.00    +0.000 A 
ATOM     36  C   UNL     1      -8.132   2.919   1.253  0.00  0.00    +0.004 A 
ENDBRANCH  30  31
ENDBRANCH   7  30
TORSDOF 6
