REMARK  Name = ZINC09235527
REMARK  8 active torsions:
REMARK  status: ('A' for Active; 'I' for Inactive)
REMARK    1  A    between atoms: C_1  and  C_2
REMARK    2  A    between atoms: C_2  and  C_3
REMARK    3  A    between atoms: C_6  and  N_9
REMARK    4  A    between atoms: C_10  and  C_12
REMARK    5  A    between atoms: N_14  and  N_15
REMARK    6  A    between atoms: C_16  and  C_17
REMARK    7  A    between atoms: C_22  and  N_23
REMARK    8  A    between atoms: N_23  and  C_24
REMARK                            x       y       z     vdW  Elec       q    Type
REMARK                         _______ _______ _______ _____ _____    ______ ____
ROOT
ATOM      1  N   UNL     1       2.406  -2.578   0.054  0.00  0.00    -0.187 NA
ATOM      2  C   UNL     1       1.409  -1.782   0.299  0.00  0.00    +0.140 C 
ENDROOT
BRANCH   2   3
ATOM      3  C   UNL     1       1.595  -0.323   0.224  0.00  0.00    +0.017 A 
ATOM      4  C   UNL     1       0.559   0.538   0.594  0.00  0.00    +0.026 A 
ATOM      5  C   UNL     1       0.741   1.903   0.521  0.00  0.00    +0.019 A 
ATOM      6  C   UNL     1       1.947   2.426   0.082  0.00  0.00    +0.017 A 
ATOM      7  C   UNL     1       2.980   1.587  -0.287  0.00  0.00    +0.025 A 
ATOM      8  C   UNL     1       2.816   0.210  -0.220  0.00  0.00    +0.040 A 
ATOM      9 BR   UNL     1      -0.665   3.067   1.014  0.00  0.00    -0.050 Br
BRANCH   8  10
ATOM     10  N   UNL     1       3.857  -0.638  -0.592  0.00  0.00    -0.313 N 
ATOM     11  H   UNL     1       4.580  -0.819   0.028  0.00  0.00    +0.152 HD
BRANCH  10  12
ATOM     12  C   UNL     1       3.858  -1.228  -1.859  0.00  0.00    +0.050 A 
ATOM     13  C   UNL     1       2.787  -1.029  -2.721  0.00  0.00    +0.025 A 
ATOM     14  C   UNL     1       2.795  -1.610  -3.974  0.00  0.00    +0.002 A 
ATOM     15  C   UNL     1       3.862  -2.396  -4.368  0.00  0.00    +0.002 A 
ATOM     16  C   UNL     1       4.928  -2.600  -3.511  0.00  0.00    +0.022 A 
ATOM     17  C   UNL     1       4.930  -2.019  -2.258  0.00  0.00    +0.062 A 
ATOM     18 CL   UNL     1       6.268  -2.276  -1.182  0.00  0.00    -0.082 Cl
ENDBRANCH  10  12
ENDBRANCH   8  10
ENDBRANCH   2   3
BRANCH   1  21
ATOM     19  C   UNL     1       3.262  -4.792  -0.130  0.00  0.00    +0.318 C 
ATOM     20  O   UNL     1       4.348  -4.333  -0.421  0.00  0.00    -0.263 OA
ATOM     21  N   UNL     1       2.228  -3.966   0.125  0.00  0.00    -0.199 N 
ATOM     22  H   UNL     1       1.361  -4.332   0.358  0.00  0.00    +0.178 HD
BRANCH  19  24
ATOM     23  N   UNL     1       4.107  -7.094  -0.308  0.00  0.00    -0.278 N 
ATOM     24  C   UNL     1       3.073  -6.269  -0.053  0.00  0.00    +0.305 C 
ATOM     25  O   UNL     1       1.988  -6.727   0.238  0.00  0.00    -0.265 OA
ATOM     26  H   UNL     1       4.992  -6.729  -0.469  0.00  0.00    +0.155 HD
BRANCH  23  30
ATOM     27  C   UNL     1       3.507 -11.214  -0.407  0.00  0.00    -0.048 A 
ATOM     28  C   UNL     1       2.514 -10.361  -0.853  0.00  0.00    +0.005 A 
ATOM     29  C   UNL     1       2.709  -8.995  -0.821  0.00  0.00    +0.023 A 
ATOM     30  C   UNL     1       3.906  -8.477  -0.341  0.00  0.00    +0.034 A 
ATOM     31  C   UNL     1       4.904  -9.336   0.101  0.00  0.00    +0.023 A 
ATOM     32  C   UNL     1       4.699 -10.702   0.071  0.00  0.00    +0.005 A 
BRANCH  27  34
ATOM     33  C   UNL     1       3.771 -13.259  -1.785  0.00  0.00    +0.009 C 
ATOM     34  C   UNL     1       3.289 -12.705  -0.442  0.00  0.00    +0.032 C 
ENDBRANCH  27  34
ENDBRANCH  23  30
ENDBRANCH  19  24
ENDBRANCH   1  21
TORSDOF 7
