REMARK  Name = ZINC38636541
REMARK  11 active torsions:
REMARK  status: ('A' for Active; 'I' for Inactive)
REMARK    1  A    between atoms: C_1  and  C_2
REMARK    2  A    between atoms: C_2  and  C_3
REMARK    3  A    between atoms: C_2  and  C_34
REMARK    4  A    between atoms: C_2  and  O_38
REMARK    5  A    between atoms: C_9  and  O_32
REMARK    6  A    between atoms: C_22  and  O_25
REMARK    7  A    between atoms: C_27  and  C_29
REMARK    8  A    between atoms: O_32  and  C_33
REMARK    9  A    between atoms: C_34  and  C_35
REMARK   10  A    between atoms: C_34  and  C_36
REMARK   11  A    between atoms: C_34  and  C_37
REMARK                            x       y       z     vdW  Elec       q    Type
REMARK                         _______ _______ _______ _____ _____    ______ ____
ROOT
ATOM      1  C   UNL     1       0.989  -0.312   0.433  0.00  0.00    +0.057 C 
ATOM      2  C   UNL     1       1.150  -1.824   0.628  0.00  0.00    +0.019 C 
ATOM      3  C   UNL     1       2.557  -2.230   0.216  0.00  0.00    +0.003 C 
ATOM      4  C   UNL     1       2.767  -1.888  -1.265  0.00  0.00    +0.012 C 
ATOM      5  C   UNL     1       2.594  -0.385  -1.479  0.00  0.00    +0.040 C 
ATOM      6  C   UNL     1       2.271   0.295  -0.148  0.00  0.00    +0.112 C 
ATOM      7  C   UNL     1       3.425   0.078   0.831  0.00  0.00    +0.217 C 
ATOM      8  C   UNL     1       3.572  -1.433   1.048  0.00  0.00    +0.048 C 
ATOM      9  C   UNL     1       3.551  -1.786   2.511  0.00  0.00    +0.035 C 
ATOM     10  C   UNL     1       3.671  -3.292   2.747  0.00  0.00    +0.109 C 
ATOM     11  N   UNL     1       2.706  -3.983   1.874  0.00  0.00    -0.297 N 
ATOM     12  C   UNL     1       2.845  -3.715   0.422  0.00  0.00    +0.087 C 
ATOM     13  C   UNL     1       4.273  -4.125   0.054  0.00  0.00    +0.058 C 
ATOM     14  C   UNL     1       5.222  -2.989  -0.124  0.00  0.00    -0.038 A 
ATOM     15  C   UNL     1       4.856  -1.739   0.337  0.00  0.00    +0.012 A 
ATOM     16  C   UNL     1       5.495  -0.552   0.037  0.00  0.00    +0.166 A 
ATOM     17  C   UNL     1       6.759  -0.632  -0.562  0.00  0.00    +0.159 A 
ATOM     18  C   UNL     1       7.216  -1.904  -0.899  0.00  0.00    +0.049 A 
ATOM     19  C   UNL     1       6.470  -3.057  -0.714  0.00  0.00    +0.008 A 
ATOM     20  O   UNL     1       4.680   0.516   0.285  0.00  0.00    -0.481 OA
ATOM     21  C   UNL     1       1.757  -4.806   2.364  0.00  0.00    +0.219 C 
ATOM     22  O   UNL     1       0.982  -5.355   1.610  0.00  0.00    -0.275 OA
ENDROOT
BRANCH  21  23
ATOM     23  C   UNL     1       1.660  -5.044   3.849  0.00  0.00    +0.075 C 
ATOM     24  C   UNL     1       2.025  -6.437   4.366  0.00  0.00    +0.013 C 
ATOM     25  C   UNL     1       0.562  -5.989   4.342  0.00  0.00    +0.013 C 
ENDBRANCH  21  23
BRANCH   1  27
ATOM     26  C   UNL     1      -0.214   1.440  -0.880  0.00  0.00    +0.042 C 
ATOM     27  C   UNL     1      -0.174  -0.047  -0.524  0.00  0.00    +0.074 C 
BRANCH  27  28
ATOM     28  C   UNL     1      -1.489  -0.447   0.148  0.00  0.00    -0.009 C 
ATOM     29  C   UNL     1      -2.665   0.034  -0.705  0.00  0.00    +0.013 C 
ATOM     30  C   UNL     1      -1.549  -1.969   0.287  0.00  0.00    +0.013 C 
ATOM     31  C   UNL     1      -1.569   0.196   1.534  0.00  0.00    +0.013 C 
ENDBRANCH  27  28
BRANCH  27  32
ATOM     32  O   UNL     1       0.005  -0.817  -1.715  0.00  0.00    -0.388 OA
ATOM     33  H   UNL     1       0.039  -1.771  -1.565  0.00  0.00    +0.210 HD
ENDBRANCH  27  32
ENDBRANCH   1  27
BRANCH  17  34
ATOM     34  O   UNL     1       7.504   0.480  -0.804  0.00  0.00    -0.503 OA
ATOM     35  H   UNL     1       8.093   0.725  -0.077  0.00  0.00    +0.292 HD
ENDBRANCH  17  34
BRANCH   6  36
ATOM     36  O   UNL     1       2.081   1.695  -0.363  0.00  0.00    -0.373 OA
ATOM     37  C   UNL     1       3.223   2.359  -0.907  0.00  0.00    +0.194 C 
ENDBRANCH   6  36
TORSDOF 6
