REMARK  Name = ZINC03765370
REMARK  6 active torsions:
REMARK  status: ('A' for Active; 'I' for Inactive)
REMARK    1  A    between atoms: C_6  and  C_11
REMARK    2  A    between atoms: C_13  and  C_33
REMARK    3  A    between atoms: C_18  and  C_21
REMARK    4  A    between atoms: N_23  and  N_24
REMARK    5  A    between atoms: C_25  and  C_26
REMARK    6  A    between atoms: C_30  and  O_32
REMARK                            x       y       z     vdW  Elec       q    Type
REMARK                         _______ _______ _______ _____ _____    ______ ____
ROOT
ATOM      1  C   UNL     1       9.757   8.114   0.058  0.00  0.00    +0.077 A 
ATOM      2  C   UNL     1       9.527   9.456  -0.058  0.00  0.00    +0.062 A 
ATOM      3  C   UNL     1       8.147   9.649  -0.133  0.00  0.00    +0.166 A 
ATOM      4  N   UNL     1       7.557   8.482  -0.073  0.00  0.00    -0.160 NA
ATOM      5  N   UNL     1       8.540   7.491   0.044  0.00  0.00    -0.207 N 
ATOM      6  C   UNL     1       8.318   6.120   0.136  0.00  0.00    +0.195 A 
ATOM      7  N   UNL     1       7.478   5.465   0.909  0.00  0.00    -0.216 NA
ATOM      8  C   UNL     1       7.419   4.134   0.848  0.00  0.00    +0.136 A 
ATOM      9  C   UNL     1       8.234   3.473  -0.035  0.00  0.00    +0.081 A 
ATOM     10  S   UNL     1       9.092   4.791  -0.771  0.00  0.00    -0.055 S 
ENDROOT
BRANCH   1  16
ATOM     11  C   UNL     1      15.914   6.216   0.099  0.00  0.00    +0.001 A 
ATOM     12  C   UNL     1      15.837   7.499  -0.439  0.00  0.00    +0.001 A 
ATOM     13  C   UNL     1      14.641   8.137  -0.561  0.00  0.00    +0.008 A 
ATOM     14  C   UNL     1      13.463   7.494  -0.141  0.00  0.00    -0.017 A 
ATOM     15  C   UNL     1      12.214   8.123  -0.252  0.00  0.00    +0.018 A 
ATOM     16  C   UNL     1      11.077   7.458   0.173  0.00  0.00    +0.001 A 
ATOM     17  C   UNL     1      11.167   6.165   0.719  0.00  0.00    +0.010 A 
ATOM     18  C   UNL     1      12.367   5.538   0.829  0.00  0.00    +0.009 A 
ATOM     19  C   UNL     1      13.541   6.188   0.406  0.00  0.00    -0.018 A 
ATOM     20  C   UNL     1      14.794   5.563   0.517  0.00  0.00    +0.008 A 
ENDBRANCH   1  16
BRANCH   8  21
ATOM     21  C   UNL     1       6.490   3.387   1.711  0.00  0.00    +0.282 C 
ATOM     22  O   UNL     1       6.441   2.173   1.644  0.00  0.00    -0.267 OA
ATOM     23  N   UNL     1       5.694   4.047   2.575  0.00  0.00    -0.202 N 
ATOM     24  H   UNL     1       5.733   5.014   2.629  0.00  0.00    +0.178 HD
BRANCH  23  25
ATOM     25  N   UNL     1       4.810   3.335   3.396  0.00  0.00    -0.187 NA
ATOM     26  C   UNL     1       4.043   3.970   4.229  0.00  0.00    +0.138 C 
BRANCH  26  27
ATOM     27  C   UNL     1       3.112   3.221   5.093  0.00  0.00    -0.002 A 
ATOM     28  C   UNL     1       3.053   1.827   5.018  0.00  0.00    +0.010 A 
ATOM     29  C   UNL     1       2.181   1.130   5.829  0.00  0.00    +0.004 A 
ATOM     30  C   UNL     1       1.360   1.807   6.712  0.00  0.00    +0.045 A 
ATOM     31  C   UNL     1       1.415   3.192   6.798  0.00  0.00    +0.117 A 
ATOM     32  C   UNL     1       2.287   3.902   5.989  0.00  0.00    +0.054 A 
BRANCH  31  33
ATOM     33  O   UNL     1       0.610   3.851   7.672  0.00  0.00    -0.507 OA
ATOM     34  H   UNL     1      -0.248   4.101   7.304  0.00  0.00    +0.292 HD
ENDBRANCH  31  33
ENDBRANCH  26  27
ENDBRANCH  23  25
ENDBRANCH   8  21
BRANCH   3  35
ATOM     35  C   UNL     1       7.451  10.980  -0.262  0.00  0.00    +0.436 C 
ATOM     36  F   UNL     1       6.067  10.791  -0.194  0.00  0.00    -0.164 F 
ATOM     37  F   UNL     1       7.858  11.822   0.779  0.00  0.00    -0.164 F 
ATOM     38  F   UNL     1       7.783  11.562  -1.490  0.00  0.00    -0.164 F 
ENDBRANCH   3  35
TORSDOF 6
