REMARK  Name = ZINC19841693
REMARK  12 active torsions:
REMARK  status: ('A' for Active; 'I' for Inactive)
REMARK    1  A    between atoms: C_1  and  O_2
REMARK    2  A    between atoms: O_2  and  C_3
REMARK    3  A    between atoms: C_6  and  C_11
REMARK    4  A    between atoms: C_8  and  O_9
REMARK    5  A    between atoms: O_9  and  C_10
REMARK    6  A    between atoms: C_19  and  N_35
REMARK    7  A    between atoms: C_20  and  C_33
REMARK    8  A    between atoms: C_21  and  C_23
REMARK    9  A    between atoms: C_26  and  O_31
REMARK   10  A    between atoms: C_27  and  O_29
REMARK   11  A    between atoms: O_29  and  C_30
REMARK   12  A    between atoms: O_31  and  C_32
REMARK                            x       y       z     vdW  Elec       q    Type
REMARK                         _______ _______ _______ _____ _____    ______ ____
ROOT
ATOM      1  C   UNL     1       3.044  -6.860  -2.099  0.00  0.00    +0.015 C 
ATOM      2  C   UNL     1       2.528  -5.628  -2.258  0.00  0.00    -0.004 C 
ATOM      3  C   UNL     1       2.806  -4.825  -3.510  0.00  0.00    +0.039 C 
ATOM      4  C   UNL     1       3.063  -3.378  -3.065  0.00  0.00    +0.009 C 
ATOM      5  C   UNL     1       1.803  -2.839  -2.395  0.00  0.00    +0.036 C 
ATOM      6  C   UNL     1       1.346  -3.734  -1.271  0.00  0.00    -0.014 C 
ATOM      7  C   UNL     1       1.675  -5.024  -1.216  0.00  0.00    +0.133 C 
ATOM      8  O   UNL     1       1.242  -5.826  -0.209  0.00  0.00    -0.441 OA
ATOM      9  C   UNL     1       0.855  -5.288   0.961  0.00  0.00    +0.199 C 
ATOM     10  C   UNL     1       0.476  -3.987   1.033  0.00  0.00    +0.098 C 
ATOM     11  C   UNL     1       0.481  -3.121  -0.193  0.00  0.00    +0.094 C 
ENDROOT
BRANCH   1  15
ATOM     12  C   UNL     1       3.015  -8.692   1.733  0.00  0.00    +0.162 A 
ATOM     13  C   UNL     1       3.341  -7.349   1.609  0.00  0.00    +0.050 A 
ATOM     14  C   UNL     1       3.352  -6.750   0.367  0.00  0.00    +0.012 A 
ATOM     15  C   UNL     1       3.034  -7.497  -0.771  0.00  0.00    -0.021 A 
ATOM     16  C   UNL     1       2.701  -8.849  -0.645  0.00  0.00    +0.057 A 
ATOM     17  C   UNL     1       2.697  -9.443   0.603  0.00  0.00    +0.162 A 
BRANCH  12  19
ATOM     18  C   UNL     1       3.341  -8.449   4.076  0.00  0.00    +0.277 C 
ATOM     19  O   UNL     1       3.006  -9.277   2.960  0.00  0.00    -0.491 OA
ENDBRANCH  12  19
BRANCH  17  20
ATOM     20  O   UNL     1       2.379 -10.759   0.729  0.00  0.00    -0.491 OA
ATOM     21  C   UNL     1       2.064 -11.468  -0.471  0.00  0.00    +0.277 C 
ENDBRANCH  17  20
ENDBRANCH   1  15
BRANCH  11  22
ATOM     22  C   UNL     1      -0.928  -2.979  -0.708  0.00  0.00    -0.031 A 
ATOM     23  C   UNL     1      -1.632  -4.099  -1.109  0.00  0.00    +0.008 A 
ATOM     24  C   UNL     1      -2.925  -3.974  -1.581  0.00  0.00    +0.050 A 
ATOM     25  C   UNL     1      -3.521  -2.725  -1.647  0.00  0.00    +0.162 A 
ATOM     26  C   UNL     1      -2.810  -1.597  -1.249  0.00  0.00    +0.162 A 
ATOM     27  C   UNL     1      -1.514  -1.729  -0.777  0.00  0.00    +0.054 A 
BRANCH  26  28
ATOM     28  O   UNL     1      -3.389  -0.367  -1.317  0.00  0.00    -0.491 OA
ATOM     29  C   UNL     1      -2.602   0.745  -0.886  0.00  0.00    +0.277 C 
ENDBRANCH  26  28
BRANCH  25  30
ATOM     30  O   UNL     1      -4.795  -2.601  -2.106  0.00  0.00    -0.491 OA
ATOM     31  C   UNL     1      -5.463  -3.801  -2.498  0.00  0.00    +0.277 C 
ENDBRANCH  25  30
ENDBRANCH  11  22
BRANCH   9  32
ATOM     32  N   UNL     1       0.842  -6.064   2.093  0.00  0.00    -0.328 N 
ATOM     33  H   UNL     1       0.526  -5.630   3.053  0.00  0.00    +0.145 HD
ATOM     34  H   UNL     1       1.147  -7.119   2.041  0.00  0.00    +0.145 HD
ENDBRANCH   9  32
BRANCH  10  35
ATOM     35  C   UNL     1       0.069  -3.436   2.290  0.00  0.00    +0.101 C 
ATOM     36  N   UNL     1      -0.254  -2.998   3.288  0.00  0.00    -0.191 NA
ENDBRANCH  10  35
TORSDOF 8
