REMARK  Name = ZINC08934556
REMARK  8 active torsions:
REMARK  status: ('A' for Active; 'I' for Inactive)
REMARK    1  A    between atoms: C_1  and  C_2
REMARK    2  A    between atoms: C_2  and  C_34
REMARK    3  A    between atoms: C_3  and  N_23
REMARK    4  A    between atoms: N_5  and  C_17
REMARK    5  A    between atoms: N_8  and  C_9
REMARK    6  A    between atoms: C_9  and  C_10
REMARK    7  A    between atoms: N_23  and  O_33
REMARK    8  A    between atoms: N_26  and  C_27
REMARK                            x       y       z     vdW  Elec       q    Type
REMARK                         _______ _______ _______ _____ _____    ______ ____
ROOT
ATOM      1  C   UNL     1       3.246   3.233  -2.075  0.00  0.00    +0.035 C 
ATOM      2  C   UNL     1       3.917   1.858  -2.088  0.00  0.00    +0.071 C 
ATOM      3  C   UNL     1       4.097   1.357  -3.535  0.00  0.00    +0.220 C 
ATOM      4  N   UNL     1       3.302   0.121  -3.581  0.00  0.00    -0.260 N 
ATOM      5  C   UNL     1       2.748  -0.092  -2.380  0.00  0.00    +0.307 C 
ATOM      6  O   UNL     1       2.042  -1.051  -2.136  0.00  0.00    -0.252 OA
ATOM      7  N   UNL     1       3.040   0.850  -1.473  0.00  0.00    -0.272 N 
ATOM      8  C   UNL     1       5.263   1.912  -1.364  0.00  0.00    +0.035 C 
ENDROOT
BRANCH   4   9
ATOM      9  C   UNL     1       3.146  -0.745  -4.753  0.00  0.00    +0.080 C 
ATOM     10  C   UNL     1       1.667  -0.824  -5.135  0.00  0.00    +0.022 C 
ATOM     11  C   UNL     1       1.504  -1.728  -6.359  0.00  0.00    +0.002 C 
ATOM     12  C   UNL     1       2.022  -3.130  -6.030  0.00  0.00    +0.000 C 
ATOM     13  C   UNL     1       3.501  -3.050  -5.648  0.00  0.00    +0.002 C 
ATOM     14  C   UNL     1       3.664  -2.146  -4.424  0.00  0.00    +0.022 C 
ENDBRANCH   4   9
BRANCH   3  15
ATOM     15  N   UNL     1       5.508   1.073  -3.808  0.00  0.00    -0.144 N 
ATOM     16  C   UNL     1       6.075   1.513  -4.949  0.00  0.00    +0.327 C 
ATOM     17  O   UNL     1       5.447   2.233  -5.702  0.00  0.00    -0.250 OA
ATOM     18  N   UNL     1       7.338   1.157  -5.255  0.00  0.00    -0.295 N 
ATOM     19  H   UNL     1       7.874   0.435  -4.621  0.00  0.00    +0.151 HD
BRANCH  18  20
ATOM     20  C   UNL     1       7.997   1.731  -6.431  0.00  0.00    +0.074 C 
ATOM     21  C   UNL     1       7.623   0.918  -7.672  0.00  0.00    +0.022 C 
ATOM     22  C   UNL     1       8.310   1.517  -8.900  0.00  0.00    +0.002 C 
ATOM     23  C   UNL     1       9.827   1.480  -8.704  0.00  0.00    +0.000 C 
ATOM     24  C   UNL     1      10.201   2.292  -7.463  0.00  0.00    +0.002 C 
ATOM     25  C   UNL     1       9.514   1.693  -6.235  0.00  0.00    +0.022 C 
ENDBRANCH  18  20
BRANCH  15  26
ATOM     26  O   UNL     1       6.275   0.334  -2.875  0.00  0.00    -0.289 OA
ATOM     27  H   UNL     1       7.334   0.121  -3.081  0.00  0.00    +0.242 HD
ENDBRANCH  15  26
ENDBRANCH   3  15
BRANCH   7  28
ATOM     28  C   UNL     1       2.566   0.870  -0.087  0.00  0.00    +0.145 C 
BRANCH  28  29
ATOM     29  C   UNL     1       3.503   0.064   0.776  0.00  0.00    -0.030 A 
ATOM     30  C   UNL     1       4.558   0.686   1.417  0.00  0.00    +0.008 A 
ATOM     31  C   UNL     1       5.421  -0.052   2.204  0.00  0.00    +0.038 A 
ATOM     32  C   UNL     1       5.223  -1.414   2.358  0.00  0.00    +0.123 A 
ATOM     33  C   UNL     1       4.167  -2.036   1.715  0.00  0.00    +0.038 A 
ATOM     34  C   UNL     1       3.308  -1.296   0.924  0.00  0.00    +0.008 A 
ATOM     35  F   UNL     1       6.064  -2.136   3.132  0.00  0.00    -0.205 F 
ENDBRANCH  28  29
ENDBRANCH   7  28
TORSDOF 6
