REMARK  Name = ZINC09287020
REMARK  5 active torsions:
REMARK  status: ('A' for Active; 'I' for Inactive)
REMARK    1  A    between atoms: C_1  and  C_2
REMARK    2  A    between atoms: C_5  and  S_7
REMARK    3  A    between atoms: S_7  and  C_8
REMARK    4  A    between atoms: C_8  and  C_9
REMARK    5  A    between atoms: N_19  and  C_20
REMARK                            x       y       z     vdW  Elec       q    Type
REMARK                         _______ _______ _______ _____ _____    ______ ____
ROOT
ATOM      1  C   UNL     1      -0.029  -6.731   0.302  0.00  0.00    +0.060 A 
ATOM      2  C   UNL     1      -1.171  -7.456   0.122  0.00  0.00    +0.094 A 
ATOM      3  C   UNL     1      -1.075  -8.853  -0.012  0.00  0.00    +0.253 A 
ATOM      4  O   UNL     1      -2.075  -9.533  -0.175  0.00  0.00    -0.268 OA
ATOM      5  N   UNL     1       0.146  -9.427   0.042  0.00  0.00    -0.293 N 
ATOM      6  C   UNL     1       1.249  -8.652   0.224  0.00  0.00    +0.211 A 
ATOM      7  N   UNL     1       1.151  -7.344   0.344  0.00  0.00    -0.218 NA
ATOM      8  N   UNL     1       2.488  -9.244   0.279  0.00  0.00    -0.298 N 
ATOM      9  C   UNL     1       3.625  -8.463   0.301  0.00  0.00    +0.180 C 
ATOM     10  N   UNL     1       4.800  -9.021   0.227  0.00  0.00    -0.371 N 
ATOM     11  N   UNL     1       3.519  -7.095   0.401  0.00  0.00    -0.328 N 
ATOM     12  H   UNL     1       5.600  -8.483   0.331  0.00  0.00    +0.159 HD
ATOM     13  H   UNL     1       2.646  -6.673   0.371  0.00  0.00    +0.169 HD
ATOM     14  H   UNL     1       4.874  -9.976   0.069  0.00  0.00    +0.159 HD
ATOM     15  H   UNL     1       2.563 -10.211   0.302  0.00  0.00    +0.172 HD
ATOM     16  H   UNL     1       0.236 -10.389  -0.047  0.00  0.00    +0.172 HD
ENDROOT
BRANCH  11  17
ATOM     17  C   UNL     1       4.670  -6.312   0.546  0.00  0.00    +0.042 A 
ATOM     18  C   UNL     1       5.769  -6.532  -0.274  0.00  0.00    +0.027 A 
ATOM     19  C   UNL     1       6.903  -5.758  -0.128  0.00  0.00    +0.022 A 
ATOM     20  C   UNL     1       6.946  -4.765   0.834  0.00  0.00    +0.041 A 
ATOM     21  C   UNL     1       5.852  -4.544   1.653  0.00  0.00    +0.022 A 
ATOM     22  C   UNL     1       4.713  -5.311   1.507  0.00  0.00    +0.027 A 
ATOM     23 CL   UNL     1       8.374  -3.795   1.016  0.00  0.00    -0.084 Cl
ENDBRANCH  11  17
BRANCH   1  24
ATOM     24  C   UNL     1      -0.105  -5.233   0.448  0.00  0.00    +0.132 C 
BRANCH  24  25
ATOM     25  S   UNL     1       0.161  -4.781   2.185  0.00  0.00    -0.091 S 
BRANCH  25  30
ATOM     26  C   UNL     1      -0.095   1.060   2.977  0.00  0.00    +0.075 C 
ATOM     27  C   UNL     1      -0.069  -0.388   2.562  0.00  0.00    +0.100 A 
ATOM     28  N   UNL     1      -0.235  -0.932   1.373  0.00  0.00    -0.146 NA
ATOM     29  N   UNL     1      -0.183  -2.179   1.191  0.00  0.00    -0.135 NA
ATOM     30  C   UNL     1       0.045  -3.022   2.190  0.00  0.00    +0.159 A 
ATOM     31  S   UNL     1       0.206  -1.861   3.543  0.00  0.00    -0.044 S 
ENDBRANCH  25  30
ENDBRANCH  24  25
ENDBRANCH   1  24
TORSDOF 4
