REMARK  Name = ZINC14461360
REMARK  11 active torsions:
REMARK  status: ('A' for Active; 'I' for Inactive)
REMARK    1  A    between atoms: C_1  and  C_2
REMARK    2  A    between atoms: C_2  and  N_3
REMARK    3  A    between atoms: N_3  and  C_4
REMARK    4  A    between atoms: N_3  and  C_6
REMARK    5  A    between atoms: C_4  and  C_5
REMARK    6  A    between atoms: C_9  and  C_12
REMARK    7  A    between atoms: C_23  and  S_28
REMARK    8  A    between atoms: S_28  and  N_31
REMARK    9  A    between atoms: N_31  and  C_32
REMARK   10  A    between atoms: C_35  and  O_38
REMARK   11  A    between atoms: O_38  and  C_39
REMARK                            x       y       z     vdW  Elec       q    Type
REMARK                         _______ _______ _______ _____ _____    ______ ____
ROOT
ATOM      1  C   UNL     1      -1.408   1.964   3.639  0.00  0.00    +0.105 C 
ATOM      2  C   UNL     1      -0.614   2.073   2.350  0.00  0.00    +0.029 C 
ATOM      3  C   UNL     1       0.500   3.127   2.300  0.00  0.00    +0.033 C 
ATOM      4  C   UNL     1       1.482   2.492   1.315  0.00  0.00    -0.030 C 
ATOM      5  C   UNL     1       1.342   1.172   1.322  0.00  0.00    -0.023 C 
ATOM      6  C   UNL     1       0.299   0.811   2.317  0.00  0.00    +0.049 C 
ATOM      7  C   UNL     1      -0.570  -0.374   2.144  0.00  0.00    -0.018 A 
ATOM      8  C   UNL     1      -0.176  -1.482   1.426  0.00  0.00    +0.034 A 
ATOM      9  C   UNL     1      -1.011  -2.579   1.323  0.00  0.00    +0.109 A 
ATOM     10  C   UNL     1      -2.248  -2.566   1.940  0.00  0.00    +0.030 A 
ATOM     11  C   UNL     1      -2.655  -1.458   2.655  0.00  0.00    +0.025 A 
ATOM     12  C   UNL     1      -1.825  -0.348   2.761  0.00  0.00    +0.031 A 
ATOM     13  N   UNL     1      -2.266   0.770   3.479  0.00  0.00    -0.336 N 
ATOM     14  H   UNL     1      -3.151   0.763   3.875  0.00  0.00    +0.147 HD
ENDROOT
BRANCH   1  18
ATOM     15  C   UNL     1      -3.817   5.451   4.189  0.00  0.00    +0.030 A 
ATOM     16  C   UNL     1      -2.651   5.287   4.927  0.00  0.00    +0.023 A 
ATOM     17  C   UNL     1      -1.875   4.159   4.747  0.00  0.00    +0.007 A 
ATOM     18  C   UNL     1      -2.257   3.193   3.833  0.00  0.00    -0.027 A 
ATOM     19  C   UNL     1      -3.414   3.357   3.093  0.00  0.00    +0.007 A 
ATOM     20  C   UNL     1      -4.197   4.479   3.272  0.00  0.00    +0.023 A 
BRANCH  15  21
ATOM     21  N   UNL     1      -4.604   6.591   4.369  0.00  0.00    -0.330 N 
BRANCH  21  23
ATOM     22  C   UNL     1      -7.009   6.143   4.348  0.00  0.00    +0.024 C 
ATOM     23  C   UNL     1      -5.833   6.762   3.590  0.00  0.00    +0.102 C 
ENDBRANCH  21  23
BRANCH  21  24
ATOM     24  C   UNL     1      -4.202   7.614   5.336  0.00  0.00    +0.102 C 
ATOM     25  C   UNL     1      -3.314   8.650   4.644  0.00  0.00    +0.024 C 
ENDBRANCH  21  24
ENDBRANCH  15  21
ENDBRANCH   1  18
BRANCH   9  26
ATOM     26  S   UNL     1      -0.499  -3.993   0.404  0.00  0.00    +0.072 S 
ATOM     27  O   UNL     1      -1.681  -4.599  -0.101  0.00  0.00    -0.150 OA
ATOM     28  O   UNL     1       0.559  -3.566  -0.443  0.00  0.00    -0.150 OA
BRANCH  26  29
ATOM     29  N   UNL     1       0.159  -5.065   1.481  0.00  0.00    -0.216 N 
ATOM     30  H   UNL     1      -0.250  -5.934   1.612  0.00  0.00    +0.174 HD
BRANCH  29  31
ATOM     31  C   UNL     1       1.307  -4.716   2.202  0.00  0.00    +0.048 A 
ATOM     32  C   UNL     1       2.547  -4.717   1.578  0.00  0.00    +0.028 A 
ATOM     33  C   UNL     1       3.678  -4.368   2.289  0.00  0.00    +0.047 A 
ATOM     34  C   UNL     1       3.577  -4.027   3.630  0.00  0.00    +0.120 A 
ATOM     35  C   UNL     1       2.339  -4.031   4.256  0.00  0.00    +0.047 A 
ATOM     36  C   UNL     1       1.206  -4.375   3.545  0.00  0.00    +0.028 A 
BRANCH  34  37
ATOM     37  O   UNL     1       4.692  -3.688   4.331  0.00  0.00    -0.495 OA
ATOM     38  C   UNL     1       5.933  -3.705   3.623  0.00  0.00    +0.277 C 
ENDBRANCH  34  37
ENDBRANCH  29  31
ENDBRANCH  26  29
ENDBRANCH   9  26
TORSDOF 8
