REMARK  Name = ZINC08767911
REMARK  10 active torsions:
REMARK  status: ('A' for Active; 'I' for Inactive)
REMARK    1  A    between atoms: C_1  and  C_2
REMARK    2  A    between atoms: C_2  and  C_36
REMARK    3  A    between atoms: C_6  and  N_28
REMARK    4  A    between atoms: C_12  and  S_18
REMARK    5  A    between atoms: C_14  and  S_16
REMARK    6  A    between atoms: S_16  and  C_17
REMARK    7  A    between atoms: S_18  and  C_19
REMARK    8  A    between atoms: C_19  and  C_20
REMARK    9  A    between atoms: C_20  and  O_21
REMARK   10  A    between atoms: O_21  and  C_22
REMARK                            x       y       z     vdW  Elec       q    Type
REMARK                         _______ _______ _______ _____ _____    ______ ____
ROOT
ATOM      1  C   UNL     1       4.831  -2.942  -0.209  0.00  0.00    +0.041 C 
ATOM      2  C   UNL     1       3.557  -2.180   0.164  0.00  0.00    +0.068 C 
ATOM      3  C   UNL     1       3.720  -0.700  -0.186  0.00  0.00    +0.070 C 
ATOM      4  C   UNL     1       2.388  -0.006  -0.090  0.00  0.00    -0.024 A 
ATOM      5  C   UNL     1       1.216  -0.695  -0.076  0.00  0.00    +0.020 A 
ATOM      6  C   UNL     1       0.002  -0.004   0.002  0.00  0.00    +0.105 A 
ATOM      7  C   UNL     1       1.102   2.015   0.063  0.00  0.00    +0.089 A 
ATOM      8  C   UNL     1       2.368   1.408  -0.016  0.00  0.00    +0.035 A 
ATOM      9  C   UNL     1       3.523   2.324  -0.015  0.00  0.00    +0.093 A 
ATOM     10  C   UNL     1       3.223   3.688   0.070  0.00  0.00    +0.072 A 
ATOM     11  S   UNL     1       1.454   3.754   0.143  0.00  0.00    -0.066 S 
ATOM     12  C   UNL     1       4.230   4.644   0.082  0.00  0.00    +0.116 A 
ATOM     13  N   UNL     1       5.496   4.232   0.008  0.00  0.00    -0.214 NA
ATOM     14  C   UNL     1       5.768   2.936  -0.074  0.00  0.00    +0.190 A 
ATOM     15  N   UNL     1       4.837   2.006  -0.087  0.00  0.00    -0.221 NA
ATOM     16  C   UNL     1       1.188  -2.201  -0.136  0.00  0.00    +0.199 C 
ATOM     17  O   UNL     1       2.449  -2.701  -0.580  0.00  0.00    -0.369 OA
ATOM     18  C   UNL     1       3.287  -2.329   1.662  0.00  0.00    +0.041 C 
ATOM     19  N   UNL     1      -0.081   1.355   0.072  0.00  0.00    -0.337 N 
ATOM     20  H   UNL     1      -0.981   1.845   0.129  0.00  0.00    +0.168 HD
ENDROOT
BRANCH   6  21
ATOM     21  N   UNL     1      -1.194  -0.710   0.010  0.00  0.00    -0.312 N 
ATOM     22  C   UNL     1      -2.021  -0.356  -1.153  0.00  0.00    +0.134 C 
ATOM     23  C   UNL     1      -3.300  -1.198  -1.137  0.00  0.00    +0.178 C 
ATOM     24  O   UNL     1      -3.986  -0.990   0.100  0.00  0.00    -0.377 OA
ATOM     25  C   UNL     1      -3.209  -1.325   1.253  0.00  0.00    +0.178 C 
ATOM     26  C   UNL     1      -1.930  -0.485   1.262  0.00  0.00    +0.134 C 
ENDBRANCH   6  21
BRANCH  14  27
ATOM     27  S   UNL     1       7.455   2.437  -0.171  0.00  0.00    -0.089 S 
ATOM     28  C   UNL     1       8.266   4.054  -0.116  0.00  0.00    +0.093 C 
ENDBRANCH  14  27
BRANCH  12  29
ATOM     29  S   UNL     1       3.845   6.360   0.191  0.00  0.00    -0.101 S 
BRANCH  29  30
ATOM     30  C   UNL     1       5.514   7.059   0.161  0.00  0.00    +0.117 C 
BRANCH  30  31
ATOM     31  C   UNL     1       5.429   8.585   0.248  0.00  0.00    +0.240 C 
BRANCH  31  32
ATOM     32  O   UNL     1       6.746   9.137   0.225  0.00  0.00    -0.491 OA
BRANCH  32  33
ATOM     33  C   UNL     1       6.849  10.491   0.294  0.00  0.00    +0.121 A 
ATOM     34  C   UNL     1       5.705  11.271   0.377  0.00  0.00    +0.045 A 
ATOM     35  C   UNL     1       5.812  12.646   0.454  0.00  0.00    +0.004 A 
ATOM     36  C   UNL     1       7.058  13.245   0.435  0.00  0.00    +0.000 A 
ATOM     37  C   UNL     1       8.200  12.470   0.347  0.00  0.00    +0.004 A 
ATOM     38  C   UNL     1       8.098  11.094   0.276  0.00  0.00    +0.045 A 
ENDBRANCH  32  33
ENDBRANCH  31  32
ENDBRANCH  30  31
ENDBRANCH  29  30
ENDBRANCH  12  29
TORSDOF 7
