REMARK  Name = ZINC08790451
REMARK  5 active torsions:
REMARK  status: ('A' for Active; 'I' for Inactive)
REMARK    1  A    between atoms: C_1  and  C_2
REMARK    2  A    between atoms: C_17  and  C_19
REMARK    3  A    between atoms: C_19  and  C_20
REMARK    4  A    between atoms: N_25  and  C_28
REMARK    5  A    between atoms: C_28  and  C_29
REMARK                            x       y       z     vdW  Elec       q    Type
REMARK                         _______ _______ _______ _____ _____    ______ ____
ROOT
ATOM      1  C   UNL     1       2.499   0.720  -1.837  0.00  0.00    +0.044 C 
ATOM      2  C   UNL     1       1.224   1.519  -1.773  0.00  0.00    -0.049 A 
ATOM      3  C   UNL     1       0.060   0.932  -1.309  0.00  0.00    +0.008 A 
ATOM      4  C   UNL     1      -1.107   1.662  -1.255  0.00  0.00    -0.026 A 
ATOM      5  C   UNL     1      -1.129   2.994  -1.655  0.00  0.00    +0.054 A 
ATOM      6  C   UNL     1       0.047   3.578  -2.121  0.00  0.00    +0.063 A 
ATOM      7  C   UNL     1       1.213   2.841  -2.178  0.00  0.00    +0.025 A 
ATOM      8 CL   UNL     1       0.046   5.237  -2.633  0.00  0.00    -0.082 Cl
ATOM      9  N   UNL     1      -2.414   3.522  -1.507  0.00  0.00    -0.285 N 
ATOM     10  C   UNL     1      -3.281   2.616  -1.016  0.00  0.00    +0.211 C 
ATOM     11  O   UNL     1      -4.459   2.792  -0.785  0.00  0.00    -0.277 OA
ATOM     12  C   UNL     1      -2.506   1.344  -0.809  0.00  0.00    +0.050 C 
ATOM     13  C   UNL     1      -2.546   0.895   0.657  0.00  0.00    +0.088 C 
ATOM     14  C   UNL     1      -3.660  -0.187   0.704  0.00  0.00    +0.073 C 
ATOM     15  C   UNL     1      -4.193  -0.272  -0.742  0.00  0.00    -0.049 C 
ATOM     16  C   UNL     1      -2.904  -1.454   1.033  0.00  0.00    +0.224 C 
ATOM     17  O   UNL     1      -3.398  -2.554   1.155  0.00  0.00    -0.275 OA
ATOM     18  N   UNL     1      -1.603  -1.172   1.168  0.00  0.00    -0.237 N 
ATOM     19  C   UNL     1      -1.291   0.116   0.982  0.00  0.00    +0.225 C 
ATOM     20  O   UNL     1      -0.176   0.585   1.062  0.00  0.00    -0.275 OA
ATOM     21  H   UNL     1      -2.654   4.435  -1.731  0.00  0.00    +0.155 HD
ATOM     22  N   UNL     1      -3.090   0.243  -1.556  0.00  0.00    +0.394 N 
ATOM     23  H   UNL     1      -2.389  -0.492  -1.711  0.00  0.00    -0.083 HD
ATOM     24  H   UNL     1      -3.442   0.576  -2.462  0.00  0.00    -0.083 HD
ENDROOT
BRANCH  15  25
ATOM     25  C   UNL     1      -5.431   0.612  -0.906  0.00  0.00    +0.080 C 
BRANCH  25  26
ATOM     26  C   UNL     1      -6.669  -0.200  -0.626  0.00  0.00    +0.209 C 
ATOM     27  O   UNL     1      -6.571  -1.370  -0.325  0.00  0.00    -0.276 OA
ATOM     28  N   UNL     1      -7.885   0.375  -0.711  0.00  0.00    -0.329 N 
ATOM     29  H   UNL     1      -7.963   1.312  -0.952  0.00  0.00    +0.145 HD
ATOM     30  H   UNL     1      -8.682  -0.147  -0.530  0.00  0.00    +0.145 HD
ENDBRANCH  25  26
ENDBRANCH  15  25
BRANCH  18  31
ATOM     31  C   UNL     1      -0.601  -2.190   1.494  0.00  0.00    +0.151 C 
BRANCH  31  32
ATOM     32  C   UNL     1      -0.457  -2.291   2.991  0.00  0.00    -0.026 A 
ATOM     33  C   UNL     1       0.472  -1.506   3.649  0.00  0.00    +0.009 A 
ATOM     34  C   UNL     1       0.606  -1.591   5.022  0.00  0.00    +0.050 A 
ATOM     35  C   UNL     1      -0.185  -2.472   5.742  0.00  0.00    +0.166 A 
ATOM     36  C   UNL     1      -1.117  -3.267   5.079  0.00  0.00    +0.167 A 
ATOM     37  C   UNL     1      -1.248  -3.172   3.703  0.00  0.00    +0.054 A 
ATOM     38  O   UNL     1      -1.763  -4.042   5.999  0.00  0.00    -0.453 OA
ATOM     39  C   UNL     1      -1.505  -3.421   7.272  0.00  0.00    +0.466 C 
ATOM     40  O   UNL     1      -0.247  -2.749   7.077  0.00  0.00    -0.453 OA
ENDBRANCH  31  32
ENDBRANCH  18  31
TORSDOF 4
