REMARK  Name = ZINC39560022
REMARK  6 active torsions:
REMARK  status: ('A' for Active; 'I' for Inactive)
REMARK    1  A    between atoms: C_1  and  C_2
REMARK    2  A    between atoms: C_2  and  C_3
REMARK    3  A    between atoms: C_2  and  C_4
REMARK    4  A    between atoms: C_2  and  C_6
REMARK    5  A    between atoms: CA_13  and  CB_27
REMARK    6  A    between atoms: CB_27  and  CG_28
REMARK                            x       y       z     vdW  Elec       q    Type
REMARK                         _______ _______ _______ _____ _____    ______ ____
ROOT
ATOM      1  C   UNK A   2       0.858  -0.316  -1.228  0.00  0.00    +0.043 C 
ATOM      2  C   UNK A   2       0.146   0.109  -2.493  0.00  0.00    +0.048 C 
ATOM      3  C   UNK A   2      -0.775  -1.107  -2.808  0.00  0.00    +0.165 C 
ATOM      4  C   UNK A   2      -2.208  -0.707  -2.567  0.00  0.00    +0.234 C 
ATOM      5  O   UNK A   2      -2.558   0.435  -2.776  0.00  0.00    -0.274 OA
ATOM      6  N   TRP A   1      -3.102  -1.610  -2.124  0.00  0.00    -0.302 N 
ATOM      7  CA  TRP A   1      -2.732  -3.005  -1.885  0.00  0.00    +0.163 C 
ATOM      8  C   TRP A   1      -1.315  -3.072  -1.363  0.00  0.00    +0.238 C 
ATOM      9  O   TRP A   1      -0.982  -3.935  -0.578  0.00  0.00    -0.273 OA
ATOM     10  N   UNK A   2      -0.418  -2.160  -1.802  0.00  0.00    -0.269 N 
ATOM     11  C   UNK A   2       0.934  -1.875  -1.480  0.00  0.00    +0.173 C 
ATOM     12  N   UNK A   2       1.741  -2.238  -0.353  0.00  0.00    -0.325 N 
ATOM     13  C   UNK A   2       2.778  -1.260  -0.381  0.00  0.00    +0.032 A 
ATOM     14  C   UNK A   2       2.292  -0.062  -0.943  0.00  0.00    -0.016 A 
ATOM     15  C   UNK A   2       3.147   1.004  -1.104  0.00  0.00    +0.006 A 
ATOM     16  C   UNK A   2       4.464   0.918  -0.692  0.00  0.00    +0.000 A 
ATOM     17  C   UNK A   2       4.936  -0.247  -0.115  0.00  0.00    +0.002 A 
ATOM     18  C   UNK A   2       4.094  -1.331   0.040  0.00  0.00    +0.023 A 
ATOM     19  H   TRP A   1      -4.015  -1.328  -1.958  0.00  0.00    +0.150 HD
ATOM     20  H   UNK A   2       1.614  -2.968   0.273  0.00  0.00    +0.148 HD
ENDROOT
BRANCH   1  22
ATOM     21  C   UNK A   2       0.107   1.486   0.332  0.00  0.00    +0.016 C 
ATOM     22  C   UNK A   2       0.002  -0.004   0.002  0.00  0.00    -0.004 C 
ATOM     23  C   UNK A   2       0.501  -0.826   1.192  0.00  0.00    +0.016 C 
BRANCH  22  24
ATOM     24  C   UNK A   2      -1.435  -0.356  -0.284  0.00  0.00    -0.027 C 
ATOM     25  C   UNK A   2      -2.341   0.589  -0.346  0.00  0.00    +0.004 C 
ENDBRANCH  22  24
ENDBRANCH   1  22
BRANCH   7  26
ATOM     26  CB  TRP A   1      -3.683  -3.615  -0.853  0.00  0.00    +0.069 C 
BRANCH  26  27
ATOM     27  CG  TRP A   1      -5.077  -3.664  -1.424  0.00  0.00    -0.020 A 
ATOM     28  CD2 TRP A   1      -5.634  -4.719  -2.274  0.00  0.00    +0.003 A 
ATOM     29  CE3 TRP A   1      -5.131  -5.912  -2.796  0.00  0.00    +0.010 A 
ATOM     30  CZ3 TRP A   1      -5.927  -6.700  -3.578  0.00  0.00    +0.001 A 
ATOM     31  CH2 TRP A   1      -7.233  -6.323  -3.859  0.00  0.00    +0.002 A 
ATOM     32  CZ2 TRP A   1      -7.751  -5.150  -3.354  0.00  0.00    +0.026 A 
ATOM     33  CE2 TRP A   1      -6.958  -4.333  -2.555  0.00  0.00    +0.047 A 
ATOM     34  NE1 TRP A   1      -7.175  -3.132  -1.917  0.00  0.00    -0.360 N 
ATOM     35  CD1 TRP A   1      -6.046  -2.752  -1.244  0.00  0.00    +0.087 A 
ATOM     36  HE1 TRP A   1      -8.006  -2.632  -1.939  0.00  0.00    +0.165 HD
ENDBRANCH  26  27
ENDBRANCH   7  26
TORSDOF 4
