REMARK  Name = ZINC37006628
REMARK  13 active torsions:
REMARK  status: ('A' for Active; 'I' for Inactive)
REMARK    1  A    between atoms: C_1  and  C_2
REMARK    2  A    between atoms: C_2  and  O_3
REMARK    3  A    between atoms: O_3  and  C_4
REMARK    4  A    between atoms: C_9  and  C_10
REMARK    5  A    between atoms: C_10  and  N_11
REMARK    6  A    between atoms: C_24  and  C_25
REMARK    7  A    between atoms: C_24  and  C_26
REMARK    8  A    between atoms: N_28  and  C_29
REMARK    9  A    between atoms: C_29  and  C_30
REMARK   10  A    between atoms: C_30  and  C_31
REMARK   11  A    between atoms: C_31  and  N_32
REMARK   12  A    between atoms: C_34  and  C_41
REMARK   13  A    between atoms: C_37  and  C_40
REMARK                            x       y       z     vdW  Elec       q    Type
REMARK                         _______ _______ _______ _____ _____    ______ ____
ROOT
ATOM      1  N   UNL     1      -4.183  -0.993  -1.238  0.00  0.00    -0.276 N 
ATOM      2  C   UNL     1      -3.433   0.103  -1.494  0.00  0.00    +0.264 C 
ATOM      3  O   UNL     1      -2.534   0.452  -0.753  0.00  0.00    -0.268 OA
ATOM      4  C   UNL     1      -3.761   0.853  -2.721  0.00  0.00    +0.106 A 
ATOM      5  C   UNL     1      -3.091   1.856  -3.325  0.00  0.00    +0.041 A 
ATOM      6  C   UNL     1      -3.818   2.214  -4.475  0.00  0.00    +0.001 A 
ATOM      7  C   UNL     1      -3.583   3.181  -5.464  0.00  0.00    +0.010 A 
ATOM      8  C   UNL     1      -4.505   3.273  -6.475  0.00  0.00    +0.001 A 
ATOM      9  C   UNL     1      -5.622   2.455  -6.530  0.00  0.00    +0.002 A 
ATOM     10  C   UNL     1      -5.883   1.494  -5.571  0.00  0.00    +0.026 A 
ATOM     11  C   UNL     1      -4.965   1.374  -4.527  0.00  0.00    +0.050 A 
ATOM     12  N   UNL     1      -4.918   0.559  -3.447  0.00  0.00    -0.334 N 
ATOM     13  C   UNL     1      -5.857  -0.475  -2.998  0.00  0.00    +0.157 C 
ATOM     14  C   UNL     1      -5.089  -1.556  -2.232  0.00  0.00    +0.129 C 
ATOM     15  C   UNL     1      -6.093  -2.470  -1.526  0.00  0.00    +0.043 C 
ENDROOT
BRANCH  14  16
ATOM     16  C   UNL     1      -4.290  -2.378  -3.210  0.00  0.00    +0.238 C 
ATOM     17  O   UNL     1      -4.772  -3.380  -3.696  0.00  0.00    -0.273 OA
ATOM     18  N   UNL     1      -3.040  -2.000  -3.545  0.00  0.00    -0.314 N 
ATOM     19  H   UNL     1      -2.682  -1.163  -3.212  0.00  0.00    +0.149 HD
BRANCH  18  20
ATOM     20  C   UNL     1      -2.224  -2.855  -4.410  0.00  0.00    +0.102 C 
BRANCH  20  21
ATOM     21  C   UNL     1      -0.859  -2.200  -4.633  0.00  0.00    +0.000 C 
BRANCH  21  22
ATOM     22  C   UNL     1      -0.007  -3.093  -5.537  0.00  0.00    -0.077 C 
BRANCH  22  23
ATOM     23  N   UNL     1       1.304  -2.464  -5.751  0.00  0.00    +0.380 N 
ATOM     24  C   UNL     1       1.127  -1.207  -6.487  0.00  0.00    -0.076 C 
ATOM     25  C   UNL     1       2.479  -0.508  -6.642  0.00  0.00    -0.031 C 
ATOM     26  C   UNL     1       3.435  -1.423  -7.413  0.00  0.00    +0.003 C 
ATOM     27  C   UNL     1       3.554  -2.759  -6.674  0.00  0.00    -0.031 C 
ATOM     28  C   UNL     1       2.162  -3.374  -6.518  0.00  0.00    -0.076 C 
ATOM     29  C   UNL     1       4.447  -3.708  -7.475  0.00  0.00    +0.005 C 
ATOM     30  C   UNL     1       3.060  -0.208  -5.259  0.00  0.00    +0.005 C 
ATOM     31  H   UNL     1       1.733  -2.271  -4.858  0.00  0.00    -0.082 HD
ENDBRANCH  22  23
ENDBRANCH  21  22
ENDBRANCH  20  21
ENDBRANCH  18  20
ENDBRANCH  14  16
BRANCH   1  32
ATOM     32  C   UNL     1      -4.077  -1.637   0.074  0.00  0.00    +0.148 C 
BRANCH  32  38
ATOM     33  C   UNL     1      -1.734  -2.529   0.062  0.00  0.00    +0.125 A 
ATOM     34  C   UNL     1      -0.834  -3.582  -0.005  0.00  0.00    +0.046 A 
ATOM     35  C   UNL     1      -1.296  -4.877  -0.142  0.00  0.00    +0.004 A 
ATOM     36  C   UNL     1      -2.655  -5.123  -0.214  0.00  0.00    +0.001 A 
ATOM     37  C   UNL     1      -3.554  -4.074  -0.148  0.00  0.00    +0.009 A 
ATOM     38  C   UNL     1      -3.097  -2.779  -0.004  0.00  0.00    +0.012 A 
BRANCH  33  39
ATOM     39  O   UNL     1      -1.281  -1.254   0.198  0.00  0.00    -0.492 OA
BRANCH  39  41
ATOM     40  C   UNL     1       0.451   0.417   0.412  0.00  0.00    +0.048 C 
ATOM     41  C   UNL     1       0.135  -1.072   0.260  0.00  0.00    +0.225 C 
ENDBRANCH  39  41
ENDBRANCH  33  39
ENDBRANCH  32  38
ENDBRANCH   1  32
TORSDOF 9
