REMARK  Name = ZINC04284108
REMARK  10 active torsions:
REMARK  status: ('A' for Active; 'I' for Inactive)
REMARK    1  A    between atoms: C_1  and  C_2
REMARK    2  A    between atoms: C_2  and  C_30
REMARK    3  A    between atoms: C_4  and  N_52
REMARK    4  A    between atoms: C_7  and  C_9
REMARK    5  A    between atoms: C_7  and  C_10
REMARK    6  A    between atoms: C_10  and  N_11
REMARK    7  A    between atoms: N_11  and  C_12
REMARK    8  A    between atoms: C_15  and  S_21
REMARK    9  A    between atoms: C_17  and  N_18
REMARK   10  A    between atoms: S_21  and  C_24
REMARK                            x       y       z     vdW  Elec       q    Type
REMARK                         _______ _______ _______ _____ _____    ______ ____
ROOT
ATOM      1  N   UNL     1       2.137  -1.796  -3.189  0.00  0.00    -0.342 N 
ATOM      2  H   UNL     1       1.784  -2.397  -2.515  0.00  0.00    +0.146 HD
ENDROOT
BRANCH   1   3
ATOM      3  C   UNL     1       2.817  -2.310  -4.295  0.00  0.00    +0.058 A 
ATOM      4  C   UNL     1       3.217  -1.463  -5.322  0.00  0.00    +0.027 A 
ATOM      5  C   UNL     1       3.889  -1.974  -6.414  0.00  0.00    +0.029 A 
ATOM      6  C   UNL     1       4.165  -3.328  -6.487  0.00  0.00    +0.100 A 
ATOM      7  C   UNL     1       3.769  -4.173  -5.468  0.00  0.00    +0.062 A 
ATOM      8  C   UNL     1       3.101  -3.667  -4.370  0.00  0.00    +0.149 A 
BRANCH   8   9
ATOM      9  N   UNL     1       2.683  -4.572  -3.276  0.00  0.00    +0.058 N 
ATOM     10  O   UNL     1       2.740  -4.196  -2.119  0.00  0.00    -0.126 OA
ATOM     11  O   UNL     1       2.281  -5.693  -3.532  0.00  0.00    -0.126 OA
ENDBRANCH   8   9
BRANCH   6  12
ATOM     12  S   UNL     1       5.023  -3.976  -7.884  0.00  0.00    +0.091 S 
ATOM     13  O   UNL     1       4.612  -5.333  -7.963  0.00  0.00    -0.161 OA
ATOM     14  O   UNL     1       4.735  -3.068  -8.939  0.00  0.00    -0.161 OA
BRANCH  12  15
ATOM     15  C   UNL     1       6.779  -3.880  -7.438  0.00  0.00    +0.526 C 
ATOM     16  F   UNL     1       7.010  -4.642  -6.288  0.00  0.00    -0.150 F 
ATOM     17  F   UNL     1       7.555  -4.375  -8.491  0.00  0.00    -0.150 F 
ATOM     18  F   UNL     1       7.125  -2.547  -7.191  0.00  0.00    -0.150 F 
ENDBRANCH  12  15
ENDBRANCH   6  12
ENDBRANCH   1   3
BRANCH   1  19
ATOM     19  C   UNL     1       1.957  -0.349  -3.047  0.00  0.00    +0.108 C 
BRANCH  19  25
ATOM     20  C   UNL     1      -0.308   3.429  -0.991  0.00  0.00    +0.011 C 
ATOM     21  C   UNL     1      -0.022   1.948  -0.658  0.00  0.00    -0.036 C 
ATOM     22  C   UNL     1      -1.332   1.181  -0.800  0.00  0.00    -0.010 C 
ATOM     23  C   UNL     1      -1.092  -0.324  -0.706  0.00  0.00    -0.074 C 
ATOM     24  C   UNL     1      -0.174  -0.749  -1.850  0.00  0.00    -0.008 C 
ATOM     25  C   UNL     1       1.178  -0.053  -1.746  0.00  0.00    -0.018 C 
ATOM     26  C   UNL     1       1.050   1.453  -1.611  0.00  0.00    +0.014 C 
ATOM     27  C   UNL     1       1.985  -0.645  -0.587  0.00  0.00    +0.012 C 
ATOM     28  C   UNL     1       0.463   1.893   0.794  0.00  0.00    +0.011 C 
BRANCH  23  31
ATOM     29  H   UNL     1      -3.017  -0.750  -0.102  0.00  0.00    -0.090 HD
ATOM     30  H   UNL     1      -2.787  -0.871  -1.745  0.00  0.00    -0.090 HD
ATOM     31  N   UNL     1      -2.373  -1.050  -0.832  0.00  0.00    +0.380 N 
ATOM     32  H   UNL     1      -2.200  -2.058  -0.734  0.00  0.00    -0.090 HD
ENDBRANCH  23  31
ENDBRANCH  19  25
ENDBRANCH   1  19
TORSDOF 7
