REMARK  Name = ZINC66902543
REMARK  8 active torsions:
REMARK  status: ('A' for Active; 'I' for Inactive)
REMARK    1  A    between atoms: C_1  and  C_2
REMARK    2  A    between atoms: C_5  and  N_8
REMARK    3  A    between atoms: C_9  and  C_11
REMARK    4  A    between atoms: C_11  and  C_13
REMARK    5  A    between atoms: C_11  and  N_14
REMARK    6  A    between atoms: C_17  and  N_20
REMARK    7  A    between atoms: C_21  and  C_23
REMARK    8  A    between atoms: C_23  and  C_24
REMARK                            x       y       z     vdW  Elec       q    Type
REMARK                         _______ _______ _______ _____ _____    ______ ____
ROOT
ATOM      1  N   UNL     1       6.072  -3.003   1.488  0.00  0.00    +0.387 N 
ATOM      2  C   UNL     1       6.147  -4.365   0.944  0.00  0.00    -0.076 C 
ATOM      3  C   UNL     1       6.949  -5.255   1.897  0.00  0.00    +0.004 C 
ATOM      4  C   UNL     1       8.362  -4.686   2.050  0.00  0.00    +0.069 C 
ATOM      5  C   UNL     1       8.268  -3.240   2.547  0.00  0.00    +0.004 C 
ATOM      6  C   UNL     1       7.418  -2.425   1.571  0.00  0.00    -0.076 C 
ATOM      7  H   UNL     1       5.662  -3.034   2.410  0.00  0.00    -0.081 HD
ENDROOT
BRANCH   4   8
ATOM      8  N   UNL     1       9.111  -5.489   3.019  0.00  0.00    -0.313 N 
ATOM      9  C   UNL     1      10.457  -5.529   2.965  0.00  0.00    +0.213 C 
ATOM     10  O   UNL     1      11.048  -4.899   2.114  0.00  0.00    -0.276 OA
ATOM     11  H   UNL     1       8.638  -5.993   3.700  0.00  0.00    +0.149 HD
BRANCH   9  12
ATOM     12  C   UNL     1      11.227  -6.356   3.962  0.00  0.00    +0.099 C 
BRANCH  12  13
ATOM     13  C   UNL     1      12.726  -6.228   3.681  0.00  0.00    -0.002 C 
ATOM     14  C   UNL     1      13.043  -6.841   2.316  0.00  0.00    +0.004 C 
ATOM     15  C   UNL     1      14.542  -6.712   2.035  0.00  0.00    +0.000 C 
ATOM     16  C   UNL     1      15.329  -7.449   3.120  0.00  0.00    +0.000 C 
ATOM     17  C   UNL     1      15.012  -6.836   4.486  0.00  0.00    +0.000 C 
ATOM     18  C   UNL     1      13.513  -6.965   4.767  0.00  0.00    +0.004 C 
ENDBRANCH  12  13
ENDBRANCH   9  12
ENDBRANCH   4   8
BRANCH   1  19
ATOM     19  C   UNL     1       5.237  -2.173   0.610  0.00  0.00    +0.016 C 
ATOM     20  C   UNL     1       5.198  -0.741   1.148  0.00  0.00    -0.004 C 
BRANCH  19  22
ATOM     21  N   UNL     1       3.062  -2.529  -0.513  0.00  0.00    -0.314 N 
ATOM     22  C   UNL     1       3.838  -2.733   0.570  0.00  0.00    +0.199 C 
ATOM     23  O   UNL     1       3.411  -3.366   1.512  0.00  0.00    -0.278 OA
ATOM     24  H   UNL     1       3.403  -2.023  -1.266  0.00  0.00    +0.149 HD
BRANCH  21  29
ATOM     25  C   UNL     1       0.376   0.397  -2.771  0.00  0.00    +0.007 C 
ATOM     26  C   UNL     1       0.345  -0.950  -2.045  0.00  0.00    -0.014 C 
ATOM     27  C   UNL     1       1.304  -1.923  -2.733  0.00  0.00    +0.005 C 
ATOM     28  C   UNL     1       1.272  -3.269  -2.007  0.00  0.00    +0.022 C 
ATOM     29  C   UNL     1       1.702  -3.074  -0.551  0.00  0.00    +0.073 C 
ATOM     30  C   UNL     1       0.743  -2.100   0.137  0.00  0.00    +0.022 C 
ATOM     31  C   UNL     1       0.774  -0.754  -0.589  0.00  0.00    +0.005 C 
ENDBRANCH  21  29
ENDBRANCH  19  22
ENDBRANCH   1  19
TORSDOF 6
