REMARK  Name = ZINC39584710
REMARK  5 active torsions:
REMARK  status: ('A' for Active; 'I' for Inactive)
REMARK    1  A    between atoms: C_6  and  C_7
REMARK    2  A    between atoms: C_9  and  C_13
REMARK    3  A    between atoms: N_15  and  N_16
REMARK    4  A    between atoms: C_17  and  C_18
REMARK    5  A    between atoms: C_23  and  O_24
REMARK                            x       y       z     vdW  Elec       q    Type
REMARK                         _______ _______ _______ _____ _____    ______ ____
ROOT
ATOM      1  C   UNL     1      -3.275  -3.127  -1.215  0.00  0.00    +0.263 C 
ATOM      2  O   UNL     1      -3.776  -2.535  -2.148  0.00  0.00    -0.271 OA
ATOM      3  N   UNL     1      -3.090  -4.461  -1.285  0.00  0.00    -0.205 N 
ATOM      4  H   UNL     1      -2.689  -4.934  -0.539  0.00  0.00    +0.177 HD
ENDROOT
BRANCH   1   7
ATOM      5  C   UNL     1      -1.271  -0.766   0.011  0.00  0.00    +0.092 C 
ATOM      6  C   UNL     1      -1.363  -2.110   0.010  0.00  0.00    +0.041 C 
ATOM      7  C   UNL     1      -2.858  -2.372   0.020  0.00  0.00    +0.240 C 
ATOM      8  N   UNL     1      -3.437  -1.018   0.026  0.00  0.00    -0.170 NA
ATOM      9  N   UNL     1      -2.509  -0.206   0.026  0.00  0.00    -0.153 NA
BRANCH   5  15
ATOM     10  C   UNL     1      -0.017   1.389   0.010  0.00  0.00    +0.011 A 
ATOM     11  C   UNL     1       1.170   2.093   0.002  0.00  0.00    +0.020 A 
ATOM     12  C   UNL     1       2.378   1.417  -0.013  0.00  0.00    +0.041 A 
ATOM     13  C   UNL     1       2.402   0.033  -0.021  0.00  0.00    +0.020 A 
ATOM     14  C   UNL     1       1.221  -0.680  -0.014  0.00  0.00    +0.011 A 
ATOM     15  C   UNL     1       0.002  -0.004   0.002  0.00  0.00    +0.002 A 
ATOM     16 CL   UNL     1       3.868   2.309  -0.022  0.00  0.00    -0.084 Cl
ENDBRANCH   5  15
ENDBRANCH   1   7
BRANCH   3  17
ATOM     17  N   UNL     1      -3.477  -5.163  -2.434  0.00  0.00    -0.188 NA
ATOM     18  C   UNL     1      -3.300  -6.447  -2.501  0.00  0.00    +0.142 C 
BRANCH  18  19
ATOM     19  C   UNL     1      -3.707  -7.185  -3.709  0.00  0.00    +0.038 A 
ATOM     20  C   UNL     1      -3.523  -8.568  -3.783  0.00  0.00    +0.028 A 
ATOM     21  C   UNL     1      -3.907  -9.254  -4.917  0.00  0.00    +0.020 A 
ATOM     22  C   UNL     1      -4.474  -8.576  -5.983  0.00  0.00    +0.034 A 
ATOM     23  C   UNL     1      -4.662  -7.208  -5.922  0.00  0.00    +0.061 A 
ATOM     24  C   UNL     1      -4.287  -6.505  -4.788  0.00  0.00    +0.139 A 
ATOM     25 BR   UNL     1      -5.438  -6.295  -7.385  0.00  0.00    -0.046 Br
ATOM     26 BR   UNL     1      -3.656 -11.125  -5.015  0.00  0.00    -0.050 Br
BRANCH  24  27
ATOM     27  O   UNL     1      -4.476  -5.161  -4.725  0.00  0.00    -0.505 OA
ATOM     28  H   UNL     1      -3.729  -4.643  -5.056  0.00  0.00    +0.292 HD
ENDBRANCH  24  27
ENDBRANCH  18  19
ENDBRANCH   3  17
TORSDOF 5
