REMARK  Name = ZINC36637342
REMARK  9 active torsions:
REMARK  status: ('A' for Active; 'I' for Inactive)
REMARK    1  A    between atoms: C_1  and  C_2
REMARK    2  A    between atoms: N_5  and  S_8
REMARK    3  A    between atoms: S_8  and  C_11
REMARK    4  A    between atoms: C_14  and  C_17
REMARK    5  A    between atoms: N_19  and  C_20
REMARK    6  A    between atoms: C_20  and  C_21
REMARK    7  A    between atoms: C_21  and  N_22
REMARK    8  A    between atoms: N_22  and  C_23
REMARK    9  A    between atoms: N_22  and  C_24
REMARK                            x       y       z     vdW  Elec       q    Type
REMARK                         _______ _______ _______ _____ _____    ______ ____
ROOT
ATOM      1  C   UNL     1       0.088  -8.699   0.059  0.00  0.00    +0.252 C 
ATOM      2  O   UNL     1      -0.873  -9.135  -0.544  0.00  0.00    -0.270 OA
ATOM      3  N   UNL     1       1.163  -9.484   0.272  0.00  0.00    -0.248 N 
ATOM      4  C   UNL     1       1.223 -10.745  -0.298  0.00  0.00    +0.168 A 
ATOM      5  N   UNL     1       2.172 -11.647  -0.202  0.00  0.00    -0.224 NA
ATOM      6  C   UNL     1       2.097 -12.847  -0.818  0.00  0.00    +0.080 A 
ATOM      7  C   UNL     1       3.042 -13.899  -0.797  0.00  0.00    +0.030 A 
ATOM      8  C   UNL     1       2.810 -15.062  -1.483  0.00  0.00    +0.022 A 
ATOM      9  C   UNL     1       1.648 -15.251  -2.220  0.00  0.00    +0.042 A 
ATOM     10  C   UNL     1       0.702 -14.242  -2.262  0.00  0.00    +0.037 A 
ATOM     11  C   UNL     1       0.927 -13.073  -1.577  0.00  0.00    +0.042 A 
ATOM     12  S   UNL     1       0.026 -11.560  -1.345  0.00  0.00    -0.052 S 
ATOM     13 CL   UNL     1       1.386 -16.736  -3.080  0.00  0.00    -0.084 Cl
ENDROOT
BRANCH   1  17
ATOM     14  C   UNL     1       0.063  -4.701   1.492  0.00  0.00    +0.106 A 
ATOM     15  C   UNL     1       0.498  -5.725   2.315  0.00  0.00    +0.029 A 
ATOM     16  C   UNL     1       0.509  -7.026   1.856  0.00  0.00    +0.015 A 
ATOM     17  C   UNL     1       0.079  -7.308   0.558  0.00  0.00    +0.037 A 
ATOM     18  C   UNL     1      -0.359  -6.270  -0.267  0.00  0.00    +0.015 A 
ATOM     19  C   UNL     1      -0.369  -4.974   0.206  0.00  0.00    +0.029 A 
BRANCH  14  20
ATOM     20  S   UNL     1       0.053  -3.042   2.087  0.00  0.00    +0.061 S 
ATOM     21  O   UNL     1       0.111  -2.201   0.943  0.00  0.00    -0.153 OA
ATOM     22  O   UNL     1       1.016  -2.979   3.129  0.00  0.00    -0.153 OA
BRANCH  20  27
ATOM     23  C   UNL     1      -4.064  -0.139   4.825  0.00  0.00    +0.007 C 
ATOM     24  C   UNL     1      -3.468  -1.370   4.140  0.00  0.00    -0.012 C 
ATOM     25  C   UNL     1      -2.206  -1.808   4.886  0.00  0.00    +0.020 C 
ATOM     26  C   UNL     1      -1.632  -3.062   4.218  0.00  0.00    +0.110 C 
ATOM     27  N   UNL     1      -1.424  -2.784   2.790  0.00  0.00    -0.177 NA
ATOM     28  C   UNL     1      -2.551  -2.271   1.999  0.00  0.00    +0.110 C 
ATOM     29  C   UNL     1      -3.114  -1.027   2.691  0.00  0.00    +0.020 C 
ENDBRANCH  20  27
ENDBRANCH  14  20
ENDBRANCH   1  17
BRANCH   3  30
ATOM     30  C   UNL     1       2.266  -9.005   1.108  0.00  0.00    +0.097 C 
BRANCH  30  31
ATOM     31  C   UNL     1       2.117  -9.567   2.523  0.00  0.00    -0.060 C 
BRANCH  31  32
ATOM     32  N   UNL     1       3.146  -8.983   3.393  0.00  0.00    +0.377 N 
ATOM     33  C   UNL     1       2.929  -9.431   4.776  0.00  0.00    -0.097 C 
ATOM     34  C   UNL     1       4.474  -9.418   2.941  0.00  0.00    -0.097 C 
ATOM     35  H   UNL     1       3.090  -7.977   3.352  0.00  0.00    -0.083 HD
ENDBRANCH  31  32
ENDBRANCH  30  31
ENDBRANCH   3  30
TORSDOF 6
