REMARK  Name = ZINC39664737
REMARK  9 active torsions:
REMARK  status: ('A' for Active; 'I' for Inactive)
REMARK    1  A    between atoms: C_1  and  C_2
REMARK    2  A    between atoms: C_4  and  C_9
REMARK    3  A    between atoms: C_13  and  C_22
REMARK    4  A    between atoms: N_24  and  C_25
REMARK    5  A    between atoms: C_25  and  C_27
REMARK    6  A    between atoms: C_25  and  C_31
REMARK    7  A    between atoms: C_27  and  N_28
REMARK    8  A    between atoms: N_28  and  C_29
REMARK    9  A    between atoms: N_28  and  C_30
REMARK                            x       y       z     vdW  Elec       q    Type
REMARK                         _______ _______ _______ _____ _____    ______ ____
ROOT
ATOM      1  C   UNL     1      -1.022  -2.987  -1.855  0.00  0.00    +0.247 C 
ATOM      2  O   UNL     1      -0.839  -2.121  -2.689  0.00  0.00    -0.270 OA
ATOM      3  N   UNL     1      -0.449  -4.198  -2.006  0.00  0.00    -0.296 N 
ATOM      4  C   UNL     1      -0.645  -5.405  -1.169  0.00  0.00    +0.121 C 
ATOM      5  C   UNL     1      -0.673  -6.578  -2.175  0.00  0.00    +0.100 C 
ATOM      6  C   UNL     1       0.094  -6.059  -3.403  0.00  0.00    -0.004 C 
ATOM      7  C   UNL     1       0.514  -4.625  -3.049  0.00  0.00    +0.115 C 
ATOM      8  C   UNL     1       1.324  -6.923  -3.662  0.00  0.00    -0.010 C 
ATOM      9  C   UNL     1       2.038  -6.423  -4.921  0.00  0.00    -0.082 C 
ATOM     10  N   UNL     1       1.120  -6.489  -6.065  0.00  0.00    +0.379 N 
ATOM     11  C   UNL     1      -0.016  -5.584  -5.848  0.00  0.00    -0.082 C 
ATOM     12  C   UNL     1      -0.816  -6.048  -4.628  0.00  0.00    -0.010 C 
ATOM     13  H   UNL     1       1.610  -6.217  -6.904  0.00  0.00    -0.086 HD
ATOM     14  H   UNL     1       0.780  -7.434  -6.168  0.00  0.00    -0.086 HD
ENDROOT
BRANCH   1  18
ATOM     15  C   UNL     1      -4.609  -0.309   0.346  0.00  0.00    +0.047 C 
ATOM     16  C   UNL     1      -3.598  -1.426   0.385  0.00  0.00    -0.015 A 
ATOM     17  C   UNL     1      -2.807  -1.678  -0.716  0.00  0.00    +0.019 A 
ATOM     18  C   UNL     1      -1.871  -2.713  -0.678  0.00  0.00    +0.037 A 
ATOM     19  C   UNL     1      -1.741  -3.488   0.476  0.00  0.00    +0.016 A 
ATOM     20  C   UNL     1      -2.536  -3.228   1.571  0.00  0.00    +0.039 A 
ATOM     21  C   UNL     1      -3.461  -2.195   1.530  0.00  0.00    +0.126 A 
ATOM     22  F   UNL     1      -4.234  -1.941   2.608  0.00  0.00    -0.205 F 
ENDBRANCH   1  18
BRANCH   5  23
ATOM     23  C   UNL     1       0.017  -7.785  -1.594  0.00  0.00    +0.219 C 
ATOM     24  O   UNL     1      -0.490  -8.882  -1.698  0.00  0.00    -0.275 OA
ATOM     25  N   UNL     1       1.198  -7.645  -0.959  0.00  0.00    -0.310 N 
ATOM     26  H   UNL     1       1.631  -6.778  -0.925  0.00  0.00    +0.149 HD
BRANCH  25  27
ATOM     27  C   UNL     1       1.827  -8.804  -0.321  0.00  0.00    +0.087 C 
BRANCH  27  28
ATOM     28  C   UNL     1       3.316  -8.757  -0.549  0.00  0.00    -0.029 A 
ATOM     29  C   UNL     1       3.989  -7.552  -0.473  0.00  0.00    +0.005 A 
ATOM     30  C   UNL     1       5.354  -7.508  -0.683  0.00  0.00    +0.000 A 
ATOM     31  C   UNL     1       6.047  -8.670  -0.969  0.00  0.00    +0.000 A 
ATOM     32  C   UNL     1       5.374  -9.875  -1.044  0.00  0.00    +0.000 A 
ATOM     33  C   UNL     1       4.009  -9.919  -0.830  0.00  0.00    +0.005 A 
ENDBRANCH  27  28
BRANCH  27  34
ATOM     34  C   UNL     1       1.541  -8.776   1.182  0.00  0.00    -0.052 C 
BRANCH  34  35
ATOM     35  N   UNL     1       0.089  -8.775   1.404  0.00  0.00    +0.377 N 
ATOM     36  C   UNL     1      -0.467 -10.078   1.014  0.00  0.00    -0.097 C 
ATOM     37  C   UNL     1      -0.189  -8.531   2.826  0.00  0.00    -0.097 C 
ATOM     38  H   UNL     1      -0.336  -8.048   0.849  0.00  0.00    -0.083 HD
ENDBRANCH  34  35
ENDBRANCH  27  34
ENDBRANCH  25  27
ENDBRANCH   5  23
TORSDOF 6
