REMARK  Name = ZINC39640366
REMARK  10 active torsions:
REMARK  status: ('A' for Active; 'I' for Inactive)
REMARK    1  A    between atoms: C_1  and  C_2
REMARK    2  A    between atoms: C_2  and  O_3
REMARK    3  A    between atoms: O_3  and  C_4
REMARK    4  A    between atoms: C_11  and  C_18
REMARK    5  A    between atoms: C_13  and  O_14
REMARK    6  A    between atoms: C_18  and  O_19
REMARK    7  A    between atoms: O_19  and  C_20
REMARK    8  A    between atoms: C_20  and  C_22
REMARK    9  A    between atoms: C_22  and  N_23
REMARK   10  A    between atoms: C_24  and  C_26
REMARK                            x       y       z     vdW  Elec       q    Type
REMARK                         _______ _______ _______ _____ _____    ______ ____
ROOT
ATOM      1  C   UNL     1       1.716  -8.938  -3.593  0.00  0.00    +0.405 C 
ATOM      2  O   UNL     1       2.050  -8.466  -2.520  0.00  0.00    -0.226 OA
ATOM      3  N   UNL     1       0.461  -9.319  -3.788  0.00  0.00    -0.251 N 
ATOM      4  C   UNL     1      -0.482  -9.062  -2.843  0.00  0.00    +0.040 A 
ATOM      5  C   UNL     1      -1.704  -9.758  -2.866  0.00  0.00    +0.024 A 
ATOM      6  C   UNL     1      -2.654  -9.509  -1.928  0.00  0.00    +0.014 A 
ATOM      7  C   UNL     1      -2.417  -8.551  -0.925  0.00  0.00    +0.024 A 
ATOM      8  C   UNL     1      -3.390  -8.279   0.058  0.00  0.00    +0.007 A 
ATOM      9  C   UNL     1      -3.108  -7.330   1.021  0.00  0.00    +0.095 A 
ATOM     10  C   UNL     1      -1.889  -6.668   1.004  0.00  0.00    +0.285 A 
ATOM     11  O   UNL     1      -0.969  -6.929   0.069  0.00  0.00    -0.425 OA
ATOM     12  C   UNL     1      -1.192  -7.847  -0.894  0.00  0.00    +0.141 A 
ATOM     13  C   UNL     1      -0.230  -8.112  -1.851  0.00  0.00    +0.070 A 
ATOM     14  H   UNL     1       0.215  -9.782  -4.604  0.00  0.00    +0.158 HD
ENDROOT
BRANCH  10  15
ATOM     15  O   UNL     1      -1.627  -5.745   1.948  0.00  0.00    -0.480 OA
ATOM     16  H   UNL     1      -0.756  -5.332   1.864  0.00  0.00    +0.295 HD
ENDBRANCH  10  15
BRANCH   1  17
ATOM     17  O   UNL     1       2.625  -9.074  -4.585  0.00  0.00    -0.450 OA
BRANCH  17  19
ATOM     18  C   UNL     1       4.837  -8.873  -5.537  0.00  0.00    +0.048 C 
ATOM     19  C   UNL     1       3.958  -8.643  -4.306  0.00  0.00    +0.230 C 
ENDBRANCH  17  19
ENDBRANCH   1  17
BRANCH   8  20
ATOM     20  C   UNL     1      -4.709  -9.008   0.059  0.00  0.00    +0.268 C 
BRANCH  20  21
ATOM     21  O   UNL     1      -5.777  -8.061  -0.006  0.00  0.00    -0.459 OA
BRANCH  21  22
ATOM     22  C   UNL     1      -7.027  -8.551  -0.014  0.00  0.00    +0.325 C 
ATOM     23  O   UNL     1      -7.208  -9.745   0.033  0.00  0.00    -0.249 OA
BRANCH  22  24
ATOM     24  C   UNL     1      -8.204  -7.612  -0.080  0.00  0.00    +0.224 C 
BRANCH  24  25
ATOM     25  N   UNL     1      -9.447  -8.387  -0.076  0.00  0.00    -0.304 N 
ATOM     26  C   UNL     1     -10.636  -7.754  -0.130  0.00  0.00    +0.220 C 
ATOM     27  O   UNL     1     -10.676  -6.543  -0.182  0.00  0.00    -0.275 OA
ATOM     28  H   UNL     1      -9.415  -9.356  -0.034  0.00  0.00    +0.149 HD
BRANCH  26  29
ATOM     29  C   UNL     1     -11.915  -8.551  -0.126  0.00  0.00    +0.048 C 
ATOM     30  C   UNL     1     -11.938  -9.485  -1.337  0.00  0.00    +0.019 C 
ATOM     31  C   UNL     1     -13.236 -10.294  -1.333  0.00  0.00    -0.009 C 
ATOM     32  C   UNL     1     -14.432  -9.341  -1.400  0.00  0.00    +0.007 C 
ATOM     33  C   UNL     1     -14.408  -8.407  -0.189  0.00  0.00    -0.009 C 
ATOM     34  C   UNL     1     -13.110  -7.598  -0.193  0.00  0.00    +0.019 C 
ATOM     35  C   UNL     1     -14.489  -9.236   1.095  0.00  0.00    +0.007 C 
ATOM     36  C   UNL     1     -13.294 -10.189   1.163  0.00  0.00    -0.009 C 
ATOM     37  C   UNL     1     -13.317 -11.123  -0.049  0.00  0.00    +0.007 C 
ATOM     38  C   UNL     1     -11.995  -9.380   1.158  0.00  0.00    +0.019 C 
ENDBRANCH  26  29
ENDBRANCH  24  25
ENDBRANCH  22  24
ENDBRANCH  21  22
ENDBRANCH  20  21
ENDBRANCH   8  20
TORSDOF 9
