REMARK  Name = ZINC09395089
REMARK  12 active torsions:
REMARK  status: ('A' for Active; 'I' for Inactive)
REMARK    1  A    between atoms: C_1  and  C_2
REMARK    2  A    between atoms: C_2  and  C_4
REMARK    3  A    between atoms: C_2  and  O_23
REMARK    4  A    between atoms: C_4  and  O_6
REMARK    5  A    between atoms: O_6  and  C_7
REMARK    6  A    between atoms: C_7  and  C_8
REMARK    7  A    between atoms: N_10  and  C_11
REMARK    8  A    between atoms: C_11  and  C_12
REMARK    9  A    between atoms: C_12  and  C_13
REMARK   10  A    between atoms: C_16  and  S_19
REMARK   11  A    between atoms: S_19  and  N_22
REMARK   12  A    between atoms: O_23  and  C_24
REMARK                            x       y       z     vdW  Elec       q    Type
REMARK                         _______ _______ _______ _____ _____    ______ ____
ROOT
ATOM      1  C   UNL     1       2.527   6.407  -2.119  0.00  0.00    +0.251 C 
ATOM      2  O   UNL     1       3.641   5.955  -1.964  0.00  0.00    -0.272 OA
ATOM      3  N   UNL     1       2.366   7.639  -2.642  0.00  0.00    -0.312 N 
ATOM      4  H   UNL     1       1.475   8.001  -2.765  0.00  0.00    +0.149 HD
ENDROOT
BRANCH   1   5
ATOM      5  C   UNL     1       1.321   5.592  -1.727  0.00  0.00    +0.327 C 
BRANCH   5   6
ATOM      6  O   UNL     1       1.754   4.313  -1.194  0.00  0.00    -0.453 OA
BRANCH   6   7
ATOM      7  C   UNL     1       0.795   3.463  -0.795  0.00  0.00    +0.348 C 
ATOM      8  O   UNL     1      -0.368   3.777  -0.889  0.00  0.00    -0.247 OA
BRANCH   7  10
ATOM      9  C   UNL     1       1.928   2.307   1.084  0.00  0.00    +0.064 C 
ATOM     10  C   UNL     1       1.169   2.116  -0.231  0.00  0.00    +0.278 C 
BRANCH  10  11
ATOM     11  O   UNL     1      -0.016   1.355   0.009  0.00  0.00    -0.478 OA
BRANCH  11  12
ATOM     12  C   UNL     1       0.110   0.002   0.015  0.00  0.00    +0.122 A 
ATOM     13  C   UNL     1       1.365  -0.579  -0.099  0.00  0.00    +0.047 A 
ATOM     14  C   UNL     1       1.492  -1.955  -0.087  0.00  0.00    +0.019 A 
ATOM     15  C   UNL     1       0.367  -2.753   0.026  0.00  0.00    +0.018 A 
ATOM     16  C   UNL     1      -0.885  -2.176   0.133  0.00  0.00    +0.019 A 
ATOM     17  C   UNL     1      -1.016  -0.801   0.128  0.00  0.00    +0.047 A 
ATOM     18 BR   UNL     1       0.543  -4.636   0.035  0.00  0.00    -0.050 Br
ENDBRANCH  11  12
ENDBRANCH  10  11
ENDBRANCH   7  10
ENDBRANCH   6   7
ENDBRANCH   5   6
ENDBRANCH   1   5
BRANCH   3  19
ATOM     19  C   UNL     1       3.538   8.431  -3.022  0.00  0.00    +0.109 C 
BRANCH  19  20
ATOM     20  C   UNL     1       3.082   9.779  -3.584  0.00  0.00    +0.054 C 
BRANCH  20  21
ATOM     21  C   UNL     1       4.288  10.594  -3.976  0.00  0.00    -0.046 A 
ATOM     22  C   UNL     1       4.876  11.444  -3.058  0.00  0.00    +0.005 A 
ATOM     23  C   UNL     1       5.984  12.188  -3.416  0.00  0.00    +0.029 A 
ATOM     24  C   UNL     1       6.499  12.090  -4.695  0.00  0.00    +0.105 A 
ATOM     25  C   UNL     1       5.908  11.244  -5.615  0.00  0.00    +0.029 A 
ATOM     26  C   UNL     1       4.802  10.496  -5.256  0.00  0.00    +0.005 A 
BRANCH  24  27
ATOM     27  S   UNL     1       7.909  13.041  -5.153  0.00  0.00    +0.056 S 
ATOM     28  O   UNL     1       8.604  13.343  -3.951  0.00  0.00    -0.153 OA
ATOM     29  O   UNL     1       8.524  12.360  -6.238  0.00  0.00    -0.153 OA
BRANCH  27  30
ATOM     30  N   UNL     1       7.354  14.482  -5.753  0.00  0.00    -0.204 NA
ATOM     31  H   UNL     1       7.890  15.285  -5.659  0.00  0.00    +0.144 HD
ATOM     32  H   UNL     1       6.493  14.522  -6.198  0.00  0.00    +0.144 HD
ENDBRANCH  27  30
ENDBRANCH  24  27
ENDBRANCH  20  21
ENDBRANCH  19  20
ENDBRANCH   3  19
TORSDOF 11
