REMARK  Name = ZINC02691612
REMARK  7 active torsions:
REMARK  status: ('A' for Active; 'I' for Inactive)
REMARK    1  A    between atoms: C_3  and  S_31
REMARK    2  A    between atoms: C_6  and  C_7
REMARK    3  A    between atoms: C_7  and  C_8
REMARK    4  A    between atoms: C_8  and  N_9
REMARK    5  A    between atoms: C_10  and  C_12
REMARK    6  A    between atoms: C_15  and  N_18
REMARK    7  A    between atoms: S_31  and  N_34
REMARK                            x       y       z     vdW  Elec       q    Type
REMARK                         _______ _______ _______ _____ _____    ______ ____
ROOT
ATOM      1  N   UNL     1      -3.004  -1.778  -1.420  0.00  0.00    -0.311 N 
ATOM      2  C   UNL     1      -3.594  -2.117  -2.584  0.00  0.00    +0.244 C 
ATOM      3  O   UNL     1      -3.082  -1.800  -3.640  0.00  0.00    -0.270 OA
ATOM      4  H   UNL     1      -3.412  -2.031  -0.578  0.00  0.00    +0.149 HD
ENDROOT
BRANCH   2   5
ATOM      5  C   UNL     1      -4.860  -2.871  -2.575  0.00  0.00    +0.037 A 
ATOM      6  C   UNL     1      -5.452  -3.230  -1.359  0.00  0.00    +0.015 A 
ATOM      7  C   UNL     1      -6.624  -3.929  -1.351  0.00  0.00    +0.028 A 
ATOM      8  C   UNL     1      -7.235  -4.285  -2.559  0.00  0.00    +0.067 A 
ATOM      9  C   UNL     1      -6.643  -3.925  -3.776  0.00  0.00    +0.028 A 
ATOM     10  C   UNL     1      -5.473  -3.222  -3.783  0.00  0.00    +0.015 A 
BRANCH   8  11
ATOM     11  N   UNL     1      -8.406  -4.983  -2.551  0.00  0.00    -0.226 NA
ATOM     12  C   UNL     1      -9.390  -4.626  -3.349  0.00  0.00    +0.155 C 
ATOM     13  N   UNL     1     -10.631  -5.209  -3.467  0.00  0.00    -0.318 N 
ATOM     14  C   UNL     1     -11.601  -4.613  -4.370  0.00  0.00    +0.108 C 
ATOM     15  C   UNL     1     -12.518  -5.688  -4.982  0.00  0.00    +0.189 C 
ATOM     16  S   UNL     1     -11.730  -6.039  -6.605  0.00  0.00    -0.028 S 
ATOM     17  O   UNL     1     -12.624  -5.662  -7.643  0.00  0.00    -0.174 OA
ATOM     18  O   UNL     1     -11.197  -7.356  -6.585  0.00  0.00    -0.174 OA
ATOM     19  C   UNL     1     -10.343  -4.830  -6.541  0.00  0.00    +0.182 C 
ATOM     20  C   UNL     1     -10.875  -3.833  -5.505  0.00  0.00    +0.097 C 
ATOM     21  S   UNL     1      -9.415  -3.271  -4.516  0.00  0.00    -0.084 S 
ATOM     22  H   UNL     1     -10.855  -6.003  -2.956  0.00  0.00    +0.148 HD
ENDBRANCH   8  11
ENDBRANCH   2   5
BRANCH   1  23
ATOM     23  C   UNL     1      -1.745  -1.028  -1.429  0.00  0.00    +0.109 C 
BRANCH  23  24
ATOM     24  C   UNL     1      -1.293  -0.775   0.011  0.00  0.00    +0.054 C 
BRANCH  24  30
ATOM     25  C   UNL     1      -0.017   1.378   0.010  0.00  0.00    +0.005 A 
ATOM     26  C   UNL     1       1.171   2.086   0.002  0.00  0.00    +0.029 A 
ATOM     27  C   UNL     1       2.377   1.411  -0.013  0.00  0.00    +0.105 A 
ATOM     28  C   UNL     1       2.396   0.029  -0.020  0.00  0.00    +0.029 A 
ATOM     29  C   UNL     1       1.208  -0.679  -0.012  0.00  0.00    +0.005 A 
ATOM     30  C   UNL     1       0.002  -0.004   0.002  0.00  0.00    -0.046 A 
BRANCH  27  31
ATOM     31  S   UNL     1       3.891   2.312  -0.024  0.00  0.00    +0.056 S 
ATOM     32  O   UNL     1       4.872   1.453  -0.588  0.00  0.00    -0.153 OA
ATOM     33  O   UNL     1       3.597   3.593  -0.566  0.00  0.00    -0.153 OA
BRANCH  31  34
ATOM     34  N   UNL     1       4.327   2.556   1.555  0.00  0.00    -0.204 NA
ATOM     35  H   UNL     1       5.265   2.623   1.794  0.00  0.00    +0.144 HD
ATOM     36  H   UNL     1       3.645   2.631   2.241  0.00  0.00    +0.144 HD
ENDBRANCH  31  34
ENDBRANCH  27  31
ENDBRANCH  24  30
ENDBRANCH  23  24
ENDBRANCH   1  23
TORSDOF 7
