REMARK  Name = ZINC22508597
REMARK  10 active torsions:
REMARK  status: ('A' for Active; 'I' for Inactive)
REMARK    1  A    between atoms: C_1  and  C_2
REMARK    2  A    between atoms: C_7  and  O_8
REMARK    3  A    between atoms: O_8  and  C_9
REMARK    4  A    between atoms: C_9  and  C_11
REMARK    5  A    between atoms: C_9  and  C_12
REMARK    6  A    between atoms: N_14  and  C_15
REMARK    7  A    between atoms: C_18  and  S_21
REMARK    8  A    between atoms: S_21  and  N_24
REMARK    9  A    between atoms: N_24  and  C_25
REMARK   10  A    between atoms: C_29  and  C_31
REMARK                            x       y       z     vdW  Elec       q    Type
REMARK                         _______ _______ _______ _____ _____    ______ ____
ROOT
ATOM      1  C   UNL     1       5.019   5.769   0.187  0.00  0.00    +0.034 A 
ATOM      2  C   UNL     1       5.830   4.654   0.344  0.00  0.00    +0.025 A 
ATOM      3  C   UNL     1       5.603   3.523  -0.417  0.00  0.00    +0.030 A 
ATOM      4  C   UNL     1       4.568   3.502  -1.334  0.00  0.00    +0.109 A 
ATOM      5  C   UNL     1       3.761   4.614  -1.496  0.00  0.00    +0.030 A 
ATOM      6  C   UNL     1       3.980   5.745  -0.735  0.00  0.00    +0.025 A 
ENDROOT
BRANCH   1   9
ATOM      7  C   UNL     1       6.504   7.253   1.307  0.00  0.00    +0.258 C 
ATOM      8  O   UNL     1       7.443   6.612   0.885  0.00  0.00    -0.271 OA
ATOM      9  N   UNL     1       5.247   6.916   0.956  0.00  0.00    -0.282 N 
ATOM     10  H   UNL     1       4.400   7.543   1.273  0.00  0.00    +0.155 HD
BRANCH   7  11
ATOM     11  C   UNL     1       6.741   8.425   2.224  0.00  0.00    +0.256 C 
ATOM     12  C   UNL     1       6.184   9.696   1.581  0.00  0.00    +0.062 C 
BRANCH  11  13
ATOM     13  O   UNL     1       8.145   8.579   2.446  0.00  0.00    -0.480 OA
BRANCH  13  20
ATOM     14  C   UNL     1      10.913   8.777   2.972  0.00  0.00    +0.047 C 
ATOM     15  C   UNL     1       9.868   9.356   3.890  0.00  0.00    -0.009 A 
ATOM     16  C   UNL     1      10.249  10.020   5.040  0.00  0.00    +0.007 A 
ATOM     17  C   UNL     1       9.291  10.548   5.885  0.00  0.00    +0.000 A 
ATOM     18  C   UNL     1       7.949  10.416   5.580  0.00  0.00    +0.004 A 
ATOM     19  C   UNL     1       7.562   9.757   4.429  0.00  0.00    +0.046 A 
ATOM     20  C   UNL     1       8.522   9.227   3.579  0.00  0.00    +0.124 A 
ENDBRANCH  13  20
ENDBRANCH  11  13
ENDBRANCH   7  11
ENDBRANCH   1   9
BRANCH   4  21
ATOM     21  S   UNL     1       4.282   2.059  -2.303  0.00  0.00    +0.072 S 
ATOM     22  O   UNL     1       5.476   1.291  -2.252  0.00  0.00    -0.150 OA
ATOM     23  O   UNL     1       3.711   2.498  -3.528  0.00  0.00    -0.150 OA
BRANCH  21  24
ATOM     24  N   UNL     1       3.116   1.173  -1.529  0.00  0.00    -0.216 N 
ATOM     25  H   UNL     1       2.156   0.972  -2.026  0.00  0.00    +0.174 HD
BRANCH  24  26
ATOM     26  C   UNL     1       3.353   0.680  -0.243  0.00  0.00    +0.049 A 
ATOM     27  C   UNL     1       4.560   0.061   0.054  0.00  0.00    +0.026 A 
ATOM     28  C   UNL     1       4.792  -0.425   1.326  0.00  0.00    +0.022 A 
ATOM     29  C   UNL     1       3.821  -0.296   2.304  0.00  0.00    +0.053 A 
ATOM     30  C   UNL     1       2.620   0.325   2.013  0.00  0.00    +0.075 A 
ATOM     31  C   UNL     1       2.381   0.808   0.741  0.00  0.00    +0.038 A 
ATOM     32 CL   UNL     1       4.116  -0.908   3.902  0.00  0.00    -0.083 Cl
BRANCH  30  33
ATOM     33  C   UNL     1       1.568   0.469   3.083  0.00  0.00    +0.419 C 
ATOM     34  F   UNL     1       0.449   1.119   2.552  0.00  0.00    -0.166 F 
ATOM     35  F   UNL     1       1.196  -0.798   3.545  0.00  0.00    -0.166 F 
ATOM     36  F   UNL     1       2.083   1.220   4.145  0.00  0.00    -0.166 F 
ENDBRANCH  30  33
ENDBRANCH  24  26
ENDBRANCH  21  24
ENDBRANCH   4  21
TORSDOF 8
