REMARK  Name = ZINC20680451
REMARK  13 active torsions:
REMARK  status: ('A' for Active; 'I' for Inactive)
REMARK    1  A    between atoms: C_1  and  C_2
REMARK    2  A    between atoms: C_2  and  N_3
REMARK    3  A    between atoms: N_3  and  C_4
REMARK    4  A    between atoms: N_3  and  C_6
REMARK    5  A    between atoms: C_4  and  C_5
REMARK    6  A    between atoms: C_6  and  C_7
REMARK    7  A    between atoms: C_7  and  N_8
REMARK    8  A    between atoms: C_9  and  C_11
REMARK    9  A    between atoms: C_20  and  C_23
REMARK   10  A    between atoms: C_23  and  S_24
REMARK   11  A    between atoms: S_24  and  C_27
REMARK   12  A    between atoms: C_27  and  C_28
REMARK   13  A    between atoms: C_33  and  C_34
REMARK                            x       y       z     vdW  Elec       q    Type
REMARK                         _______ _______ _______ _____ _____    ______ ____
ROOT
ATOM      1  C   UNL     1      -2.527  -1.382   0.386  0.00  0.00    +0.039 A 
ATOM      2  C   UNL     1      -1.514  -2.344   0.412  0.00  0.00    +0.015 A 
ATOM      3  C   UNL     1      -1.835  -3.683   0.482  0.00  0.00    +0.025 A 
ATOM      4  C   UNL     1      -3.165  -4.074   0.529  0.00  0.00    +0.049 A 
ATOM      5  C   UNL     1      -4.186  -3.118   0.509  0.00  0.00    +0.055 A 
ATOM      6  C   UNL     1      -3.867  -1.776   0.440  0.00  0.00    +0.038 A 
ATOM      7  N   UNL     1      -5.523  -3.528   0.572  0.00  0.00    -0.282 N 
ATOM      8  C   UNL     1      -5.839  -4.806   0.849  0.00  0.00    +0.239 C 
ATOM      9  O   UNL     1      -6.994  -5.169   0.778  0.00  0.00    -0.273 OA
ATOM     10  C   UNL     1      -4.770  -5.793   1.247  0.00  0.00    +0.178 C 
ATOM     11  N   UNL     1      -3.509  -5.426   0.588  0.00  0.00    -0.330 N 
ATOM     12  H   UNL     1      -6.330  -2.802   0.395  0.00  0.00    +0.155 HD
ATOM     13  H   UNL     1      -2.865  -6.207   0.158  0.00  0.00    +0.147 HD
ENDROOT
BRANCH   1  15
ATOM     14  N   UNL     1      -0.890   0.430   0.261  0.00  0.00    -0.313 N 
ATOM     15  C   UNL     1      -2.182   0.050   0.308  0.00  0.00    +0.244 C 
ATOM     16  O   UNL     1      -3.063   0.888   0.285  0.00  0.00    -0.270 OA
ATOM     17  H   UNL     1      -0.092  -0.327   0.282  0.00  0.00    +0.149 HD
BRANCH  14  18
ATOM     18  C   UNL     1      -0.547   1.853   0.183  0.00  0.00    +0.086 C 
BRANCH  18  19
ATOM     19  C   UNL     1       0.975   2.009   0.143  0.00  0.00    -0.060 C 
BRANCH  19  20
ATOM     20  N   UNL     1       1.318   3.435   0.065  0.00  0.00    +0.380 N 
ATOM     21  H   UNL     1       0.788   3.956   0.877  0.00  0.00    -0.082 HD
BRANCH  20  23
ATOM     22  C   UNL     1       3.098   3.488   1.747  0.00  0.00    -0.017 C 
ATOM     23  C   UNL     1       2.759   3.641   0.263  0.00  0.00    -0.082 C 
ENDBRANCH  20  23
BRANCH  20  24
ATOM     24  C   UNL     1       0.874   4.015  -1.209  0.00  0.00    -0.082 C 
ATOM     25  C   UNL     1       0.878   5.541  -1.104  0.00  0.00    -0.017 C 
ENDBRANCH  20  24
ENDBRANCH  19  20
ENDBRANCH  18  19
ENDBRANCH  14  18
ENDBRANCH   1  15
BRANCH  10  26
ATOM     26  C   UNL     1      -4.582  -5.762   2.765  0.00  0.00    +0.198 C 
BRANCH  26  27
ATOM     27  S   UNL     1      -3.288  -6.942   3.238  0.00  0.00    -0.025 S 
ATOM     28  O   UNL     1      -3.744  -8.254   2.937  0.00  0.00    -0.174 OA
ATOM     29  O   UNL     1      -2.054  -6.498   2.692  0.00  0.00    -0.174 OA
BRANCH  27  30
ATOM     30  C   UNL     1      -3.218  -6.758   5.041  0.00  0.00    +0.201 C 
BRANCH  30  31
ATOM     31  C   UNL     1      -2.172  -7.688   5.600  0.00  0.00    -0.024 A 
ATOM     32  C   UNL     1      -2.519  -8.970   5.982  0.00  0.00    +0.005 A 
ATOM     33  C   UNL     1      -1.558  -9.824   6.490  0.00  0.00    +0.000 A 
ATOM     34  C   UNL     1      -0.252  -9.392   6.627  0.00  0.00    +0.000 A 
ATOM     35  C   UNL     1       0.094  -8.108   6.251  0.00  0.00    +0.003 A 
ATOM     36  C   UNL     1      -0.866  -7.256   5.737  0.00  0.00    -0.046 A 
ATOM     37  C   UNL     1      -0.488  -5.856   5.327  0.00  0.00    +0.044 C 
ENDBRANCH  30  31
ENDBRANCH  27  30
ENDBRANCH  26  27
ENDBRANCH  10  26
TORSDOF 10
