REMARK  Name = ZINC20589994
REMARK  10 active torsions:
REMARK  status: ('A' for Active; 'I' for Inactive)
REMARK    1  A    between atoms: C_1  and  C_2
REMARK    2  A    between atoms: C_3  and  C_27
REMARK    3  A    between atoms: C_11  and  O_25
REMARK    4  A    between atoms: C_12  and  C_13
REMARK    5  A    between atoms: C_13  and  N_14
REMARK    6  A    between atoms: N_14  and  C_15
REMARK    7  A    between atoms: C_17  and  C_23
REMARK    8  A    between atoms: C_17  and  C_24
REMARK    9  A    between atoms: C_19  and  C_21
REMARK   10  A    between atoms: C_19  and  C_22
REMARK                            x       y       z     vdW  Elec       q    Type
REMARK                         _______ _______ _______ _____ _____    ______ ____
ROOT
ATOM      1  C   UNL     1      -0.566   0.958   0.285  0.00  0.00    +0.045 C 
ATOM      2  C   UNL     1      -0.432  -0.540   0.203  0.00  0.00    -0.030 A 
ATOM      3  C   UNL     1      -0.357  -1.170  -0.998  0.00  0.00    +0.037 A 
ATOM      4  C   UNL     1      -0.231  -2.573  -1.048  0.00  0.00    +0.340 A 
ATOM      5  O   UNL     1      -0.165  -3.125  -2.132  0.00  0.00    -0.245 OA
ATOM      6  O   UNL     1      -0.182  -3.317   0.068  0.00  0.00    -0.422 OA
ATOM      7  C   UNL     1      -0.252  -2.754   1.293  0.00  0.00    +0.147 A 
ATOM      8  C   UNL     1      -0.373  -1.358   1.417  0.00  0.00    +0.023 A 
ATOM      9  C   UNL     1      -0.440  -0.770   2.685  0.00  0.00    +0.035 A 
ATOM     10  C   UNL     1      -0.383  -1.555   3.801  0.00  0.00    +0.083 A 
ATOM     11  C   UNL     1      -0.257  -2.939   3.684  0.00  0.00    +0.143 A 
ATOM     12  C   UNL     1      -0.200  -3.538   2.436  0.00  0.00    +0.052 A 
ATOM     13 CL   UNL     1      -0.466  -0.826   5.374  0.00  0.00    -0.080 Cl
ATOM     14  C   UNL     1      -0.408  -0.370  -2.275  0.00  0.00    +0.051 C 
ENDROOT
BRANCH  11  15
ATOM     15  O   UNL     1      -0.201  -3.707   4.803  0.00  0.00    -0.505 OA
ATOM     16  H   UNL     1      -1.064  -4.008   5.117  0.00  0.00    +0.292 HD
ENDBRANCH  11  15
BRANCH  12  17
ATOM     17  C   UNL     1      -0.065  -5.034   2.321  0.00  0.00    +0.124 C 
BRANCH  17  18
ATOM     18  N   UNL     1       1.359  -5.397   2.307  0.00  0.00    -0.309 NA
ATOM     19  H   UNL     1       1.846  -4.918   1.564  0.00  0.00    +0.123 HD
BRANCH  18  20
ATOM     20  C   UNL     1       1.530  -6.855   2.195  0.00  0.00    +0.051 C 
ATOM     21  C   UNL     1       1.520  -7.251   0.717  0.00  0.00    +0.006 C 
ATOM     22  C   UNL     1       1.710  -8.761   0.584  0.00  0.00    -0.072 C 
ATOM     23  N   UNL     1       2.900  -9.228   1.279  0.00  0.00    +0.386 N 
ATOM     24  C   UNL     1       3.124  -8.748   2.633  0.00  0.00    -0.072 C 
ATOM     25  C   UNL     1       2.882  -7.251   2.788  0.00  0.00    +0.006 C 
ATOM     26  C   UNL     1       2.285  -9.521   3.654  0.00  0.00    -0.010 C 
ATOM     27  C   UNL     1       4.609  -9.011   2.979  0.00  0.00    -0.010 C 
ATOM     28  C   UNL     1       1.895  -9.069  -0.920  0.00  0.00    -0.010 C 
ATOM     29  C   UNL     1       0.450  -9.495   1.045  0.00  0.00    -0.010 C 
ATOM     30  H   UNL     1       2.881 -10.251   1.298  0.00  0.00    -0.084 HD
ATOM     31  H   UNL     1       3.717  -8.986   0.712  0.00  0.00    -0.084 HD
ENDBRANCH  18  20
ENDBRANCH  17  18
ENDBRANCH  12  17
TORSDOF 4
