REMARK  Name = ZINC39912598
REMARK  14 active torsions:
REMARK  status: ('A' for Active; 'I' for Inactive)
REMARK    1  A    between atoms: C_1  and  C_2
REMARK    2  A    between atoms: C_4  and  C_41
REMARK    3  A    between atoms: C_5  and  O_40
REMARK    4  A    between atoms: C_6  and  C_8
REMARK    5  A    between atoms: N_16  and  C_31
REMARK    6  A    between atoms: C_17  and  C_19
REMARK    7  A    between atoms: C_22  and  O_27
REMARK    8  A    between atoms: C_23  and  O_25
REMARK    9  A    between atoms: O_25  and  C_26
REMARK   10  A    between atoms: O_27  and  C_28
REMARK   11  A    between atoms: C_28  and  C_29
REMARK   12  A    between atoms: C_31  and  C_32
REMARK   13  A    between atoms: C_35  and  O_38
REMARK   14  A    between atoms: O_38  and  C_39
REMARK                            x       y       z     vdW  Elec       q    Type
REMARK                         _______ _______ _______ _____ _____    ______ ____
ROOT
ATOM      1  C   UNL     1       0.003  -2.583   2.247  0.00  0.00    +0.102 A 
ATOM      2  C   UNL     1       0.148  -2.191   3.582  0.00  0.00    +0.035 A 
ATOM      3  C   UNL     1       0.323  -3.358   4.300  0.00  0.00    +0.126 A 
ATOM      4  N   UNL     1       0.278  -4.375   3.390  0.00  0.00    -0.272 N 
ATOM      5  H   UNL     1       0.372  -5.317   3.601  0.00  0.00    +0.189 HD
ATOM      6  N   UNL     1       0.087  -3.899   2.211  0.00  0.00    -0.173 NA
ATOM      7  C   UNL     1       0.482  -3.014   5.718  0.00  0.00    +0.266 C 
ATOM      8  O   UNL     1       0.655  -3.819   6.613  0.00  0.00    -0.268 OA
ATOM      9  N   UNL     1       0.410  -1.681   5.887  0.00  0.00    -0.281 N 
ATOM     10  C   UNL     1       0.196  -1.061   4.573  0.00  0.00    +0.142 C 
ENDROOT
BRANCH   1  16
ATOM     11  C   UNL     1      -0.807   1.990   0.415  0.00  0.00    +0.044 C 
ATOM     12  C   UNL     1      -0.601   0.512   0.200  0.00  0.00    -0.049 A 
ATOM     13  C   UNL     1      -0.613  -0.006  -1.083  0.00  0.00    +0.010 A 
ATOM     14  C   UNL     1      -0.424  -1.359  -1.291  0.00  0.00    -0.008 A 
ATOM     15  C   UNL     1      -0.223  -2.205  -0.212  0.00  0.00    +0.129 A 
ATOM     16  C   UNL     1      -0.211  -1.685   1.085  0.00  0.00    +0.044 A 
ATOM     17  C   UNL     1      -0.396  -0.319   1.282  0.00  0.00    +0.017 A 
ATOM     18  C   UNL     1      -0.438  -1.915  -2.691  0.00  0.00    +0.047 C 
BRANCH  15  19
ATOM     19  O   UNL     1      -0.039  -3.536  -0.414  0.00  0.00    -0.506 OA
ATOM     20  H   UNL     1       0.886  -3.791  -0.534  0.00  0.00    +0.292 HD
ENDBRANCH  15  19
ENDBRANCH   1  16
BRANCH  10  21
ATOM     21  C   UNL     1       1.337  -0.132   4.247  0.00  0.00    -0.019 A 
ATOM     22  C   UNL     1       1.078   1.175   3.879  0.00  0.00    +0.009 A 
ATOM     23  C   UNL     1       2.122   2.031   3.579  0.00  0.00    +0.050 A 
ATOM     24  C   UNL     1       3.430   1.579   3.646  0.00  0.00    +0.162 A 
ATOM     25  C   UNL     1       3.690   0.264   4.016  0.00  0.00    +0.162 A 
ATOM     26  C   UNL     1       2.640  -0.588   4.321  0.00  0.00    +0.055 A 
BRANCH  25  27
ATOM     27  O   UNL     1       4.972  -0.185   4.084  0.00  0.00    -0.491 OA
ATOM     28  C   UNL     1       5.170  -1.514   4.570  0.00  0.00    +0.277 C 
ENDBRANCH  25  27
BRANCH  24  29
ATOM     29  O   UNL     1       4.457   2.420   3.350  0.00  0.00    -0.484 OA
BRANCH  29  30
ATOM     30  C   UNL     1       4.115   3.756   2.977  0.00  0.00    +0.256 C 
BRANCH  30  31
ATOM     31  C   UNL     1       5.373   4.535   2.688  0.00  0.00    +0.006 C 
ATOM     32  C   UNL     1       5.442   5.298   1.626  0.00  0.00    +0.007 C 
ENDBRANCH  30  31
ENDBRANCH  29  30
ENDBRANCH  24  29
ENDBRANCH  10  21
BRANCH   9  33
ATOM     33  C   UNL     1       0.524  -0.971   7.163  0.00  0.00    +0.144 C 
BRANCH  33  34
ATOM     34  C   UNL     1       1.969  -0.627   7.418  0.00  0.00    -0.030 A 
ATOM     35  C   UNL     1       2.781  -1.516   8.099  0.00  0.00    +0.009 A 
ATOM     36  C   UNL     1       4.105  -1.204   8.334  0.00  0.00    +0.046 A 
ATOM     37  C   UNL     1       4.622   0.004   7.888  0.00  0.00    +0.120 A 
ATOM     38  C   UNL     1       3.806   0.894   7.205  0.00  0.00    +0.046 A 
ATOM     39  C   UNL     1       2.483   0.575   6.967  0.00  0.00    +0.009 A 
BRANCH  37  40
ATOM     40  O   UNL     1       5.925   0.314   8.119  0.00  0.00    -0.495 OA
ATOM     41  C   UNL     1       6.388   1.575   7.630  0.00  0.00    +0.277 C 
ENDBRANCH  37  40
ENDBRANCH  33  34
ENDBRANCH   9  33
TORSDOF 10
