REMARK  Name = ZINC39684676
REMARK  9 active torsions:
REMARK  status: ('A' for Active; 'I' for Inactive)
REMARK    1  A    between atoms: C_1  and  C_2
REMARK    2  A    between atoms: C_2  and  C_4
REMARK    3  A    between atoms: C_2  and  N_8
REMARK    4  A    between atoms: C_4  and  C_5
REMARK    5  A    between atoms: C_4  and  C_6
REMARK    6  A    between atoms: C_4  and  C_7
REMARK    7  A    between atoms: C_9  and  C_11
REMARK    8  A    between atoms: C_22  and  C_24
REMARK    9  A    between atoms: C_27  and  C_29
REMARK                            x       y       z     vdW  Elec       q    Type
REMARK                         _______ _______ _______ _____ _____    ______ ____
ROOT
ATOM      1  C   UNL     1      -3.442  -1.177   1.191  0.00  0.00    +0.100 C 
ATOM      2  C   UNL     1      -4.400  -0.149   0.548  0.00  0.00    +0.121 C 
ATOM      3  N   UNL     1      -5.639  -0.235   1.355  0.00  0.00    -0.294 N 
ATOM      4  C   UNL     1      -5.160  -0.392   2.750  0.00  0.00    +0.115 C 
ATOM      5  C   UNL     1      -3.945  -1.333   2.637  0.00  0.00    -0.004 C 
ATOM      6  C   UNL     1      -4.368  -2.776   2.896  0.00  0.00    -0.010 C 
ATOM      7  C   UNL     1      -4.810  -2.919   4.355  0.00  0.00    -0.082 C 
ATOM      8  N   UNL     1      -3.701  -2.546   5.242  0.00  0.00    +0.379 N 
ATOM      9  C   UNL     1      -3.362  -1.131   5.052  0.00  0.00    -0.082 C 
ATOM     10  C   UNL     1      -2.859  -0.912   3.622  0.00  0.00    -0.010 C 
ATOM     11  C   UNL     1      -6.914  -0.182   0.921  0.00  0.00    +0.282 C 
ATOM     12  O   UNL     1      -7.832  -0.267   1.716  0.00  0.00    -0.267 OA
ATOM     13  H   UNL     1      -3.974  -2.699   6.202  0.00  0.00    -0.086 HD
ATOM     14  H   UNL     1      -2.896  -3.115   5.030  0.00  0.00    -0.086 HD
ENDROOT
BRANCH  11  15
ATOM     15  C   UNL     1      -7.195  -0.022  -0.508  0.00  0.00    +0.190 A 
ATOM     16  C   UNL     1      -8.444   0.052  -1.084  0.00  0.00    +0.055 A 
ATOM     17  C   UNL     1      -8.246   0.202  -2.461  0.00  0.00    +0.050 A 
ATOM     18  C   UNL     1      -6.897   0.214  -2.673  0.00  0.00    +0.136 A 
ATOM     19  O   UNL     1      -6.274   0.084  -1.490  0.00  0.00    -0.450 OA
BRANCH  18  20
ATOM     20  C   UNL     1      -6.234   0.353  -3.985  0.00  0.00    +0.017 A 
ATOM     21  C   UNL     1      -6.997   0.492  -5.146  0.00  0.00    +0.011 A 
ATOM     22  C   UNL     1      -6.370   0.622  -6.368  0.00  0.00    +0.001 A 
ATOM     23  C   UNL     1      -4.989   0.613  -6.445  0.00  0.00    +0.000 A 
ATOM     24  C   UNL     1      -4.226   0.474  -5.299  0.00  0.00    +0.001 A 
ATOM     25  C   UNL     1      -4.840   0.350  -4.070  0.00  0.00    +0.011 A 
ENDBRANCH  18  20
ENDBRANCH  11  15
BRANCH   1  27
ATOM     26  N   UNL     1      -0.993  -1.516   1.122  0.00  0.00    -0.312 N 
ATOM     27  C   UNL     1      -2.029  -0.655   1.181  0.00  0.00    +0.218 C 
ATOM     28  O   UNL     1      -1.823   0.539   1.225  0.00  0.00    -0.275 OA
ATOM     29  H   UNL     1      -1.158  -2.471   1.086  0.00  0.00    +0.149 HD
BRANCH  26  31
ATOM     30  C   UNL     1       0.784  -0.655  -0.322  0.00  0.00    +0.028 C 
ATOM     31  C   UNL     1       0.381  -1.009   1.111  0.00  0.00    +0.075 C 
BRANCH  31  32
ATOM     32  C   UNL     1       1.325  -2.083   1.656  0.00  0.00    -0.020 C 
ATOM     33  C   UNL     1       2.760  -1.553   1.645  0.00  0.00    +0.012 C 
ATOM     34  C   UNL     1       0.923  -2.436   3.089  0.00  0.00    +0.012 C 
ATOM     35  C   UNL     1       1.236  -3.333   0.778  0.00  0.00    +0.012 C 
ENDBRANCH  31  32
ENDBRANCH  26  31
ENDBRANCH   1  27
TORSDOF 5
