REMARK  Name = ZINC43553892
REMARK  14 active torsions:
REMARK  status: ('A' for Active; 'I' for Inactive)
REMARK    1  A    between atoms: C_1  and  C_2
REMARK    2  A    between atoms: C_2  and  C_3
REMARK    3  A    between atoms: C_3  and  N_4
REMARK    4  A    between atoms: C_5  and  O_7
REMARK    5  A    between atoms: O_7  and  C_8
REMARK    6  A    between atoms: C_12  and  C_39
REMARK    7  A    between atoms: C_15  and  C_16
REMARK    8  A    between atoms: C_15  and  C_17
REMARK    9  A    between atoms: C_17  and  O_18
REMARK   10  A    between atoms: C_21  and  O_38
REMARK   11  A    between atoms: C_23  and  C_25
REMARK   12  A    between atoms: C_25  and  C_26
REMARK   13  A    between atoms: C_31  and  N_34
REMARK   14  A    between atoms: C_35  and  C_37
REMARK                            x       y       z     vdW  Elec       q    Type
REMARK                         _______ _______ _______ _____ _____    ______ ____
ROOT
ATOM      1  C   UNL     1      -3.979  -4.423   1.033  0.00  0.00    +0.186 C 
ATOM      2  C   UNL     1      -4.325  -5.010   2.395  0.00  0.00    +0.046 C 
ATOM      3  C   UNL     1      -3.269  -6.042   2.795  0.00  0.00    +0.011 C 
ATOM      4  C   UNL     1      -3.276  -7.193   1.788  0.00  0.00    -0.023 C 
ATOM      5  C   UNL     1      -3.008  -6.668   0.388  0.00  0.00    +0.007 C 
ATOM      6  C   UNL     1      -3.867  -5.498  -0.047  0.00  0.00    +0.031 C 
ATOM      7  C   UNL     1      -5.263  -5.926  -0.500  0.00  0.00    +0.017 C 
ATOM      8  C   UNL     1      -3.052  -7.818  -0.620  0.00  0.00    +0.007 C 
ATOM      9  C   UNL     1      -1.940  -8.813  -0.267  0.00  0.00    +0.032 C 
ATOM     10  C   UNL     1      -2.145  -9.352   1.146  0.00  0.00    +0.119 C 
ATOM     11  C   UNL     1      -2.211  -8.225   2.174  0.00  0.00    +0.032 C 
ATOM     12  C   UNL     1      -4.637  -7.901   1.880  0.00  0.00    +0.012 C 
ENDROOT
BRANCH  10  13
ATOM     13  O   UNL     1      -1.048 -10.217   1.476  0.00  0.00    -0.391 OA
ATOM     14  H   UNL     1      -0.955 -10.977   0.886  0.00  0.00    +0.210 HD
ENDBRANCH  10  13
BRANCH   1  15
ATOM     15  O   UNL     1      -2.740  -3.710   1.119  0.00  0.00    -0.446 OA
BRANCH  15  17
ATOM     16  N   UNL     1      -1.675  -1.682   1.564  0.00  0.00    -0.281 N 
ATOM     17  C   UNL     1      -2.805  -2.410   1.464  0.00  0.00    +0.401 C 
ATOM     18  O   UNL     1      -3.882  -1.894   1.686  0.00  0.00    -0.226 OA
ATOM     19  H   UNL     1      -0.815  -2.095   1.387  0.00  0.00    +0.152 HD
BRANCH  16  20
ATOM     20  C   UNL     1      -1.746  -0.268   1.940  0.00  0.00    +0.107 C 
BRANCH  20  22
ATOM     21  C   UNL     1      -0.408   1.797   2.372  0.00  0.00    +0.005 C 
ATOM     22  C   UNL     1      -0.334   0.320   1.980  0.00  0.00    +0.015 C 
ENDBRANCH  20  22
ENDBRANCH  16  20
ENDBRANCH  15  17
ENDBRANCH   1  15
BRANCH   6  23
ATOM     23  C   UNL     1      -3.181  -4.829  -1.263  0.00  0.00    +0.166 C 
BRANCH  23  24
ATOM     24  O   UNL     1      -3.976  -3.731  -1.715  0.00  0.00    -0.394 OA
ATOM     25  H   UNL     1      -3.606  -3.264  -2.477  0.00  0.00    +0.209 HD
ENDBRANCH  23  24
ENDBRANCH   6  23
BRANCH  11  26
ATOM     26  C   UNL     1      -0.836  -7.585   2.334  0.00  0.00    +0.102 C 
BRANCH  26  27
ATOM     27  C   UNL     1       0.085  -8.542   3.046  0.00  0.00    +0.216 C 
ATOM     28  O   UNL     1      -0.358  -9.563   3.528  0.00  0.00    -0.276 OA
ATOM     29  N   UNL     1       1.399  -8.264   3.147  0.00  0.00    -0.300 N 
ATOM     30  C   UNL     1       2.065  -7.065   2.617  0.00  0.00    +0.109 C 
ATOM     31  C   UNL     1       3.558  -7.165   2.993  0.00  0.00    +0.043 C 
ATOM     32  C   UNL     1       3.547  -8.137   4.203  0.00  0.00    +0.092 C 
ATOM     33  C   UNL     1       2.408  -9.108   3.814  0.00  0.00    +0.130 C 
BRANCH  32  34
ATOM     34  N   UNL     1       4.825  -8.843   4.321  0.00  0.00    -0.311 N 
ATOM     35  C   UNL     1       5.844  -8.283   5.003  0.00  0.00    +0.210 C 
ATOM     36  O   UNL     1       5.702  -7.194   5.520  0.00  0.00    -0.276 OA
ATOM     37  C   UNL     1       7.159  -9.009   5.125  0.00  0.00    +0.109 C 
ATOM     38  H   UNL     1       4.939  -9.713   3.908  0.00  0.00    +0.149 HD
ENDBRANCH  32  34
ENDBRANCH  26  27
ENDBRANCH  11  26
TORSDOF 10
