REMARK  Name = ZINC39607278
REMARK  6 active torsions:
REMARK  status: ('A' for Active; 'I' for Inactive)
REMARK    1  A    between atoms: C_1  and  C_2
REMARK    2  A    between atoms: C_5  and  C_9
REMARK    3  A    between atoms: C_6  and  C_8
REMARK    4  A    between atoms: C_9  and  N_10
REMARK    5  A    between atoms: C_11  and  C_13
REMARK    6  A    between atoms: C_24  and  C_26
REMARK                            x       y       z     vdW  Elec       q    Type
REMARK                         _______ _______ _______ _____ _____    ______ ____
ROOT
ATOM      1  C   UNL     1      -2.904  -6.622   0.508  0.00  0.00    +0.100 C 
ATOM      2  C   UNL     1      -3.891  -6.095  -0.556  0.00  0.00    +0.121 C 
ATOM      3  N   UNL     1      -3.937  -7.160  -1.585  0.00  0.00    -0.295 N 
ATOM      4  C   UNL     1      -3.911  -8.424  -0.809  0.00  0.00    +0.115 C 
ATOM      5  C   UNL     1      -2.922  -8.151   0.342  0.00  0.00    -0.004 C 
ATOM      6  C   UNL     1      -3.409  -8.817   1.625  0.00  0.00    -0.010 C 
ATOM      7  C   UNL     1      -3.363 -10.338   1.455  0.00  0.00    -0.082 C 
ATOM      8  N   UNL     1      -1.990 -10.758   1.153  0.00  0.00    +0.379 N 
ATOM      9  C   UNL     1      -1.562 -10.187  -0.130  0.00  0.00    -0.082 C 
ATOM     10  C   UNL     1      -1.532  -8.659  -0.027  0.00  0.00    -0.010 C 
ATOM     11  C   UNL     1      -3.990  -7.014  -2.924  0.00  0.00    +0.265 C 
ATOM     12  O   UNL     1      -3.904  -5.908  -3.418  0.00  0.00    -0.268 OA
ATOM     13  H   UNL     1      -1.373 -10.436   1.885  0.00  0.00    -0.086 HD
ATOM     14  H   UNL     1      -1.950 -11.764   1.102  0.00  0.00    -0.086 HD
ENDROOT
BRANCH  11  15
ATOM     15  C   UNL     1      -4.153  -8.204  -3.794  0.00  0.00    +0.126 A 
ATOM     16  C   UNL     1      -4.089  -8.049  -5.186  0.00  0.00    +0.033 A 
ATOM     17  C   UNL     1      -4.237  -9.136  -5.998  0.00  0.00    +0.012 A 
ATOM     18  C   UNL     1      -4.452 -10.391  -5.398  0.00  0.00    +0.000 A 
ATOM     19  C   UNL     1      -4.613 -11.551  -6.172  0.00  0.00    +0.010 A 
ATOM     20  C   UNL     1      -4.819 -12.748  -5.557  0.00  0.00    +0.001 A 
ATOM     21  C   UNL     1      -4.873 -12.839  -4.167  0.00  0.00    +0.002 A 
ATOM     22  C   UNL     1      -4.722 -11.737  -3.385  0.00  0.00    +0.028 A 
ATOM     23  C   UNL     1      -4.507 -10.480  -3.983  0.00  0.00    +0.072 A 
ATOM     24  N   UNL     1      -4.350  -9.385  -3.240  0.00  0.00    -0.242 NA
ENDBRANCH  11  15
BRANCH   1  26
ATOM     25  N   UNL     1      -0.676  -5.875   1.284  0.00  0.00    -0.311 N 
ATOM     26  C   UNL     1      -1.519  -6.084   0.253  0.00  0.00    +0.218 C 
ATOM     27  O   UNL     1      -1.164  -5.838  -0.880  0.00  0.00    -0.275 OA
ATOM     28  H   UNL     1      -0.961  -6.072   2.190  0.00  0.00    +0.149 HD
BRANCH  25  29
ATOM     29  C   UNL     1       0.669  -5.351   1.036  0.00  0.00    +0.139 C 
BRANCH  29  34
ATOM     30  C   UNL     1       3.481  -4.815   6.055  0.00  0.00    +0.044 C 
ATOM     31  C   UNL     1       2.748  -4.955   4.746  0.00  0.00    -0.050 A 
ATOM     32  C   UNL     1       2.171  -3.846   4.155  0.00  0.00    +0.004 A 
ATOM     33  C   UNL     1       1.498  -3.975   2.954  0.00  0.00    +0.006 A 
ATOM     34  C   UNL     1       1.403  -5.212   2.344  0.00  0.00    -0.027 A 
ATOM     35  C   UNL     1       1.980  -6.320   2.935  0.00  0.00    -0.046 A 
ATOM     36  C   UNL     1       2.657  -6.191   4.134  0.00  0.00    +0.007 A 
ATOM     37  C   UNL     1       1.876  -7.668   2.270  0.00  0.00    +0.044 C 
ENDBRANCH  29  34
ENDBRANCH  25  29
ENDBRANCH   1  26
TORSDOF 4
