REMARK  Name = ZINC39638788
REMARK  5 active torsions:
REMARK  status: ('A' for Active; 'I' for Inactive)
REMARK    1  A    between atoms: C_5  and  C_7
REMARK    2  A    between atoms: C_7  and  C_8
REMARK    3  A    between atoms: C_8  and  N_9
REMARK    4  A    between atoms: C_10  and  C_12
REMARK    5  A    between atoms: C_23  and  C_25
REMARK                            x       y       z     vdW  Elec       q    Type
REMARK                         _______ _______ _______ _____ _____    ______ ____
ROOT
ATOM      1  C   UNL     1       1.502  -6.993   2.290  0.00  0.00    +0.100 C 
ATOM      2  C   UNL     1       2.788  -7.177   1.453  0.00  0.00    +0.121 C 
ATOM      3  N   UNL     1       3.865  -7.353   2.455  0.00  0.00    -0.296 N 
ATOM      4  C   UNL     1       3.252  -8.193   3.512  0.00  0.00    +0.115 C 
ATOM      5  C   UNL     1       1.810  -7.664   3.639  0.00  0.00    -0.004 C 
ATOM      6  C   UNL     1       0.844  -8.818   3.888  0.00  0.00    -0.010 C 
ATOM      7  C   UNL     1       1.132  -9.432   5.261  0.00  0.00    -0.082 C 
ATOM      8  N   UNL     1       0.978  -8.407   6.300  0.00  0.00    +0.379 N 
ATOM      9  C   UNL     1       1.973  -7.346   6.107  0.00  0.00    -0.082 C 
ATOM     10  C   UNL     1       1.721  -6.643   4.770  0.00  0.00    -0.010 C 
ATOM     11  C   UNL     1       5.120  -6.861   2.415  0.00  0.00    +0.247 C 
ATOM     12  O   UNL     1       5.438  -6.081   1.539  0.00  0.00    -0.270 OA
ATOM     13  H   UNL     1       0.051  -8.011   6.245  0.00  0.00    -0.086 HD
ATOM     14  H   UNL     1       1.108  -8.828   7.207  0.00  0.00    -0.086 HD
ENDROOT
BRANCH  11  15
ATOM     15  C   UNL     1       6.107  -7.270   3.435  0.00  0.00    +0.038 A 
ATOM     16  C   UNL     1       5.920  -8.449   4.159  0.00  0.00    +0.014 A 
ATOM     17  C   UNL     1       6.844  -8.826   5.110  0.00  0.00    +0.022 A 
ATOM     18  C   UNL     1       7.957  -8.037   5.349  0.00  0.00    +0.059 A 
ATOM     19  C   UNL     1       8.149  -6.865   4.635  0.00  0.00    +0.060 A 
ATOM     20  C   UNL     1       7.234  -6.481   3.676  0.00  0.00    +0.034 A 
ATOM     21 CL   UNL     1       9.547  -5.883   4.941  0.00  0.00    -0.082 Cl
ATOM     22 CL   UNL     1       9.116  -8.518   6.549  0.00  0.00    -0.082 Cl
ENDBRANCH  11  15
BRANCH   1  24
ATOM     23  N   UNL     1      -0.047  -5.120   2.749  0.00  0.00    -0.315 N 
ATOM     24  C   UNL     1       1.211  -5.527   2.488  0.00  0.00    +0.218 C 
ATOM     25  O   UNL     1       2.108  -4.715   2.411  0.00  0.00    -0.275 OA
ATOM     26  H   UNL     1      -0.765  -5.770   2.811  0.00  0.00    +0.149 HD
BRANCH  23  27
ATOM     27  C   UNL     1      -0.331  -3.696   2.941  0.00  0.00    +0.109 C 
BRANCH  27  28
ATOM     28  C   UNL     1      -1.823  -3.506   3.222  0.00  0.00    +0.056 C 
BRANCH  28  33
ATOM     29  C   UNL     1      -2.413  -0.164   4.876  0.00  0.00    +0.000 A 
ATOM     30  C   UNL     1      -2.651   0.648   3.782  0.00  0.00    +0.003 A 
ATOM     31  C   UNL     1      -2.622   0.117   2.507  0.00  0.00    +0.038 A 
ATOM     32  C   UNL     1      -2.354  -1.229   2.324  0.00  0.00    +0.127 A 
ATOM     33  C   UNL     1      -2.115  -2.041   3.420  0.00  0.00    -0.011 A 
ATOM     34  C   UNL     1      -2.144  -1.508   4.694  0.00  0.00    +0.006 A 
ATOM     35  F   UNL     1      -2.325  -1.749   1.078  0.00  0.00    -0.205 F 
ENDBRANCH  28  33
ENDBRANCH  27  28
ENDBRANCH  23  27
ENDBRANCH   1  24
TORSDOF 5
