REMARK  Name = ZINC20104160
REMARK  11 active torsions:
REMARK  status: ('A' for Active; 'I' for Inactive)
REMARK    1  A    between atoms: C_1  and  C_2
REMARK    2  A    between atoms: C_2  and  N_3
REMARK    3  A    between atoms: N_6  and  C_9
REMARK    4  A    between atoms: C_9  and  C_10
REMARK    5  A    between atoms: C_10  and  C_11
REMARK    6  A    between atoms: C_11  and  N_12
REMARK    7  A    between atoms: C_13  and  C_15
REMARK    8  A    between atoms: N_25  and  C_36
REMARK    9  A    between atoms: C_26  and  C_28
REMARK   10  A    between atoms: C_31  and  O_34
REMARK   11  A    between atoms: O_34  and  C_35
REMARK                            x       y       z     vdW  Elec       q    Type
REMARK                         _______ _______ _______ _____ _____    ______ ____
ROOT
ATOM      1  C   UNL     1       5.938   7.743   0.604  0.00  0.00    +0.130 C 
ATOM      2  C   UNL     1       5.078   8.395   1.654  0.00  0.00    -0.021 A 
ATOM      3  C   UNL     1       3.737   8.618   1.427  0.00  0.00    +0.005 A 
ATOM      4  C   UNL     1       2.958   9.205   2.409  0.00  0.00    +0.000 A 
ATOM      5  C   UNL     1       3.515   9.569   3.621  0.00  0.00    +0.001 A 
ATOM      6  C   UNL     1       4.859   9.356   3.859  0.00  0.00    +0.013 A 
ATOM      7  C   UNL     1       5.649   8.773   2.871  0.00  0.00    +0.041 A 
ATOM      8  C   UNL     1       7.097   8.565   3.081  0.00  0.00    +0.248 C 
ATOM      9  O   UNL     1       7.577   8.665   4.193  0.00  0.00    -0.270 OA
ATOM     10  N   UNL     1       7.879   8.262   2.027  0.00  0.00    -0.286 N 
ATOM     11  C   UNL     1       7.356   8.306   0.666  0.00  0.00    +0.123 C 
ENDROOT
BRANCH  11  12
ATOM     12  C   UNL     1       7.344   9.734   0.186  0.00  0.00    -0.026 A 
ATOM     13  C   UNL     1       6.932  10.745   1.035  0.00  0.00    +0.009 A 
ATOM     14  C   UNL     1       6.925  12.055   0.598  0.00  0.00    +0.046 A 
ATOM     15  C   UNL     1       7.321  12.356  -0.697  0.00  0.00    +0.120 A 
ATOM     16  C   UNL     1       7.728  11.339  -1.549  0.00  0.00    +0.046 A 
ATOM     17  C   UNL     1       7.739  10.031  -1.106  0.00  0.00    +0.009 A 
BRANCH  15  18
ATOM     18  O   UNL     1       7.309  13.644  -1.131  0.00  0.00    -0.495 OA
ATOM     19  C   UNL     1       6.878  14.638  -0.199  0.00  0.00    +0.277 C 
ENDBRANCH  15  18
ENDBRANCH  11  12
BRANCH  10  20
ATOM     20  C   UNL     1       9.277   7.885   2.251  0.00  0.00    +0.077 C 
ATOM     21  C   UNL     1       9.332   6.635   3.133  0.00  0.00    +0.022 C 
ATOM     22  C   UNL     1      10.792   6.241   3.367  0.00  0.00    +0.002 C 
ATOM     23  C   UNL     1      11.525   7.389   4.064  0.00  0.00    +0.000 C 
ATOM     24  C   UNL     1      11.469   8.639   3.182  0.00  0.00    +0.002 C 
ATOM     25  C   UNL     1      10.010   9.033   2.948  0.00  0.00    +0.022 C 
ENDBRANCH  10  20
BRANCH   1  27
ATOM     26  N   UNL     1       4.838   5.540   0.829  0.00  0.00    -0.315 N 
ATOM     27  C   UNL     1       5.979   6.256   0.843  0.00  0.00    +0.223 C 
ATOM     28  O   UNL     1       7.039   5.704   1.049  0.00  0.00    -0.275 OA
ATOM     29  H   UNL     1       3.876   6.040   0.642  0.00  0.00    +0.149 HD
BRANCH  26  30
ATOM     30  C   UNL     1       4.878   4.094   1.062  0.00  0.00    +0.105 C 
BRANCH  30  31
ATOM     31  C   UNL     1       3.459   3.526   0.993  0.00  0.00    +0.034 C 
BRANCH  31  32
ATOM     32  C   UNL     1       3.501   2.017   1.237  0.00  0.00    +0.086 C 
BRANCH  32  36
ATOM     33  N   UNL     1       0.002  -0.004   0.002  0.00  0.00    +0.381 N 
ATOM     34  C   UNL     1      -0.018   1.465   0.010  0.00  0.00    -0.063 C 
ATOM     35  C   UNL     1       1.419   1.992  -0.001  0.00  0.00    +0.066 C 
ATOM     36  N   UNL     1       2.138   1.472   1.171  0.00  0.00    -0.306 NA
ATOM     37  C   UNL     1       2.158   0.003   1.162  0.00  0.00    +0.066 C 
ATOM     38  C   UNL     1       0.721  -0.525   1.173  0.00  0.00    -0.063 C 
ATOM     39  H   UNL     1       0.540  -0.332  -0.900  0.00  0.00    -0.082 HD
BRANCH  33  41
ATOM     40  C   UNL     1      -1.296  -2.055  -0.321  0.00  0.00    -0.017 C 
ATOM     41  C   UNL     1      -1.361  -0.549  -0.064  0.00  0.00    -0.082 C 
ENDBRANCH  33  41
ENDBRANCH  32  36
ENDBRANCH  31  32
ENDBRANCH  30  31
ENDBRANCH  26  30
ENDBRANCH   1  27
TORSDOF 9
