REMARK  Name = ZINC09010006
REMARK  5 active torsions:
REMARK  status: ('A' for Active; 'I' for Inactive)
REMARK    1  A    between atoms: C_1  and  C_2
REMARK    2  A    between atoms: C_11  and  N_27
REMARK    3  A    between atoms: N_27  and  C_28
REMARK    4  A    between atoms: C_28  and  C_29
REMARK    5  A    between atoms: C_29  and  N_58
REMARK                            x       y       z     vdW  Elec       q    Type
REMARK                         _______ _______ _______ _____ _____    ______ ____
ROOT
ATOM      1  C   UNL     1      -3.862   6.122  -0.003  0.00  0.00    +0.044 C 
ATOM      2  C   UNL     1      -2.528   5.421   0.000  0.00  0.00    -0.047 A 
ATOM      3  C   UNL     1      -1.360   6.162   0.011  0.00  0.00    +0.005 A 
ATOM      4  C   UNL     1      -0.134   5.523   0.014  0.00  0.00    +0.029 A 
ATOM      5  C   UNL     1      -0.075   4.138   0.006  0.00  0.00    +0.083 A 
ATOM      6  C   UNL     1      -1.252   3.390  -0.005  0.00  0.00    +0.152 A 
ATOM      7  C   UNL     1      -2.477   4.039  -0.008  0.00  0.00    +0.051 A 
ATOM      8  O   UNL     1      -1.203   2.034  -0.017  0.00  0.00    -0.452 OA
ATOM      9  C   UNL     1      -0.017   1.376  -0.009  0.00  0.00    +0.154 A 
ATOM     10  C   UNL     1       0.002  -0.004  -0.016  0.00  0.00    +0.072 A 
ATOM     11  C   UNL     1       1.212  -0.697  -0.014  0.00  0.00    +0.042 A 
ATOM     12  C   UNL     1       2.424   0.006  -0.004  0.00  0.00    +0.056 A 
ATOM     13  C   UNL     1       2.411   1.421   0.004  0.00  0.00    +0.062 A 
ATOM     14  C   UNL     1       1.191   2.099   0.002  0.00  0.00    +0.094 A 
ATOM     15  N   UNL     1       1.162   3.485   0.009  0.00  0.00    -0.349 N 
ATOM     16  H   UNL     1       1.988   3.994   0.017  0.00  0.00    +0.166 HD
ATOM     17  C   UNL     1       3.676   2.168   0.016  0.00  0.00    +0.197 A 
ATOM     18  O   UNL     1       3.666   3.385   0.022  0.00  0.00    -0.287 OA
ATOM     19  C   UNL     1       4.961   1.439   0.018  0.00  0.00    +0.033 A 
ATOM     20  C   UNL     1       6.166   2.138   0.028  0.00  0.00    +0.012 A 
ATOM     21  C   UNL     1       7.363   1.447   0.029  0.00  0.00    +0.001 A 
ATOM     22  C   UNL     1       7.374   0.063   0.021  0.00  0.00    +0.001 A 
ATOM     23  C   UNL     1       6.188  -0.647   0.011  0.00  0.00    +0.012 A 
ATOM     24  C   UNL     1       4.972   0.033   0.010  0.00  0.00    +0.033 A 
ATOM     25  C   UNL     1       3.699  -0.717  -0.002  0.00  0.00    +0.196 A 
ATOM     26  O   UNL     1       3.709  -1.934  -0.009  0.00  0.00    -0.287 OA
ENDROOT
BRANCH  11  27
ATOM     27  N   UNL     1       1.216  -2.083  -0.021  0.00  0.00    -0.345 N 
ATOM     28  H   UNL     1       2.053  -2.565  -0.106  0.00  0.00    +0.146 HD
BRANCH  27  29
ATOM     29  C   UNL     1      -0.045  -2.819   0.098  0.00  0.00    +0.083 C 
BRANCH  29  30
ATOM     30  C   UNL     1       0.237  -4.323   0.063  0.00  0.00    -0.060 C 
BRANCH  30  35
ATOM     31  C   UNL     1      -2.013  -4.595  -0.826  0.00  0.00    -0.079 C 
ATOM     32  C   UNL     1      -3.015  -5.774  -0.912  0.00  0.00    -0.020 C 
ATOM     33  C   UNL     1      -2.102  -7.014  -0.778  0.00  0.00    -0.020 C 
ATOM     34  C   UNL     1      -0.826  -6.502  -0.085  0.00  0.00    -0.079 C 
ATOM     35  N   UNL     1      -1.046  -5.078   0.173  0.00  0.00    +0.381 N 
ATOM     36  H   UNL     1      -1.431  -4.953   1.117  0.00  0.00    -0.082 HD
ENDBRANCH  30  35
ENDBRANCH  29  30
ENDBRANCH  27  29
ENDBRANCH  11  27
TORSDOF 4
