REMARK  Name = ZINC35547089
REMARK  9 active torsions:
REMARK  status: ('A' for Active; 'I' for Inactive)
REMARK    1  A    between atoms: C_1  and  C_2
REMARK    2  A    between atoms: C_2  and  N_3
REMARK    3  A    between atoms: N_3  and  C_4
REMARK    4  A    between atoms: C_4  and  C_6
REMARK    5  A    between atoms: C_4  and  C_13
REMARK    6  A    between atoms: C_14  and  C_22
REMARK    7  A    between atoms: C_15  and  C_21
REMARK    8  A    between atoms: C_17  and  C_20
REMARK    9  A    between atoms: C_18  and  C_19
REMARK                            x       y       z     vdW  Elec       q    Type
REMARK                         _______ _______ _______ _____ _____    ______ ____
ROOT
ATOM      1  C   UNL     1      -1.507  -2.871   0.720  0.00  0.00    -0.009 C 
ENDROOT
BRANCH   1   2
ATOM      2  C   UNL     1      -2.694  -2.745  -0.200  0.00  0.00    -0.051 A 
ATOM      3  C   UNL     1      -3.801  -2.018   0.196  0.00  0.00    -0.045 A 
ATOM      4  C   UNL     1      -4.890  -1.903  -0.648  0.00  0.00    -0.047 A 
ATOM      5  C   UNL     1      -4.872  -2.515  -1.888  0.00  0.00    +0.007 A 
ATOM      6  C   UNL     1      -3.764  -3.241  -2.284  0.00  0.00    -0.047 A 
ATOM      7  C   UNL     1      -2.674  -3.353  -1.442  0.00  0.00    -0.045 A 
ATOM      8  C   UNL     1      -1.464  -4.140  -1.876  0.00  0.00    +0.044 C 
ATOM      9  C   UNL     1      -3.744  -3.908  -3.635  0.00  0.00    +0.044 C 
ATOM     10  C   UNL     1      -6.097  -1.111  -0.216  0.00  0.00    +0.044 C 
ATOM     11  C   UNL     1      -3.821  -1.351   1.547  0.00  0.00    +0.044 C 
ENDBRANCH   1   2
BRANCH   1  12
ATOM     12  C   UNL     1      -1.327  -1.586   1.487  0.00  0.00    -0.056 A 
ATOM     13  C   UNL     1      -1.123  -0.399   0.808  0.00  0.00    +0.002 A 
ATOM     14  C   UNL     1      -0.958   0.780   1.511  0.00  0.00    +0.001 A 
ATOM     15  C   UNL     1      -0.998   0.772   2.893  0.00  0.00    +0.014 A 
ATOM     16  C   UNL     1      -1.203  -0.415   3.572  0.00  0.00    +0.014 A 
ATOM     17  C   UNL     1      -1.373  -1.594   2.868  0.00  0.00    +0.016 A 
ATOM     18  I   UNL     1      -1.263  -0.428   5.666  0.00  0.00    -0.044 I 
ENDBRANCH   1  12
BRANCH   1  19
ATOM     19  N   UNL     1      -0.300  -3.141  -0.073  0.00  0.00    +0.386 N 
ATOM     20  H   UNL     1      -0.281  -2.529  -0.875  0.00  0.00    -0.085 HD
ATOM     21  H   UNL     1      -0.308  -4.101  -0.382  0.00  0.00    -0.085 HD
BRANCH  19  23
ATOM     22  C   UNL     1       2.149  -3.183  -0.073  0.00  0.00    -0.017 C 
ATOM     23  C   UNL     1       0.892  -2.902   0.753  0.00  0.00    -0.085 C 
ENDBRANCH  19  23
ENDBRANCH   1  19
TORSDOF 4
