REMARK  Name = ZINC15708548
REMARK  8 active torsions:
REMARK  status: ('A' for Active; 'I' for Inactive)
REMARK    1  A    between atoms: C_3  and  C_6
REMARK    2  A    between atoms: C_6  and  N_7
REMARK    3  A    between atoms: N_7  and  C_8
REMARK    4  A    between atoms: C_8  and  N_10
REMARK    5  A    between atoms: N_10  and  C_11
REMARK    6  A    between atoms: C_20  and  C_23
REMARK    7  A    between atoms: C_23  and  C_24
REMARK    8  A    between atoms: C_24  and  C_25
REMARK                            x       y       z     vdW  Elec       q    Type
REMARK                         _______ _______ _______ _____ _____    ______ ____
ROOT
ATOM      1  C   UNL     1       3.339   7.357  -3.301  0.00  0.00    +0.054 C 
ATOM      2  C   UNL     1       3.962   7.361  -4.722  0.00  0.00    +0.014 C 
ATOM      3  C   UNL     1       3.496   8.687  -5.325  0.00  0.00    +0.021 C 
ATOM      4  C   UNL     1       3.231   8.674  -6.794  0.00  0.00    +0.200 C 
ATOM      5  O   UNL     1       3.890   7.972  -7.532  0.00  0.00    -0.278 OA
ATOM      6  N   UNL     1       2.250   9.453  -7.290  0.00  0.00    -0.318 N 
ATOM      7  C   UNL     1       1.324  10.233  -6.479  0.00  0.00    +0.089 C 
ATOM      8  C   UNL     1       1.739  10.272  -5.001  0.00  0.00    -0.050 C 
ATOM      9  C   UNL     1       2.490   8.657  -3.234  0.00  0.00    -0.055 C 
ATOM     10  H   UNL     1       2.153   9.498  -8.254  0.00  0.00    +0.149 HD
ATOM     11  N   UNL     1       2.236   8.896  -4.678  0.00  0.00    +0.391 N 
ATOM     12  H   UNL     1       1.546   8.214  -5.016  0.00  0.00    -0.080 HD
ENDROOT
BRANCH   1  13
ATOM     13  N   UNL     1       2.484   6.181  -3.123  0.00  0.00    -0.326 N 
ATOM     14  H   UNL     1       2.120   5.723  -3.897  0.00  0.00    +0.148 HD
BRANCH  13  15
ATOM     15  C   UNL     1       2.202   5.734  -1.883  0.00  0.00    +0.131 C 
ATOM     16  S   UNL     1       2.844   6.541  -0.516  0.00  0.00    -0.019 S 
BRANCH  15  17
ATOM     17  N   UNL     1       1.416   4.652  -1.719  0.00  0.00    -0.319 N 
ATOM     18  H   UNL     1       1.052   4.195  -2.493  0.00  0.00    +0.148 HD
BRANCH  17  19
ATOM     19  C   UNL     1       1.110   4.166  -0.371  0.00  0.00    +0.177 C 
BRANCH  19  22
ATOM     20  C   UNL     1      -0.527   0.873  -0.613  0.00  0.00    +0.041 A 
ATOM     21  C   UNL     1       0.633   1.677  -0.545  0.00  0.00    +0.046 A 
ATOM     22  C   UNL     1       0.219   2.954  -0.464  0.00  0.00    +0.122 A 
ATOM     23  O   UNL     1      -1.124   2.966  -0.479  0.00  0.00    -0.466 OA
ATOM     24  C   UNL     1      -1.582   1.707  -0.575  0.00  0.00    +0.195 A 
ENDBRANCH  19  22
ENDBRANCH  17  19
ENDBRANCH  15  17
ENDBRANCH  13  15
ENDBRANCH   1  13
BRANCH   8  25
ATOM     25  C   UNL     1       0.540  10.660  -4.134  0.00  0.00    -0.005 C 
BRANCH  25  26
ATOM     26  C   UNL     1       0.150  12.111  -4.422  0.00  0.00    +0.094 C 
BRANCH  26  27
ATOM     27  C   UNL     1      -0.951  12.532  -3.483  0.00  0.00    +0.216 C 
ATOM     28  O   UNL     1      -1.381  11.748  -2.664  0.00  0.00    -0.276 OA
ATOM     29  N   UNL     1      -1.457  13.779  -3.554  0.00  0.00    -0.301 N 
ATOM     30  C   UNL     1      -0.941  14.742  -4.536  0.00  0.00    +0.108 C 
ATOM     31  C   UNL     1      -2.123  15.288  -5.351  0.00  0.00    +0.019 C 
ATOM     32  C   UNL     1      -3.171  15.865  -4.396  0.00  0.00    +0.003 C 
ATOM     33  C   UNL     1      -3.691  14.758  -3.477  0.00  0.00    +0.019 C 
ATOM     34  C   UNL     1      -2.530  14.203  -2.645  0.00  0.00    +0.108 C 
ENDBRANCH  26  27
ENDBRANCH  25  26
ENDBRANCH   8  25
TORSDOF 8
