REMARK  Name = ZINC20899160
REMARK  4 active torsions:
REMARK  status: ('A' for Active; 'I' for Inactive)
REMARK    1  A    between atoms: C_1  and  O_2
REMARK    2  A    between atoms: O_2  and  C_3
REMARK    3  A    between atoms: C_8  and  N_9
REMARK    4  A    between atoms: C_27  and  C_30
REMARK                            x       y       z     vdW  Elec       q    Type
REMARK                         _______ _______ _______ _____ _____    ______ ____
ROOT
ATOM      1  N   UNL     1      -0.028  -2.428   0.208  0.00  0.00    -0.186 N 
ATOM      2  C   UNL     1      -1.325  -2.787   0.126  0.00  0.00    +0.265 C 
ATOM      3  O   UNL     1      -2.111  -2.144  -0.545  0.00  0.00    -0.269 OA
ATOM      4  C   UNL     1      -1.766  -3.980   0.870  0.00  0.00    +0.117 C 
ATOM      5  C   UNL     1      -0.746  -4.696   1.655  0.00  0.00    +0.258 C 
ATOM      6  N   UNL     1       0.517  -4.221   1.644  0.00  0.00    -0.235 N 
ATOM      7  C   UNL     1       0.849  -3.131   0.938  0.00  0.00    +0.320 C 
ATOM      8  O   UNL     1       2.005  -2.757   0.967  0.00  0.00    -0.251 OA
ATOM      9  O   UNL     1      -1.034  -5.689   2.296  0.00  0.00    -0.270 OA
ATOM     10  C   UNL     1      -3.081  -4.408   0.833  0.00  0.00    +0.027 C 
ATOM     11  N   UNL     1      -3.776  -3.961  -0.153  0.00  0.00    -0.316 N 
ATOM     12  C   UNL     1      -5.069  -3.847  -0.586  0.00  0.00    +0.045 A 
ATOM     13  C   UNL     1      -5.244  -2.984  -1.682  0.00  0.00    +0.024 A 
ATOM     14  C   UNL     1      -6.480  -2.761  -2.237  0.00  0.00    +0.002 A 
ATOM     15  C   UNL     1      -7.591  -3.397  -1.712  0.00  0.00    +0.001 A 
ATOM     16  C   UNL     1      -7.439  -4.244  -0.641  0.00  0.00    +0.016 A 
ATOM     17  C   UNL     1      -6.184  -4.484  -0.063  0.00  0.00    +0.030 A 
ATOM     18  S   UNL     1      -6.151  -5.587   1.291  0.00  0.00    -0.114 S 
ATOM     19  C   UNL     1      -4.878  -5.049   2.424  0.00  0.00    +0.094 C 
ATOM     20  C   UNL     1      -3.481  -5.322   1.937  0.00  0.00    +0.071 C 
ATOM     21  H   UNL     1       1.201  -4.681   2.156  0.00  0.00    +0.159 HD
ATOM     22  H   UNL     1      -3.182  -3.573  -0.814  0.00  0.00    +0.152 HD
ENDROOT
BRANCH   1  28
ATOM     23  C   UNL     1       0.390  -0.043   0.117  0.00  0.00    +0.142 A 
ATOM     24  C   UNL     1       0.835   1.070  -0.577  0.00  0.00    +0.047 A 
ATOM     25  C   UNL     1       1.297   0.939  -1.873  0.00  0.00    +0.004 A 
ATOM     26  C   UNL     1       1.317  -0.303  -2.481  0.00  0.00    +0.002 A 
ATOM     27  C   UNL     1       0.875  -1.419  -1.795  0.00  0.00    +0.028 A 
ATOM     28  C   UNL     1       0.415  -1.295  -0.492  0.00  0.00    +0.087 A 
BRANCH  23  30
ATOM     29  C   UNL     1      -0.063   1.399   1.953  0.00  0.00    +0.277 C 
ATOM     30  O   UNL     1      -0.065   0.085   1.392  0.00  0.00    -0.493 OA
ENDBRANCH  23  30
ENDBRANCH   1  28
BRANCH  19  31
ATOM     31  C   UNL     1      -5.074  -5.759   3.739  0.00  0.00    +0.003 A 
ATOM     32  C   UNL     1      -5.311  -5.233   4.965  0.00  0.00    +0.012 A 
ATOM     33  C   UNL     1      -5.459  -6.086   6.043  0.00  0.00    +0.008 A 
ATOM     34  C   UNL     1      -5.363  -7.423   5.841  0.00  0.00    +0.045 A 
ATOM     35  S   UNL     1      -5.060  -7.510   4.084  0.00  0.00    -0.100 S 
ENDBRANCH  19  31
TORSDOF 3
