REMARK  Name = ZINC36822341
REMARK  10 active torsions:
REMARK  status: ('A' for Active; 'I' for Inactive)
REMARK    1  A    between atoms: C_1  and  C_2
REMARK    2  A    between atoms: C_2  and  N_3
REMARK    3  A    between atoms: N_3  and  C_4
REMARK    4  A    between atoms: C_4  and  C_5
REMARK    5  A    between atoms: C_6  and  C_8
REMARK    6  A    between atoms: C_11  and  N_14
REMARK    7  A    between atoms: C_15  and  C_17
REMARK    8  A    between atoms: C_17  and  N_18
REMARK    9  A    between atoms: C_21  and  C_25
REMARK   10  A    between atoms: C_21  and  C_26
REMARK                            x       y       z     vdW  Elec       q    Type
REMARK                         _______ _______ _______ _____ _____    ______ ____
ROOT
ATOM      1  C   UNL     1      -7.476  -5.671   4.931  0.00  0.00    +0.214 C 
ENDROOT
BRANCH   1   2
ATOM      2  N   UNL     1      -7.469  -5.714   6.395  0.00  0.00    -0.215 N 
ATOM      3  C   UNL     1      -6.677  -6.525   7.125  0.00  0.00    +0.251 C 
ATOM      4  O   UNL     1      -5.868  -7.326   6.709  0.00  0.00    -0.272 OA
ATOM      5  C   UNL     1      -7.009  -6.227   8.573  0.00  0.00    +0.136 C 
ATOM      6  N   UNL     1      -8.046  -5.184   8.483  0.00  0.00    -0.281 N 
ATOM      7  C   UNL     1      -8.243  -4.949   7.174  0.00  0.00    +0.310 C 
ATOM      8  O   UNL     1      -9.037  -4.135   6.745  0.00  0.00    -0.252 OA
ATOM      9  C   UNL     1      -5.777  -5.698   9.310  0.00  0.00    +0.047 C 
ATOM     10  H   UNL     1      -8.497  -4.750   9.224  0.00  0.00    +0.152 HD
BRANCH   5  11
ATOM     11  C   UNL     1      -7.551  -7.455   9.258  0.00  0.00    +0.003 A 
ATOM     12  C   UNL     1      -8.822  -7.441   9.799  0.00  0.00    +0.009 A 
ATOM     13  C   UNL     1      -9.319  -8.568  10.427  0.00  0.00    +0.020 A 
ATOM     14  C   UNL     1      -8.544  -9.711  10.513  0.00  0.00    +0.042 A 
ATOM     15  C   UNL     1      -7.272  -9.726   9.971  0.00  0.00    +0.040 A 
ATOM     16  C   UNL     1      -6.777  -8.599   9.338  0.00  0.00    +0.048 A 
ATOM     17 CL   UNL     1      -5.182  -8.619   8.652  0.00  0.00    -0.083 Cl
ATOM     18 CL   UNL     1      -9.169 -11.126  11.302  0.00  0.00    -0.083 Cl
ENDBRANCH   5  11
ENDBRANCH   1   2
BRANCH   1  20
ATOM     19  N   UNL     1      -6.300  -4.446   3.133  0.00  0.00    -0.284 N 
ATOM     20  C   UNL     1      -6.468  -4.658   4.453  0.00  0.00    +0.235 C 
ATOM     21  O   UNL     1      -5.809  -4.033   5.257  0.00  0.00    -0.274 OA
ATOM     22  H   UNL     1      -6.881  -4.886   2.493  0.00  0.00    +0.155 HD
BRANCH  19  26
ATOM     23  C   UNL     1      -3.282  -1.902   1.800  0.00  0.00    +0.037 A 
ATOM     24  C   UNL     1      -3.098  -2.659   2.960  0.00  0.00    +0.015 A 
ATOM     25  C   UNL     1      -4.098  -3.499   3.398  0.00  0.00    +0.024 A 
ATOM     26  C   UNL     1      -5.290  -3.594   2.687  0.00  0.00    +0.033 A 
ATOM     27  C   UNL     1      -5.476  -2.842   1.531  0.00  0.00    +0.024 A 
ATOM     28  C   UNL     1      -4.483  -1.996   1.091  0.00  0.00    +0.015 A 
BRANCH  23  30
ATOM     29  N   UNL     1      -0.924  -1.389   1.398  0.00  0.00    -0.298 N 
ATOM     30  C   UNL     1      -2.213  -1.001   1.327  0.00  0.00    +0.247 C 
ATOM     31  O   UNL     1      -2.495   0.091   0.874  0.00  0.00    -0.270 OA
BRANCH  29  33
ATOM     32  C   UNL     1       0.432  -0.663  -0.503  0.00  0.00    +0.024 C 
ATOM     33  C   UNL     1       0.141  -0.471   0.987  0.00  0.00    +0.104 C 
ENDBRANCH  29  33
BRANCH  29  34
ATOM     34  C   UNL     1      -0.589  -2.729   1.887  0.00  0.00    +0.104 C 
ATOM     35  C   UNL     1      -0.098  -2.636   3.333  0.00  0.00    +0.024 C 
ENDBRANCH  29  34
ENDBRANCH  23  30
ENDBRANCH  19  26
ENDBRANCH   1  20
TORSDOF 7
