REMARK  Name = ZINC22864282
REMARK  4 active torsions:
REMARK  status: ('A' for Active; 'I' for Inactive)
REMARK    1  A    between atoms: N_9  and  N_13
REMARK    2  A    between atoms: C_14  and  C_16
REMARK    3  A    between atoms: C_16  and  S_17
REMARK    4  A    between atoms: S_17  and  C_18
REMARK                            x       y       z     vdW  Elec       q    Type
REMARK                         _______ _______ _______ _____ _____    ______ ____
ROOT
ATOM      1  C   UNL     1      -0.879  -2.547  -0.588  0.00  0.00    +0.174 C 
ENDROOT
BRANCH   1   3
ATOM      2  N   UNL     1      -1.803  -4.811  -0.961  0.00  0.00    -0.223 N 
ATOM      3  C   UNL     1      -2.033  -3.494  -0.799  0.00  0.00    +0.240 C 
ATOM      4  O   UNL     1      -3.169  -3.069  -0.823  0.00  0.00    -0.273 OA
ATOM      5  H   UNL     1      -0.773  -5.197  -0.939  0.00  0.00    +0.174 HD
BRANCH   2  14
ATOM      6  C   UNL     1      -6.504  -8.951  -2.928  0.00  0.00    +0.000 C 
ATOM      7  C   UNL     1      -6.819  -7.494  -2.584  0.00  0.00    +0.003 C 
ATOM      8  C   UNL     1      -5.598  -6.623  -2.892  0.00  0.00    +0.035 C 
ATOM      9  C   UNL     1      -4.405  -7.109  -2.076  0.00  0.00    +0.114 C 
ATOM     10  C   UNL     1      -4.094  -8.569  -2.390  0.00  0.00    +0.035 C 
ATOM     11  C   UNL     1      -5.321  -9.432  -2.084  0.00  0.00    +0.003 C 
ATOM     12  C   UNL     1      -3.195  -6.244  -2.345  0.00  0.00    +0.263 C 
ATOM     13  O   UNL     1      -2.630  -6.082  -3.406  0.00  0.00    -0.271 OA
ATOM     14  N   UNL     1      -2.876  -5.691  -1.157  0.00  0.00    -0.137 N 
ATOM     15  C   UNL     1      -3.708  -6.091  -0.188  0.00  0.00    +0.326 C 
ATOM     16  O   UNL     1      -3.619  -5.732   0.970  0.00  0.00    -0.251 OA
ATOM     17  N   UNL     1      -4.656  -6.934  -0.640  0.00  0.00    -0.284 N 
ATOM     18  H   UNL     1      -5.498  -7.455  -0.161  0.00  0.00    +0.151 HD
ENDBRANCH   2  14
ENDBRANCH   1   3
BRANCH   1  19
ATOM     19  S   UNL     1      -1.508  -0.860  -0.404  0.00  0.00    -0.077 S 
BRANCH  19  20
ATOM     20  C   UNL     1       0.008   0.009  -0.177  0.00  0.00    +0.191 A 
ATOM     21  N   UNL     1       1.152  -0.665  -0.186  0.00  0.00    -0.207 NA
ATOM     22  C   UNL     1       2.320  -0.068  -0.020  0.00  0.00    +0.129 A 
ATOM     23  C   UNL     1       2.360   1.341   0.174  0.00  0.00    +0.051 A 
ATOM     24  C   UNL     1       3.526   2.205   0.377  0.00  0.00    -0.025 A 
ATOM     25  C   UNL     1       3.290   3.523   0.536  0.00  0.00    -0.004 A 
ATOM     26  S   UNL     1       1.529   3.694   0.430  0.00  0.00    -0.073 S 
ATOM     27  C   UNL     1       1.109   1.990   0.171  0.00  0.00    +0.115 A 
ATOM     28  N   UNL     1      -0.015   1.323  -0.001  0.00  0.00    -0.214 NA
ATOM     29  C   UNL     1       4.302   4.606   0.757  0.00  0.00    +0.043 C 
ATOM     30  C   UNL     1       5.635   3.951   1.149  0.00  0.00    +0.005 C 
ATOM     31  C   UNL     1       5.927   2.811   0.169  0.00  0.00    +0.005 C 
ATOM     32  C   UNL     1       4.950   1.659   0.407  0.00  0.00    +0.037 C 
ATOM     33  N   UNL     1       3.491  -0.805  -0.035  0.00  0.00    -0.343 N 
ATOM     34  H   UNL     1       4.459  -0.302   0.103  0.00  0.00    +0.144 HD
ATOM     35  H   UNL     1       3.453  -1.894  -0.186  0.00  0.00    +0.144 HD
ENDBRANCH  19  20
ENDBRANCH   1  19
TORSDOF 4
