REMARK  Name = ZINC21384679
REMARK  8 active torsions:
REMARK  status: ('A' for Active; 'I' for Inactive)
REMARK    1  A    between atoms: C_1  and  C_2
REMARK    2  A    between atoms: C_2  and  N_3
REMARK    3  A    between atoms: N_3  and  C_4
REMARK    4  A    between atoms: N_3  and  C_11
REMARK    5  A    between atoms: C_4  and  C_5
REMARK    6  A    between atoms: C_12  and  N_27
REMARK    7  A    between atoms: N_13  and  C_20
REMARK    8  A    between atoms: C_20  and  C_21
REMARK                            x       y       z     vdW  Elec       q    Type
REMARK                         _______ _______ _______ _____ _____    ______ ____
ROOT
ATOM      1  C   UNL     1      -4.227   1.293   1.455  0.00  0.00    +0.134 A 
ATOM      2  C   UNL     1      -4.363   0.101   2.113  0.00  0.00    +0.127 A 
ATOM      3  N   UNL     1      -5.594  -0.515   2.147  0.00  0.00    -0.276 N 
ATOM      4  C   UNL     1      -6.651   0.043   1.530  0.00  0.00    +0.331 A 
ATOM      5  O   UNL     1      -7.730  -0.517   1.567  0.00  0.00    -0.246 OA
ATOM      6  N   UNL     1      -6.534   1.212   0.874  0.00  0.00    -0.273 N 
ATOM      7  H   UNL     1      -7.410   1.653   0.376  0.00  0.00    +0.173 HD
ATOM      8  C   UNL     1      -5.350   1.853   0.819  0.00  0.00    +0.277 A 
ATOM      9  O   UNL     1      -5.253   2.912   0.222  0.00  0.00    -0.266 OA
ENDROOT
BRANCH   2  10
ATOM     10  N   UNL     1      -3.281  -0.474   2.740  0.00  0.00    -0.343 N 
ATOM     11  H   UNL     1      -3.396  -1.432   3.268  0.00  0.00    +0.144 HD
ATOM     12  H   UNL     1      -2.301   0.025   2.713  0.00  0.00    +0.144 HD
ENDBRANCH   2  10
BRANCH   1  13
ATOM     13  N   UNL     1      -2.975   1.949   1.409  0.00  0.00    -0.317 N 
BRANCH  13  15
ATOM     14  C   UNL     1      -3.272   3.017   3.592  0.00  0.00    +0.024 C 
ATOM     15  C   UNL     1      -3.035   3.245   2.098  0.00  0.00    +0.102 C 
ENDBRANCH  13  15
BRANCH  13  16
ATOM     16  C   UNL     1      -2.516   2.110   0.023  0.00  0.00    +0.164 C 
BRANCH  16  17
ATOM     17  C   UNL     1      -1.085   2.584   0.020  0.00  0.00    +0.108 A 
ATOM     18  C   UNL     1      -0.021   1.732   0.012  0.00  0.00    +0.123 A 
ATOM     19  S   UNL     1       1.301   2.851   0.005  0.00  0.00    +0.049 S 
ATOM     20  N   UNL     1       0.486   4.203   0.020  0.00  0.00    -0.109 NA
ATOM     21  N   UNL     1      -0.751   3.857   0.030  0.00  0.00    -0.143 NA
ATOM     22 CL   UNL     1       0.002  -0.004   0.002  0.00  0.00    -0.072 Cl
ENDBRANCH  16  17
ENDBRANCH  13  16
ENDBRANCH   1  13
BRANCH   3  23
ATOM     23  C   UNL     1      -5.751  -1.789   2.853  0.00  0.00    +0.163 C 
BRANCH  23  24
ATOM     24  C   UNL     1      -5.481  -2.927   1.903  0.00  0.00    -0.028 A 
ATOM     25  C   UNL     1      -6.516  -3.476   1.170  0.00  0.00    +0.005 A 
ATOM     26  C   UNL     1      -6.267  -4.517   0.295  0.00  0.00    +0.000 A 
ATOM     27  C   UNL     1      -4.985  -5.016   0.161  0.00  0.00    +0.000 A 
ATOM     28  C   UNL     1      -3.950  -4.470   0.898  0.00  0.00    +0.000 A 
ATOM     29  C   UNL     1      -4.199  -3.425   1.769  0.00  0.00    +0.005 A 
ENDBRANCH  23  24
ENDBRANCH   3  23
TORSDOF 7
