REMARK  Name = ZINC39683655
REMARK  9 active torsions:
REMARK  status: ('A' for Active; 'I' for Inactive)
REMARK    1  A    between atoms: C_1  and  O_2
REMARK    2  A    between atoms: O_2  and  C_3
REMARK    3  A    between atoms: C_6  and  C_11
REMARK    4  A    between atoms: C_8  and  O_9
REMARK    5  A    between atoms: O_9  and  C_10
REMARK    6  A    between atoms: C_15  and  C_24
REMARK    7  A    between atoms: N_26  and  C_27
REMARK    8  A    between atoms: C_27  and  C_28
REMARK    9  A    between atoms: C_28  and  C_29
REMARK                            x       y       z     vdW  Elec       q    Type
REMARK                         _______ _______ _______ _____ _____    ______ ____
ROOT
ATOM      1  C   UNL     1       2.575  -2.533   4.292  0.00  0.00    +0.247 C 
ATOM      2  O   UNL     1       2.538  -3.743   4.397  0.00  0.00    -0.270 OA
ATOM      3  N   UNL     1       3.222  -1.796   5.217  0.00  0.00    -0.296 N 
ATOM      4  C   UNL     1       3.270  -0.319   5.331  0.00  0.00    +0.121 C 
ATOM      5  C   UNL     1       3.187  -0.042   6.849  0.00  0.00    +0.100 C 
ATOM      6  C   UNL     1       3.699  -1.331   7.512  0.00  0.00    -0.004 C 
ATOM      7  C   UNL     1       4.041  -2.280   6.354  0.00  0.00    +0.115 C 
ATOM      8  C   UNL     1       2.610  -1.945   8.385  0.00  0.00    -0.010 C 
ATOM      9  C   UNL     1       3.161  -3.194   9.079  0.00  0.00    -0.082 C 
ATOM     10  N   UNL     1       4.324  -2.829   9.897  0.00  0.00    +0.379 N 
ATOM     11  C   UNL     1       5.402  -2.325   9.038  0.00  0.00    -0.082 C 
ATOM     12  C   UNL     1       4.945  -1.039   8.343  0.00  0.00    -0.010 C 
ATOM     13  H   UNL     1       4.058  -2.112  10.556  0.00  0.00    -0.086 HD
ATOM     14  H   UNL     1       4.648  -3.641  10.400  0.00  0.00    -0.086 HD
ENDROOT
BRANCH   1  18
ATOM     15  C   UNL     1       0.673  -0.620   1.008  0.00  0.00    +0.162 A 
ATOM     16  C   UNL     1       1.729   0.004   1.659  0.00  0.00    +0.050 A 
ATOM     17  C   UNL     1       2.348  -0.613   2.724  0.00  0.00    +0.017 A 
ATOM     18  C   UNL     1       1.913  -1.870   3.152  0.00  0.00    +0.041 A 
ATOM     19  C   UNL     1       0.850  -2.498   2.498  0.00  0.00    +0.062 A 
ATOM     20  C   UNL     1       0.231  -1.872   1.434  0.00  0.00    +0.162 A 
BRANCH  15  22
ATOM     21  C   UNL     1       0.570   1.274  -0.424  0.00  0.00    +0.277 C 
ATOM     22  O   UNL     1       0.066  -0.008  -0.041  0.00  0.00    -0.491 OA
ENDBRANCH  15  22
BRANCH  20  23
ATOM     23  O   UNL     1      -0.807  -2.478   0.798  0.00  0.00    -0.491 OA
ATOM     24  C   UNL     1      -1.208  -3.760   1.287  0.00  0.00    +0.277 C 
ENDBRANCH  20  23
ENDBRANCH   1  18
BRANCH   5  25
ATOM     25  C   UNL     1       4.065   1.126   7.218  0.00  0.00    +0.218 C 
ATOM     26  O   UNL     1       5.019   1.409   6.525  0.00  0.00    -0.275 OA
ATOM     27  N   UNL     1       3.790   1.855   8.317  0.00  0.00    -0.315 N 
ATOM     28  H   UNL     1       3.026   1.629   8.871  0.00  0.00    +0.149 HD
BRANCH  27  29
ATOM     29  C   UNL     1       4.644   2.990   8.676  0.00  0.00    +0.109 C 
BRANCH  29  30
ATOM     30  C   UNL     1       4.116   3.642   9.956  0.00  0.00    +0.055 C 
BRANCH  30  31
ATOM     31  C   UNL     1       4.994   4.809  10.325  0.00  0.00    -0.032 A 
ATOM     32  C   UNL     1       6.029   4.639  11.225  0.00  0.00    +0.005 A 
ATOM     33  C   UNL     1       6.835   5.709  11.563  0.00  0.00    +0.000 A 
ATOM     34  C   UNL     1       6.606   6.952  11.001  0.00  0.00    +0.001 A 
ATOM     35  C   UNL     1       5.572   7.123  10.100  0.00  0.00    +0.015 A 
ATOM     36  C   UNL     1       4.768   6.051   9.758  0.00  0.00    +0.021 A 
ATOM     37 BR   UNL     1       3.357   6.283   8.521  0.00  0.00    -0.050 Br
ENDBRANCH  30  31
ENDBRANCH  29  30
ENDBRANCH  27  29
ENDBRANCH   5  25
TORSDOF 7
