REMARK  Name = ZINC20504584
REMARK  15 active torsions:
REMARK  status: ('A' for Active; 'I' for Inactive)
REMARK    1  A    between atoms: C_1  and  C_2
REMARK    2  A    between atoms: N_9  and  C_10
REMARK    3  A    between atoms: C_10  and  C_12
REMARK    4  A    between atoms: C_12  and  N_13
REMARK    5  A    between atoms: N_13  and  C_14
REMARK    6  A    between atoms: N_13  and  C_15
REMARK    7  A    between atoms: C_17  and  C_38
REMARK    8  A    between atoms: C_20  and  O_37
REMARK    9  A    between atoms: C_22  and  C_26
REMARK   10  A    between atoms: C_26  and  C_28
REMARK   11  A    between atoms: C_26  and  C_29
REMARK   12  A    between atoms: N_31  and  C_32
REMARK   13  A    between atoms: N_31  and  C_33
REMARK   14  A    between atoms: C_33  and  C_34
REMARK   15  A    between atoms: C_34  and  C_35
REMARK                            x       y       z     vdW  Elec       q    Type
REMARK                         _______ _______ _______ _____ _____    ______ ____
ROOT
ATOM      1  C   UNL     1      -5.346   1.263  -1.009  0.00  0.00    +0.014 C 
ATOM      2  C   UNL     1      -4.371   0.958   0.130  0.00  0.00    +0.039 C 
ATOM      3  C   UNL     1      -5.071   1.161   1.464  0.00  0.00    +0.031 A 
ATOM      4  C   UNL     1      -4.419   1.765   2.491  0.00  0.00    +0.013 A 
ATOM      5  S   UNL     1      -5.633   1.757   3.782  0.00  0.00    -0.057 S 
ATOM      6  C   UNL     1      -6.895   0.969   2.883  0.00  0.00    +0.163 A 
ATOM      7  N   UNL     1      -6.321   0.777   1.713  0.00  0.00    -0.339 N 
ATOM      8  N   UNL     1      -8.178   0.628   3.292  0.00  0.00    -0.158 NA
ATOM      9  C   UNL     1      -3.029   2.294   2.499  0.00  0.00    +0.051 C 
ATOM     10  C   UNL     1      -2.275   1.746   1.272  0.00  0.00    -0.022 C 
ATOM     11  C   UNL     1      -3.163   1.899   0.035  0.00  0.00    +0.033 C 
ATOM     12  C   UNL     1      -2.380   1.515  -1.226  0.00  0.00    +0.123 C 
ATOM     13  C   UNL     1      -1.130   2.382  -1.360  0.00  0.00    +0.029 C 
ATOM     14  C   UNL     1      -0.237   2.151  -0.138  0.00  0.00    +0.007 C 
ATOM     15  C   UNL     1      -0.996   2.580   1.117  0.00  0.00    +0.008 C 
ATOM     16  C   UNL     1      -1.928   0.271   1.487  0.00  0.00    +0.012 C 
ATOM     17  H   UNL     1      -6.911   0.282   0.927  0.00  0.00    +0.167 HD
ENDROOT
BRANCH   8  18
ATOM     18  C   UNL     1      -8.583   0.911   4.546  0.00  0.00    +0.222 C 
ATOM     19  O   UNL     1      -7.827   1.464   5.317  0.00  0.00    -0.276 OA
BRANCH  18  20
ATOM     20  C   UNL     1      -9.975   0.541   4.991  0.00  0.00    +0.020 C 
BRANCH  20  21
ATOM     21  N   UNL     1     -10.169   0.954   6.387  0.00  0.00    +0.382 N 
ATOM     22  C   UNL     1     -10.139   2.417   6.513  0.00  0.00    -0.096 C 
ATOM     23  C   UNL     1     -11.418   0.404   6.930  0.00  0.00    -0.096 C 
ATOM     24  H   UNL     1      -9.335   0.547   6.979  0.00  0.00    -0.082 HD
ENDBRANCH  20  21
ENDBRANCH  18  20
ENDBRANCH   8  18
BRANCH  13  25
ATOM     25  C   UNL     1      -0.371   1.994  -2.631  0.00  0.00    +0.078 C 
ATOM     26  C   UNL     1       0.128   0.553  -2.507  0.00  0.00    +0.017 C 
BRANCH  25  27
ATOM     27  C   UNL     1       0.805   2.918  -2.816  0.00  0.00    +0.219 C 
ATOM     28  O   UNL     1       1.905   2.584  -2.430  0.00  0.00    -0.275 OA
ATOM     29  N   UNL     1       0.634   4.116  -3.410  0.00  0.00    -0.303 N 
ATOM     30  C   UNL     1      -0.670   4.474  -3.973  0.00  0.00    +0.132 C 
BRANCH  29  31
ATOM     31  C   UNL     1       1.752   5.059  -3.492  0.00  0.00    +0.122 C 
BRANCH  31  32
ATOM     32  C   UNL     1       2.530   4.816  -4.786  0.00  0.00    +0.137 C 
BRANCH  32  33
ATOM     33  C   UNL     1       3.654   5.763  -4.869  0.00  0.00    +0.064 C 
ATOM     34  N   UNL     1       4.521   6.495  -4.932  0.00  0.00    -0.197 NA
ENDBRANCH  32  33
ENDBRANCH  31  32
ENDBRANCH  29  31
ENDBRANCH  25  27
ENDBRANCH  13  25
BRANCH  12  35
ATOM     35  O   UNL     1      -3.213   1.706  -2.371  0.00  0.00    -0.391 OA
ATOM     36  H   UNL     1      -2.826   1.483  -3.376  0.00  0.00    +0.210 HD
ENDBRANCH  12  35
TORSDOF 9
