REMARK  Name = ZINC03830385
REMARK  11 active torsions:
REMARK  status: ('A' for Active; 'I' for Inactive)
REMARK    1  A    between atoms: C_1  and  C_2
REMARK    2  A    between atoms: C_4  and  O_41
REMARK    3  A    between atoms: C_6  and  N_64
REMARK    4  A    between atoms: C_9  and  O_12
REMARK    5  A    between atoms: O_12  and  C_13
REMARK    6  A    between atoms: C_16  and  C_37
REMARK    7  A    between atoms: C_16  and  O_40
REMARK    8  A    between atoms: C_20  and  O_36
REMARK    9  A    between atoms: C_23  and  O_24
REMARK   10  A    between atoms: C_31  and  O_35
REMARK   11  A    between atoms: C_37  and  C_39
REMARK                            x       y       z     vdW  Elec       q    Type
REMARK                         _______ _______ _______ _____ _____    ______ ____
ROOT
ATOM      1  C   UNL     1       0.075  -4.333  -2.635  0.00  0.00    +0.158 C 
ATOM      2  C   UNL     1      -0.583  -5.609  -3.154  0.00  0.00    +0.079 C 
ATOM      3  C   UNL     1       0.263  -6.150  -4.314  0.00  0.00    +0.130 C 
ATOM      4  C   UNL     1       1.579  -6.673  -3.744  0.00  0.00    +0.082 C 
ATOM      5  C   UNL     1       2.227  -5.636  -2.864  0.00  0.00    +0.007 A 
ATOM      6  C   UNL     1       1.537  -4.565  -2.353  0.00  0.00    +0.030 A 
ATOM      7  C   UNL     1       2.191  -3.635  -1.534  0.00  0.00    +0.134 A 
ATOM      8  C   UNL     1       3.544  -3.782  -1.234  0.00  0.00    +0.078 A 
ATOM      9  C   UNL     1       4.253  -4.879  -1.762  0.00  0.00    +0.078 A 
ATOM     10  C   UNL     1       3.588  -5.798  -2.573  0.00  0.00    +0.132 A 
ATOM     11  C   UNL     1       5.684  -5.050  -1.457  0.00  0.00    +0.198 C 
ATOM     12  O   UNL     1       6.296  -5.996  -1.912  0.00  0.00    -0.286 OA
ATOM     13  C   UNL     1       6.373  -4.068  -0.594  0.00  0.00    +0.037 A 
ATOM     14  C   UNL     1       7.724  -4.221  -0.299  0.00  0.00    +0.012 A 
ATOM     15  C   UNL     1       8.367  -3.297   0.509  0.00  0.00    +0.004 A 
ATOM     16  C   UNL     1       7.677  -2.220   1.029  0.00  0.00    +0.046 A 
ATOM     17  C   UNL     1       6.325  -2.049   0.747  0.00  0.00    +0.128 A 
ATOM     18  C   UNL     1       5.664  -2.973  -0.067  0.00  0.00    +0.075 A 
ATOM     19  C   UNL     1       4.232  -2.803  -0.374  0.00  0.00    +0.202 C 
ATOM     20  O   UNL     1       3.619  -1.857   0.082  0.00  0.00    -0.286 OA
ENDROOT
BRANCH   3  21
ATOM     21  C   UNL     1      -0.475  -7.271  -5.000  0.00  0.00    +0.162 C 
ATOM     22  O   UNL     1      -1.303  -7.909  -4.395  0.00  0.00    -0.295 OA
ATOM     23  C   UNL     1      -0.179  -7.596  -6.442  0.00  0.00    +0.089 C 
ENDBRANCH   3  21
BRANCH  10  24
ATOM     24  O   UNL     1       4.264  -6.856  -3.085  0.00  0.00    -0.506 OA
ATOM     25  H   UNL     1       4.669  -6.685  -3.946  0.00  0.00    +0.292 HD
ENDBRANCH  10  24
BRANCH  17  26
ATOM     26  O   UNL     1       5.652  -0.989   1.260  0.00  0.00    -0.506 OA
ATOM     27  H   UNL     1       5.248  -1.159   2.122  0.00  0.00    +0.292 HD
ENDBRANCH  17  26
BRANCH   7  28
ATOM     28  O   UNL     1       1.502  -2.581  -1.030  0.00  0.00    -0.506 OA
ATOM     29  H   UNL     1       1.571  -1.776  -1.561  0.00  0.00    +0.292 HD
ENDBRANCH   7  28
BRANCH   3  30
ATOM     30  O   UNL     1       0.525  -5.102  -5.248  0.00  0.00    -0.381 OA
ATOM     31  H   UNL     1       1.057  -5.376  -6.008  0.00  0.00    +0.211 HD
ENDBRANCH   3  30
BRANCH   1  32
ATOM     32  O   UNL     1      -0.577  -3.922  -1.432  0.00  0.00    -0.343 OA
BRANCH  32  38
ATOM     33  C   UNL     1      -1.942   0.358  -2.955  0.00  0.00    +0.040 C 
ATOM     34  C   UNL     1      -2.466  -0.973  -2.411  0.00  0.00    +0.145 C 
ATOM     35  C   UNL     1      -3.252  -0.724  -1.121  0.00  0.00    +0.129 C 
ATOM     36  C   UNL     1      -3.721  -2.065  -0.550  0.00  0.00    -0.039 C 
ATOM     37  C   UNL     1      -2.503  -2.967  -0.326  0.00  0.00    +0.048 C 
ATOM     38  C   UNL     1      -1.746  -3.129  -1.647  0.00  0.00    +0.250 C 
ATOM     39  O   UNL     1      -1.365  -1.842  -2.137  0.00  0.00    -0.346 OA
BRANCH  36  42
ATOM     40  H   UNL     1      -4.729  -2.712   1.125  0.00  0.00    -0.090 HD
ATOM     41  H   UNL     1      -3.817  -1.344   1.376  0.00  0.00    -0.090 HD
ATOM     42  N   UNL     1      -4.429  -1.827   0.720  0.00  0.00    +0.382 N 
ATOM     43  H   UNL     1      -5.255  -1.243   0.542  0.00  0.00    -0.090 HD
ENDBRANCH  36  42
BRANCH  35  44
ATOM     44  O   UNL     1      -4.386   0.098  -1.404  0.00  0.00    -0.391 OA
ATOM     45  H   UNL     1      -4.162   0.964  -1.771  0.00  0.00    +0.210 HD
ENDBRANCH  35  44
ENDBRANCH  32  38
ENDBRANCH   1  32
TORSDOF 9
