REMARK  Name = ZINC57369291
REMARK  10 active torsions:
REMARK  status: ('A' for Active; 'I' for Inactive)
REMARK    1  A    between atoms: C_1  and  C_2
REMARK    2  A    between atoms: C_2  and  C_4
REMARK    3  A    between atoms: C_2  and  N_14
REMARK    4  A    between atoms: C_7  and  S_10
REMARK    5  A    between atoms: S_10  and  N_13
REMARK    6  A    between atoms: N_14  and  C_15
REMARK    7  A    between atoms: C_15  and  C_16
REMARK    8  A    between atoms: N_18  and  C_19
REMARK    9  A    between atoms: C_19  and  C_20
REMARK   10  A    between atoms: N_22  and  C_23
REMARK                            x       y       z     vdW  Elec       q    Type
REMARK                         _______ _______ _______ _____ _____    ______ ____
ROOT
ATOM      1  C   UNL     1      -0.234  -0.542  -2.347  0.00  0.00    +0.178 C 
ENDROOT
BRANCH   1   2
ATOM      2  C   UNL     1       0.507  -1.027  -3.567  0.00  0.00    +0.227 C 
ATOM      3  O   UNL     1       1.690  -1.283  -3.496  0.00  0.00    -0.274 OA
ATOM      4  N   UNL     1      -0.146  -1.176  -4.736  0.00  0.00    -0.306 N 
ATOM      5  H   UNL     1      -1.093  -0.971  -4.793  0.00  0.00    +0.149 HD
BRANCH   4   6
ATOM      6  C   UNL     1       0.573  -1.647  -5.922  0.00  0.00    +0.200 C 
BRANCH   6   7
ATOM      7  C   UNL     1      -0.378  -1.726  -7.088  0.00  0.00    +0.234 C 
ATOM      8  O   UNL     1      -1.542  -1.419  -6.943  0.00  0.00    -0.274 OA
ATOM      9  N   UNL     1       0.066  -2.138  -8.293  0.00  0.00    -0.284 N 
ATOM     10  H   UNL     1       1.009  -2.320  -8.426  0.00  0.00    +0.155 HD
BRANCH   9  11
ATOM     11  C   UNL     1      -0.836  -2.305  -9.351  0.00  0.00    +0.034 A 
ATOM     12  C   UNL     1      -0.647  -3.328 -10.271  0.00  0.00    +0.026 A 
ATOM     13  C   UNL     1      -1.538  -3.490 -11.314  0.00  0.00    +0.040 A 
ATOM     14  C   UNL     1      -2.618  -2.633 -11.444  0.00  0.00    +0.124 A 
ATOM     15  C   UNL     1      -2.807  -1.612 -10.528  0.00  0.00    +0.040 A 
ATOM     16  C   UNL     1      -1.923  -1.450  -9.479  0.00  0.00    +0.026 A 
ATOM     17  F   UNL     1      -3.487  -2.792 -12.466  0.00  0.00    -0.205 F 
ENDBRANCH   9  11
ENDBRANCH   6   7
ENDBRANCH   4   6
ENDBRANCH   1   2
BRANCH   1  18
ATOM     18  N   UNL     1       0.694  -0.465  -1.210  0.00  0.00    -0.302 NA
ATOM     19  H   UNL     1       1.484   0.122  -1.427  0.00  0.00    +0.123 HD
BRANCH  18  21
ATOM     20  C   UNL     1      -0.026   1.535   0.006  0.00  0.00    +0.029 C 
ATOM     21  C   UNL     1       0.005   0.005  -0.000  0.00  0.00    +0.081 C 
BRANCH  21  22
ATOM     22  C   UNL     1       0.740  -0.487   1.220  0.00  0.00    -0.031 A 
ATOM     23  C   UNL     1       2.123  -0.488   1.240  0.00  0.00    +0.007 A 
ATOM     24  C   UNL     1       2.797  -0.940   2.359  0.00  0.00    +0.029 A 
ATOM     25  C   UNL     1       2.089  -1.391   3.458  0.00  0.00    +0.105 A 
ATOM     26  C   UNL     1       0.707  -1.389   3.437  0.00  0.00    +0.029 A 
ATOM     27  C   UNL     1       0.032  -0.933   2.320  0.00  0.00    +0.007 A 
BRANCH  25  28
ATOM     28  S   UNL     1       2.948  -1.968   4.883  0.00  0.00    +0.056 S 
ATOM     29  O   UNL     1       2.061  -2.844   5.565  0.00  0.00    -0.153 OA
ATOM     30  O   UNL     1       4.236  -2.377   4.444  0.00  0.00    -0.153 OA
BRANCH  28  31
ATOM     31  N   UNL     1       3.180  -0.663   5.877  0.00  0.00    -0.204 NA
ATOM     32  H   UNL     1       2.856   0.212   5.612  0.00  0.00    +0.144 HD
ATOM     33  H   UNL     1       3.641  -0.774   6.723  0.00  0.00    +0.144 HD
ENDBRANCH  28  31
ENDBRANCH  25  28
ENDBRANCH  21  22
ENDBRANCH  18  21
ENDBRANCH   1  18
TORSDOF 9
