REMARK  Name = ZINC43548612
REMARK  11 active torsions:
REMARK  status: ('A' for Active; 'I' for Inactive)
REMARK    1  A    between atoms: C_1  and  C_2
REMARK    2  A    between atoms: C_2  and  C_3
REMARK    3  A    between atoms: C_3  and  C_4
REMARK    4  A    between atoms: C_4  and  N_5
REMARK    5  A    between atoms: C_12  and  C_37
REMARK    6  A    between atoms: C_15  and  C_25
REMARK    7  A    between atoms: C_17  and  O_24
REMARK    8  A    between atoms: C_21  and  C_23
REMARK    9  A    between atoms: C_25  and  C_27
REMARK   10  A    between atoms: C_25  and  C_28
REMARK   11  A    between atoms: N_33  and  C_36
REMARK                            x       y       z     vdW  Elec       q    Type
REMARK                         _______ _______ _______ _____ _____    ______ ____
ROOT
ATOM      1  N   UNL     1      -4.619  -1.992  -0.352  0.00  0.00    -0.325 N 
ATOM      2  C   UNL     1      -4.576  -3.374  -0.263  0.00  0.00    +0.136 A 
ATOM      3  N   UNL     1      -5.523  -4.198   0.128  0.00  0.00    -0.340 N 
ATOM      4  C   UNL     1      -5.338  -5.517   0.164  0.00  0.00    +0.031 A 
ATOM      5  C   UNL     1      -4.109  -5.930  -0.233  0.00  0.00    +0.013 A 
ATOM      6  S   UNL     1      -3.299  -4.409  -0.636  0.00  0.00    -0.059 S 
ATOM      7  C   UNL     1      -3.603  -7.330  -0.305  0.00  0.00    +0.051 C 
ATOM      8  C   UNL     1      -4.561  -8.241   0.468  0.00  0.00    -0.022 C 
ATOM      9  C   UNL     1      -4.381  -8.055   1.973  0.00  0.00    +0.008 C 
ATOM     10  C   UNL     1      -5.302  -9.033   2.709  0.00  0.00    +0.007 C 
ATOM     11  C   UNL     1      -6.755  -8.779   2.308  0.00  0.00    +0.029 C 
ATOM     12  C   UNL     1      -6.916  -8.941   0.794  0.00  0.00    +0.123 C 
ATOM     13  C   UNL     1      -6.011  -7.915   0.091  0.00  0.00    +0.033 C 
ATOM     14  C   UNL     1      -6.388  -6.522   0.610  0.00  0.00    +0.039 C 
ATOM     15  C   UNL     1      -7.752  -6.120   0.046  0.00  0.00    +0.014 C 
ATOM     16  C   UNL     1      -4.264  -9.700   0.116  0.00  0.00    +0.012 C 
ATOM     17  H   UNL     1      -5.426  -1.515  -0.103  0.00  0.00    +0.148 HD
ATOM     18  H   UNL     1      -6.381  -3.835   0.399  0.00  0.00    +0.167 HD
ENDROOT
BRANCH  12  19
ATOM     19  O   UNL     1      -6.537 -10.263   0.409  0.00  0.00    -0.391 OA
ATOM     20  H   UNL     1      -7.061 -10.960   0.827  0.00  0.00    +0.210 HD
ENDBRANCH  12  19
BRANCH  11  21
ATOM     21  C   UNL     1      -7.662  -9.783   3.022  0.00  0.00    +0.078 C 
ATOM     22  C   UNL     1      -9.117  -9.531   2.622  0.00  0.00    +0.017 C 
BRANCH  21  23
ATOM     23  C   UNL     1      -7.516  -9.620   4.513  0.00  0.00    +0.219 C 
ATOM     24  O   UNL     1      -7.192  -8.547   4.976  0.00  0.00    -0.275 OA
ATOM     25  N   UNL     1      -7.745 -10.666   5.331  0.00  0.00    -0.299 N 
ATOM     26  C   UNL     1      -8.244 -11.944   4.801  0.00  0.00    +0.123 C 
ATOM     27  C   UNL     1      -7.340 -13.070   5.314  0.00  0.00    +0.103 C 
ATOM     28  N   UNL     1      -7.254 -12.996   6.779  0.00  0.00    -0.302 NA
ATOM     29  C   UNL     1      -6.628 -11.740   7.213  0.00  0.00    +0.103 C 
ATOM     30  C   UNL     1      -7.497 -10.562   6.777  0.00  0.00    +0.123 C 
ATOM     31  C   UNL     1      -6.538 -14.157   7.324  0.00  0.00    +0.105 C 
ENDBRANCH  21  23
ENDBRANCH  11  21
BRANCH   1  32
ATOM     32  C   UNL     1      -3.446  -1.251  -0.822  0.00  0.00    +0.103 C 
BRANCH  32  33
ATOM     33  C   UNL     1      -3.757   0.247  -0.826  0.00  0.00    +0.018 C 
BRANCH  33  35
ATOM     34  C   UNL     1      -2.842   2.519  -1.321  0.00  0.00    +0.004 C 
ATOM     35  C   UNL     1      -2.531   1.021  -1.317  0.00  0.00    -0.002 C 
ENDBRANCH  33  35
ENDBRANCH  32  33
ENDBRANCH   1  32
TORSDOF 6
