REMARK  Name = ZINC65074719
REMARK  10 active torsions:
REMARK  status: ('A' for Active; 'I' for Inactive)
REMARK    1  A    between atoms: C_1  and  C_2
REMARK    2  A    between atoms: C_2  and  C_3
REMARK    3  A    between atoms: C_2  and  C_4
REMARK    4  A    between atoms: C_2  and  C_5
REMARK    5  A    between atoms: C_8  and  S_11
REMARK    6  A    between atoms: S_11  and  N_14
REMARK    7  A    between atoms: N_25  and  C_26
REMARK    8  A    between atoms: C_26  and  C_27
REMARK    9  A    between atoms: C_26  and  C_28
REMARK   10  A    between atoms: C_26  and  C_29
REMARK                            x       y       z     vdW  Elec       q    Type
REMARK                         _______ _______ _______ _____ _____    ______ ____
ROOT
ATOM      1  N   UNL     1       1.811  -0.571  -6.463  0.00  0.00    -0.176 NA
ATOM      2  C   UNL     1       0.771  -0.498  -7.498  0.00  0.00    +0.111 C 
ATOM      3  C   UNL     1       1.444  -0.512  -8.874  0.00  0.00    +0.047 C 
ATOM      4  C   UNL     1       2.478   0.615  -8.944  0.00  0.00    +0.075 C 
ATOM      5  C   UNL     1       3.553   0.386  -7.879  0.00  0.00    +0.047 C 
ATOM      6  C   UNL     1       2.902   0.413  -6.488  0.00  0.00    +0.111 C 
ATOM      7  C   UNL     1       3.113   0.629 -10.305  0.00  0.00    +0.089 C 
ATOM      8  N   UNL     1       2.821   1.482 -11.214  0.00  0.00    -0.374 N 
ATOM      9  C   UNL     1       1.844   2.551 -11.039  0.00  0.00    +0.129 C 
ATOM     10  C   UNL     1       0.950   2.253  -9.832  0.00  0.00    +0.102 C 
ATOM     11  N   UNL     1       1.810   1.900  -8.690  0.00  0.00    -0.303 NA
ATOM     12  N   UNL     1       4.058  -0.322 -10.589  0.00  0.00    -0.328 N 
ATOM     13  H   UNL     1       1.278   1.869  -7.833  0.00  0.00    +0.123 HD
ATOM     14  H   UNL     1       4.357  -0.930  -9.896  0.00  0.00    +0.148 HD
ATOM     15  H   UNL     1       3.276   1.414 -12.068  0.00  0.00    +0.161 HD
ENDROOT
BRANCH  12  16
ATOM     16  C   UNL     1       4.616  -0.419 -11.940  0.00  0.00    +0.025 C 
ATOM     17  C   UNL     1       5.392   0.859 -12.265  0.00  0.00    +0.031 C 
ATOM     18  C   UNL     1       5.559  -1.622 -12.017  0.00  0.00    +0.031 C 
ATOM     19  C   UNL     1       3.480  -0.597 -12.950  0.00  0.00    +0.031 C 
ENDBRANCH  12  16
BRANCH   1  20
ATOM     20  S   UNL     1       1.750  -1.734  -5.286  0.00  0.00    +0.061 S 
ATOM     21  O   UNL     1       3.080  -1.906  -4.816  0.00  0.00    -0.153 OA
ATOM     22  O   UNL     1       0.984  -2.808  -5.815  0.00  0.00    -0.153 OA
BRANCH  20  26
ATOM     23  C   UNL     1      -0.629  -0.027  -1.834  0.00  0.00    -0.042 A 
ATOM     24  C   UNL     1      -1.274  -0.720  -2.842  0.00  0.00    +0.006 A 
ATOM     25  C   UNL     1      -0.547  -1.241  -3.896  0.00  0.00    +0.029 A 
ATOM     26  C   UNL     1       0.824  -1.069  -3.943  0.00  0.00    +0.105 A 
ATOM     27  C   UNL     1       1.468  -0.375  -2.935  0.00  0.00    +0.029 A 
ATOM     28  C   UNL     1       0.741   0.149  -1.883  0.00  0.00    +0.006 A 
BRANCH  23  30
ATOM     29  C   UNL     1      -1.243   2.060  -0.644  0.00  0.00    +0.015 C 
ATOM     30  C   UNL     1      -1.421   0.541  -0.685  0.00  0.00    -0.013 C 
ATOM     31  C   UNL     1      -0.923  -0.067   0.628  0.00  0.00    +0.015 C 
ATOM     32  C   UNL     1      -2.903   0.206  -0.871  0.00  0.00    +0.015 C 
ENDBRANCH  23  30
ENDBRANCH  20  26
ENDBRANCH   1  20
TORSDOF 4
