REMARK  Name = ZINC00812907
REMARK  10 active torsions:
REMARK  status: ('A' for Active; 'I' for Inactive)
REMARK    1  A    between atoms: C_1  and  O_2
REMARK    2  A    between atoms: O_2  and  C_3
REMARK    3  A    between atoms: C_7  and  C_11
REMARK    4  A    between atoms: C_8  and  O_9
REMARK    5  A    between atoms: O_9  and  C_10
REMARK    6  A    between atoms: C_16  and  C_21
REMARK    7  A    between atoms: C_24  and  O_29
REMARK    8  A    between atoms: C_25  and  O_27
REMARK    9  A    between atoms: O_27  and  C_28
REMARK   10  A    between atoms: O_29  and  C_30
REMARK                            x       y       z     vdW  Elec       q    Type
REMARK                         _______ _______ _______ _____ _____    ______ ____
ROOT
ATOM      1  C   UNL     1       2.291   0.415   3.549  0.00  0.00    +0.140 C 
ATOM      2  C   UNL     1       1.441   0.908   2.401  0.00  0.00    +0.037 C 
ATOM      3  C   UNL     1       0.111   1.092   2.429  0.00  0.00    +0.017 C 
ATOM      4  C   UNL     1      -0.622   1.591   1.193  0.00  0.00    +0.059 C 
ATOM      5  C   UNL     1       0.074   1.079  -0.067  0.00  0.00    +0.032 C 
ATOM      6  C   UNL     1       1.513   1.611  -0.052  0.00  0.00    +0.088 C 
ATOM      7  C   UNL     1       2.173   1.164   1.218  0.00  0.00    +0.163 C 
ATOM      8  O   UNL     1       3.379   1.016   1.231  0.00  0.00    -0.292 OA
ATOM      9  N   UNL     1      -0.684   0.880   3.509  0.00  0.00    -0.316 N 
ATOM     10  C   UNL     1      -0.641  -0.251   4.318  0.00  0.00    +0.052 A 
ATOM     11  C   UNL     1      -1.706  -1.127   4.424  0.00  0.00    +0.025 A 
ATOM     12  C   UNL     1      -1.614  -2.206   5.288  0.00  0.00    +0.002 A 
ATOM     13  C   UNL     1      -0.468  -2.401   6.038  0.00  0.00    +0.002 A 
ATOM     14  C   UNL     1       0.605  -1.535   5.918  0.00  0.00    +0.025 A 
ATOM     15  C   UNL     1       0.525  -0.467   5.036  0.00  0.00    +0.049 A 
ATOM     16  N   UNL     1       1.609   0.381   4.826  0.00  0.00    -0.331 N 
ATOM     17  H   UNL     1      -1.331   1.568   3.733  0.00  0.00    +0.152 HD
ATOM     18  H   UNL     1       1.911   0.957   5.545  0.00  0.00    +0.147 HD
ENDROOT
BRANCH   1  23
ATOM     19  C   UNL     1       4.317  -2.782   3.575  0.00  0.00    +0.162 A 
ATOM     20  C   UNL     1       3.645  -3.537   2.627  0.00  0.00    +0.049 A 
ATOM     21  C   UNL     1       2.540  -3.012   1.982  0.00  0.00    +0.004 A 
ATOM     22  C   UNL     1       2.100  -1.737   2.285  0.00  0.00    +0.009 A 
ATOM     23  C   UNL     1       2.769  -0.977   3.226  0.00  0.00    +0.023 A 
ATOM     24  C   UNL     1       3.878  -1.497   3.876  0.00  0.00    +0.167 A 
BRANCH  19  26
ATOM     25  C   UNL     1       5.799  -4.622   3.850  0.00  0.00    +0.277 C 
ATOM     26  O   UNL     1       5.405  -3.296   4.209  0.00  0.00    -0.491 OA
ENDBRANCH  19  26
BRANCH  24  27
ATOM     27  O   UNL     1       4.534  -0.752   4.806  0.00  0.00    -0.491 OA
ATOM     28  C   UNL     1       4.178  -0.962   6.173  0.00  0.00    +0.277 C 
ENDBRANCH  24  27
ENDBRANCH   1  23
BRANCH   5  29
ATOM     29  C   UNL     1      -0.645   1.585  -1.290  0.00  0.00    -0.040 A 
ATOM     30  C   UNL     1      -0.778   2.946  -1.499  0.00  0.00    +0.008 A 
ATOM     31  C   UNL     1      -1.437   3.415  -2.620  0.00  0.00    +0.049 A 
ATOM     32  C   UNL     1      -1.966   2.522  -3.538  0.00  0.00    +0.161 A 
ATOM     33  C   UNL     1      -1.831   1.152  -3.328  0.00  0.00    +0.162 A 
ATOM     34  C   UNL     1      -1.165   0.689  -2.205  0.00  0.00    +0.053 A 
BRANCH  33  35
ATOM     35  O   UNL     1      -2.348   0.272  -4.226  0.00  0.00    -0.491 OA
ATOM     36  C   UNL     1      -2.171  -1.119  -3.946  0.00  0.00    +0.277 C 
ENDBRANCH  33  35
BRANCH  32  37
ATOM     37  O   UNL     1      -2.614   2.982  -4.641  0.00  0.00    -0.491 OA
ATOM     38  C   UNL     1      -2.713   4.399  -4.791  0.00  0.00    +0.277 C 
ENDBRANCH  32  37
ENDBRANCH   5  29
TORSDOF 6
