REMARK  Name = ZINC09446852
REMARK  5 active torsions:
REMARK  status: ('A' for Active; 'I' for Inactive)
REMARK    1  A    between atoms: C_1  and  O_2
REMARK    2  A    between atoms: O_2  and  C_3
REMARK    3  A    between atoms: C_6  and  N_9
REMARK    4  A    between atoms: C_11  and  N_16
REMARK    5  A    between atoms: C_27  and  C_29
REMARK                            x       y       z     vdW  Elec       q    Type
REMARK                         _______ _______ _______ _____ _____    ______ ____
ROOT
ATOM      1  N   UNL     1      -5.883   0.877  -0.368  0.00  0.00    -0.294 N 
ATOM      2  C   UNL     1      -6.859   0.217   0.288  0.00  0.00    +0.303 C 
ATOM      3  O   UNL     1      -6.615  -0.335   1.343  0.00  0.00    -0.253 OA
ATOM      4  N   UNL     1      -8.104   0.170  -0.226  0.00  0.00    -0.271 N 
ATOM      5  C   UNL     1      -9.208  -0.449   0.522  0.00  0.00    +0.132 C 
ATOM      6  C   UNL     1     -10.255   0.619   0.856  0.00  0.00    +0.140 C 
ATOM      7  N   UNL     1     -10.525   1.421  -0.343  0.00  0.00    -0.347 N 
ATOM      8  C   UNL     1     -11.609   2.212  -0.569  0.00  0.00    +0.086 A 
ATOM      9  C   UNL     1     -11.470   2.782  -1.785  0.00  0.00    +0.019 A 
ATOM     10  C   UNL     1     -10.254   2.322  -2.332  0.00  0.00    +0.025 A 
ATOM     11  C   UNL     1      -9.702   1.492  -1.433  0.00  0.00    +0.044 A 
ATOM     12  C   UNL     1      -8.400   0.742  -1.553  0.00  0.00    +0.155 C 
ATOM     13  H   UNL     1      -6.093   1.379  -1.172  0.00  0.00    +0.151 HD
ENDROOT
BRANCH  12  14
ATOM     14  C   UNL     1      -8.539  -0.362  -2.569  0.00  0.00    -0.021 A 
ATOM     15  C   UNL     1      -7.659  -0.438  -3.632  0.00  0.00    +0.007 A 
ATOM     16  C   UNL     1      -7.783  -1.452  -4.562  0.00  0.00    +0.015 A 
ATOM     17  C   UNL     1      -8.795  -2.386  -4.435  0.00  0.00    +0.018 A 
ATOM     18  C   UNL     1      -9.680  -2.308  -3.374  0.00  0.00    +0.015 A 
ATOM     19  C   UNL     1      -9.551  -1.295  -2.442  0.00  0.00    +0.007 A 
ATOM     20 BR   UNL     1      -8.970  -3.771  -5.711  0.00  0.00    -0.050 Br
ENDBRANCH  12  14
BRANCH   1  23
ATOM     21  N   UNL     1      -2.352   1.594  -0.598  0.00  0.00    -0.270 N 
ATOM     22  C   UNL     1      -3.713   2.077  -0.335  0.00  0.00    +0.136 C 
ATOM     23  C   UNL     1      -4.507   0.837   0.132  0.00  0.00    +0.101 C 
ATOM     24  C   UNL     1      -3.712  -0.314  -0.529  0.00  0.00    +0.120 C 
ATOM     25  C   UNL     1      -2.324   0.256  -0.722  0.00  0.00    +0.222 C 
ATOM     26  O   UNL     1      -1.330  -0.399  -0.954  0.00  0.00    -0.275 OA
BRANCH  21  30
ATOM     27  C   UNL     1       0.995   4.059  -0.926  0.00  0.00    +0.120 A 
ATOM     28  C   UNL     1      -0.268   4.619  -0.795  0.00  0.00    +0.047 A 
ATOM     29  C   UNL     1      -1.377   3.803  -0.691  0.00  0.00    +0.027 A 
ATOM     30  C   UNL     1      -1.228   2.423  -0.710  0.00  0.00    +0.037 A 
ATOM     31  C   UNL     1       0.036   1.864  -0.846  0.00  0.00    +0.027 A 
ATOM     32  C   UNL     1       1.145   2.680  -0.951  0.00  0.00    +0.047 A 
BRANCH  27  34
ATOM     33  C   UNL     1       3.356   4.220  -1.161  0.00  0.00    +0.277 C 
ATOM     34  O   UNL     1       2.087   4.863  -1.029  0.00  0.00    -0.495 OA
ENDBRANCH  27  34
ENDBRANCH  21  30
ENDBRANCH   1  23
TORSDOF 4
