REMARK  Name = ZINC18263248
REMARK  6 active torsions:
REMARK  status: ('A' for Active; 'I' for Inactive)
REMARK    1  A    between atoms: C_1  and  O_2
REMARK    2  A    between atoms: O_2  and  C_3
REMARK    3  A    between atoms: C_7  and  N_9
REMARK    4  A    between atoms: C_13  and  S_15
REMARK    5  A    between atoms: S_15  and  C_16
REMARK    6  A    between atoms: C_16  and  C_17
REMARK                            x       y       z     vdW  Elec       q    Type
REMARK                         _______ _______ _______ _____ _____    ______ ____
ROOT
ATOM      1  C   UNL     1       5.382   9.022   0.617  0.00  0.00    +0.152 C 
ENDROOT
BRANCH   1   2
ATOM      2  C   UNL     1       6.755   9.641   0.667  0.00  0.00    +0.143 A 
ATOM      3  N   UNL     1       7.267  10.166  -0.431  0.00  0.00    -0.216 NA
ATOM      4  C   UNL     1       8.464  10.729  -0.451  0.00  0.00    +0.128 A 
ATOM      5  C   UNL     1       9.233  10.762   0.745  0.00  0.00    +0.051 A 
ATOM      6  C   UNL     1      10.569  11.321   0.960  0.00  0.00    -0.025 A 
ATOM      7  C   UNL     1      11.080  11.223   2.204  0.00  0.00    -0.004 A 
ATOM      8  S   UNL     1       9.834  10.392   3.152  0.00  0.00    -0.073 S 
ATOM      9  C   UNL     1       8.624  10.178   1.873  0.00  0.00    +0.114 A 
ATOM     10  N   UNL     1       7.421   9.642   1.806  0.00  0.00    -0.224 NA
ATOM     11  C   UNL     1      12.415  11.712   2.678  0.00  0.00    +0.043 C 
ATOM     12  C   UNL     1      13.283  12.019   1.449  0.00  0.00    +0.005 C 
ATOM     13  C   UNL     1      12.461  12.853   0.463  0.00  0.00    +0.005 C 
ATOM     14  C   UNL     1      11.364  11.989  -0.159  0.00  0.00    +0.037 C 
ATOM     15  N   UNL     1       8.963  11.273  -1.621  0.00  0.00    -0.343 N 
ATOM     16  H   UNL     1       9.900  11.518  -1.681  0.00  0.00    +0.144 HD
ATOM     17  H   UNL     1       8.377  11.410  -2.381  0.00  0.00    +0.144 HD
ENDBRANCH   1   2
BRANCH   1  18
ATOM     18  S   UNL     1       4.136  10.282   1.003  0.00  0.00    -0.089 S 
BRANCH  18  23
ATOM     19  N   UNL     1      -1.278   8.208   0.893  0.00  0.00    -0.292 N 
ATOM     20  C   UNL     1       0.086   8.478   0.860  0.00  0.00    +0.187 A 
ATOM     21  N   UNL     1       1.092   7.665   0.603  0.00  0.00    -0.125 NA
ATOM     22  N   UNL     1       2.382   8.145   0.620  0.00  0.00    -0.133 NA
ATOM     23  C   UNL     1       2.606   9.414   0.905  0.00  0.00    +0.160 A 
ATOM     24  S   UNL     1       0.944  10.015   1.163  0.00  0.00    -0.024 S 
ATOM     25  H   UNL     1      -1.901   8.894   1.182  0.00  0.00    +0.154 HD
BRANCH  19  30
ATOM     26  C   UNL     1      -1.509   4.942  -0.782  0.00  0.00    +0.122 A 
ATOM     27  C   UNL     1      -2.695   4.459  -0.247  0.00  0.00    +0.046 A 
ATOM     28  C   UNL     1      -3.403   5.217   0.666  0.00  0.00    +0.005 A 
ATOM     29  C   UNL     1      -2.935   6.460   1.045  0.00  0.00    +0.023 A 
ATOM     30  C   UNL     1      -1.751   6.951   0.509  0.00  0.00    +0.036 A 
ATOM     31  C   UNL     1      -1.038   6.190  -0.408  0.00  0.00    +0.069 A 
BRANCH  26  33
ATOM     32  C   UNL     1      -1.358   2.917  -2.020  0.00  0.00    +0.277 C 
ATOM     33  O   UNL     1      -0.811   4.192  -1.676  0.00  0.00    -0.495 OA
ENDBRANCH  26  33
ENDBRANCH  19  30
ENDBRANCH  18  23
ENDBRANCH   1  18
TORSDOF 5
