REMARK  Name = ZINC13063831
REMARK  10 active torsions:
REMARK  status: ('A' for Active; 'I' for Inactive)
REMARK    1  A    between atoms: C_1  and  C_2
REMARK    2  A    between atoms: C_2  and  C_3
REMARK    3  A    between atoms: C_3  and  C_5
REMARK    4  A    between atoms: C_3  and  N_72
REMARK    5  A    between atoms: N_9  and  C_10
REMARK    6  A    between atoms: C_16  and  C_17
REMARK    7  A    between atoms: C_16  and  N_72
REMARK    8  A    between atoms: C_26  and  C_27
REMARK    9  A    between atoms: C_26  and  N_72
REMARK   10  A    between atoms: C_32  and  C_39
REMARK                            x       y       z     vdW  Elec       q    Type
REMARK                         _______ _______ _______ _____ _____    ______ ____
ROOT
ATOM      1  N   UNL     1      -1.048   1.639  -1.444  0.00  0.00    +0.392 N 
ATOM      2  H   UNL     1      -2.060   1.528  -1.573  0.00  0.00    -0.080 HD
ENDROOT
BRANCH   1   3
ATOM      3  C   UNL     1      -0.356   1.204  -2.676  0.00  0.00    +0.003 C 
BRANCH   3   4
ATOM      4  C   UNL     1      -1.122   0.054  -3.277  0.00  0.00    +0.138 A 
ATOM      5  N   UNL     1      -1.657  -0.952  -2.631  0.00  0.00    -0.115 NA
ATOM      6  N   UNL     1      -2.226  -1.722  -3.494  0.00  0.00    -0.023 NA
ATOM      7  N   UNL     1      -2.060  -1.237  -4.675  0.00  0.00    -0.044 NA
ATOM      8  N   UNL     1      -1.384  -0.142  -4.583  0.00  0.00    -0.228 N 
BRANCH   8   9
ATOM      9  C   UNL     1      -0.978   0.726  -5.691  0.00  0.00    +0.111 C 
ATOM     10  C   UNL     1      -2.221   1.327  -6.350  0.00  0.00    +0.027 C 
ATOM     11  C   UNL     1      -1.797   2.233  -7.508  0.00  0.00    +0.002 C 
ATOM     12  C   UNL     1      -1.020   1.413  -8.539  0.00  0.00    +0.000 C 
ATOM     13  C   UNL     1       0.223   0.811  -7.881  0.00  0.00    +0.002 C 
ATOM     14  C   UNL     1      -0.201  -0.095  -6.723  0.00  0.00    +0.027 C 
ENDBRANCH   8   9
ENDBRANCH   3   4
BRANCH   3  16
ATOM     15  C   UNL     1       1.888   1.955  -1.872  0.00  0.00    +0.002 C 
ATOM     16  C   UNL     1       1.071   0.755  -2.357  0.00  0.00    -0.011 C 
ENDBRANCH   3  16
ENDBRANCH   1   3
BRANCH   1  17
ATOM     17  C   UNL     1      -0.751   3.062  -1.174  0.00  0.00    -0.041 C 
BRANCH  17  18
ATOM     18  C   UNL     1      -1.472   3.909  -2.190  0.00  0.00    -0.060 A 
ATOM     19  C   UNL     1      -0.806   4.348  -3.319  0.00  0.00    +0.005 A 
ATOM     20  C   UNL     1      -1.465   5.120  -4.258  0.00  0.00    +0.050 A 
ATOM     21  C   UNL     1      -2.792   5.467  -4.062  0.00  0.00    +0.166 A 
ATOM     22  C   UNL     1      -3.461   5.029  -2.922  0.00  0.00    +0.166 A 
ATOM     23  C   UNL     1      -2.797   4.250  -1.989  0.00  0.00    +0.051 A 
ATOM     24  O   UNL     1      -4.743   5.498  -2.962  0.00  0.00    -0.453 OA
ATOM     25  C   UNL     1      -4.732   6.563  -3.931  0.00  0.00    +0.466 C 
ATOM     26  O   UNL     1      -3.654   6.210  -4.816  0.00  0.00    -0.453 OA
ENDBRANCH  17  18
ENDBRANCH   1  17
BRANCH   1  27
ATOM     27  C   UNL     1      -0.615   0.807  -0.302  0.00  0.00    -0.036 C 
BRANCH  27  28
ATOM     28  C   UNL     1      -1.552   1.047   0.854  0.00  0.00    +0.001 A 
ATOM     29  C   UNL     1      -2.615   0.226   1.044  0.00  0.00    +0.017 A 
ATOM     30  C   UNL     1      -3.506   0.486   2.176  0.00  0.00    -0.001 A 
ATOM     31  C   UNL     1      -4.617  -0.326   2.424  0.00  0.00    +0.010 A 
ATOM     32  C   UNL     1      -5.429  -0.057   3.489  0.00  0.00    +0.004 A 
ATOM     33  C   UNL     1      -5.160   1.015   4.329  0.00  0.00    -0.048 A 
ATOM     34  C   UNL     1      -4.071   1.829   4.104  0.00  0.00    +0.029 A 
ATOM     35  C   UNL     1      -3.230   1.574   3.026  0.00  0.00    +0.049 A 
ATOM     36  N   UNL     1      -2.133   2.371   2.778  0.00  0.00    -0.322 N 
ATOM     37  H   UNL     1      -1.944   3.120   3.364  0.00  0.00    +0.169 HD
ATOM     38  C   UNL     1      -1.317   2.121   1.739  0.00  0.00    +0.251 A 
ATOM     39  O   UNL     1      -0.353   2.844   1.553  0.00  0.00    -0.268 OA
ATOM     40  C   UNL     1      -6.070   1.293   5.498  0.00  0.00    +0.044 C 
ENDBRANCH  27  28
ENDBRANCH   1  27
TORSDOF 8
