REMARK  Name = ZINC43527590
REMARK  8 active torsions:
REMARK  status: ('A' for Active; 'I' for Inactive)
REMARK    1  A    between atoms: N_9  and  C_10
REMARK    2  A    between atoms: C_10  and  C_11
REMARK    3  A    between atoms: C_20  and  C_22
REMARK    4  A    between atoms: C_22  and  N_23
REMARK    5  A    between atoms: N_23  and  C_24
REMARK    6  A    between atoms: C_24  and  N_26
REMARK    7  A    between atoms: N_26  and  C_27
REMARK    8  A    between atoms: C_27  and  C_28
REMARK                            x       y       z     vdW  Elec       q    Type
REMARK                         _______ _______ _______ _____ _____    ______ ____
ROOT
ATOM      1  C   UNL     1       5.406  -0.283   1.390  0.00  0.00    -0.007 C 
ATOM      2  C   UNL     1       5.412  -1.655   2.068  0.00  0.00    -0.073 C 
ATOM      3  N   UNL     1       6.771  -2.000   2.491  0.00  0.00    +0.383 N 
ATOM      4  C   UNL     1       7.667  -2.078   1.335  0.00  0.00    -0.078 C 
ATOM      5  C   UNL     1       7.736  -0.720   0.633  0.00  0.00    -0.015 C 
ATOM      6  C   UNL     1       6.835   0.275   1.383  0.00  0.00    -0.011 C 
ATOM      7  C   UNL     1       7.325   0.369   2.834  0.00  0.00    -0.010 C 
ATOM      8  C   UNL     1       7.270  -1.026   3.466  0.00  0.00    -0.051 C 
ATOM      9  H   UNL     1       6.748  -2.908   2.930  0.00  0.00    -0.081 HD
ENDROOT
BRANCH   1  10
ATOM     10  C   UNL     1       4.903  -0.424  -0.048  0.00  0.00    +0.107 C 
BRANCH  10  19
ATOM     11  C   UNL     1      -0.017   1.378   0.010  0.00  0.00    +0.000 A 
ATOM     12  C   UNL     1       1.174   2.082   0.002  0.00  0.00    +0.002 A 
ATOM     13  C   UNL     1       2.377   1.411  -0.013  0.00  0.00    +0.023 A 
ATOM     14  C   UNL     1       2.405   0.014  -0.021  0.00  0.00    +0.033 A 
ATOM     15  C   UNL     1       1.206  -0.682  -0.013  0.00  0.00    -0.025 A 
ATOM     16  C   UNL     1       0.002  -0.004   0.002  0.00  0.00    +0.005 A 
ATOM     17  C   UNL     1       1.510  -2.163  -0.023  0.00  0.00    +0.056 C 
ATOM     18  C   UNL     1       3.046  -2.241  -0.038  0.00  0.00    +0.110 C 
ATOM     19  N   UNL     1       3.501  -0.849  -0.036  0.00  0.00    -0.329 N 
ENDBRANCH  10  19
ENDBRANCH   1  10
BRANCH   8  20
ATOM     20  C   UNL     1       8.673  -1.435   3.919  0.00  0.00    +0.088 C 
BRANCH  20  21
ATOM     21  N   UNL     1       8.641  -2.809   4.427  0.00  0.00    -0.328 N 
ATOM     22  H   UNL     1       7.807  -3.304   4.435  0.00  0.00    +0.148 HD
BRANCH  21  23
ATOM     23  C   UNL     1       9.771  -3.385   4.885  0.00  0.00    +0.131 C 
ATOM     24  S   UNL     1      11.243  -2.511   4.872  0.00  0.00    -0.019 S 
BRANCH  23  25
ATOM     25  N   UNL     1       9.741  -4.648   5.353  0.00  0.00    -0.319 N 
ATOM     26  H   UNL     1       8.907  -5.143   5.360  0.00  0.00    +0.148 HD
BRANCH  25  27
ATOM     27  C   UNL     1      10.969  -5.274   5.850  0.00  0.00    +0.177 C 
BRANCH  27  28
ATOM     28  C   UNL     1      10.666  -6.676   6.312  0.00  0.00    +0.122 A 
ATOM     29  C   UNL     1      10.728  -7.785   5.552  0.00  0.00    +0.046 A 
ATOM     30  C   UNL     1      10.367  -8.871   6.383  0.00  0.00    +0.041 A 
ATOM     31  C   UNL     1      10.107  -8.361   7.600  0.00  0.00    +0.195 A 
ATOM     32  O   UNL     1      10.295  -7.032   7.553  0.00  0.00    -0.466 OA
ENDBRANCH  27  28
ENDBRANCH  25  27
ENDBRANCH  23  25
ENDBRANCH  21  23
ENDBRANCH  20  21
ENDBRANCH   8  20
TORSDOF 8
