REMARK  Name = ZINC37557482
REMARK  3 active torsions:
REMARK  status: ('A' for Active; 'I' for Inactive)
REMARK    1  A    between atoms: C_5  and  N_7
REMARK    2  A    between atoms: N_7  and  S_8
REMARK    3  A    between atoms: S_8  and  C_11
REMARK                            x       y       z     vdW  Elec       q    Type
REMARK                         _______ _______ _______ _____ _____    ______ ____
ROOT
ATOM      1  S   UNL     1       0.053  -2.834  -0.931  0.00  0.00    +0.077 S 
ATOM      2  O   UNL     1       0.174  -4.245  -0.812  0.00  0.00    -0.150 OA
ATOM      3  O   UNL     1      -1.135  -2.139  -0.576  0.00  0.00    -0.150 OA
ENDROOT
BRANCH   1   4
ATOM      4  C   UNL     1       0.382  -2.440  -2.616  0.00  0.00    +0.167 A 
ATOM      5  C   UNL     1       0.644  -3.326  -3.604  0.00  0.00    +0.135 A 
ATOM      6  N   UNL     1       0.840  -2.630  -4.744  0.00  0.00    -0.281 N 
ATOM      7  H   UNL     1       1.045  -3.006  -5.614  0.00  0.00    +0.188 HD
ATOM      8  N   UNL     1       0.695  -1.268  -4.450  0.00  0.00    -0.157 NA
ATOM      9  C   UNL     1       0.414  -1.152  -3.174  0.00  0.00    +0.165 A 
ATOM     10  N   UNL     1       0.188   0.047  -2.487  0.00  0.00    -0.340 N 
ATOM     11  H   UNL     1      -0.077   0.029  -1.554  0.00  0.00    +0.144 HD
ATOM     12  H   UNL     1       0.296   0.896  -2.944  0.00  0.00    +0.144 HD
ENDBRANCH   1   4
BRANCH   1  13
ATOM     13  N   UNL     1       1.274  -2.176  -0.027  0.00  0.00    -0.215 N 
ATOM     14  H   UNL     1       1.089  -1.438   0.576  0.00  0.00    +0.174 HD
BRANCH  13  19
ATOM     15  C   UNL     1       4.327  -3.643  -1.455  0.00  0.00    +0.002 A 
ATOM     16  C   UNL     1       5.142  -3.688  -0.339  0.00  0.00    +0.001 A 
ATOM     17  C   UNL     1       4.676  -3.233   0.881  0.00  0.00    +0.017 A 
ATOM     18  C   UNL     1       3.394  -2.731   0.988  0.00  0.00    +0.040 A 
ATOM     19  C   UNL     1       2.572  -2.683  -0.132  0.00  0.00    +0.062 A 
ATOM     20  C   UNL     1       3.044  -3.141  -1.355  0.00  0.00    +0.025 A 
ATOM     21 BR   UNL     1       2.757  -2.110   2.657  0.00  0.00    -0.048 Br
ENDBRANCH  13  19
ENDBRANCH   1  13
TORSDOF 3
