REMARK  Name = ZINC38685435
REMARK  16 active torsions:
REMARK  status: ('A' for Active; 'I' for Inactive)
REMARK    1  A    between atoms: C_1  and  C_2
REMARK    2  A    between atoms: C_2  and  C_3
REMARK    3  A    between atoms: C_3  and  C_4
REMARK    4  A    between atoms: C_4  and  C_5
REMARK    5  A    between atoms: C_5  and  O_6
REMARK    6  A    between atoms: O_6  and  C_7
REMARK    7  A    between atoms: C_10  and  C_13
REMARK    8  A    between atoms: C_18  and  O_27
REMARK    9  A    between atoms: C_22  and  N_26
REMARK   10  A    between atoms: C_23  and  C_24
REMARK   11  A    between atoms: O_27  and  C_28
REMARK   12  A    between atoms: C_28  and  C_30
REMARK   13  A    between atoms: C_33  and  O_36
REMARK   14  A    between atoms: O_36  and  C_37
REMARK   15  A    between atoms: C_37  and  C_38
REMARK   16  A    between atoms: C_37  and  C_39
REMARK                            x       y       z     vdW  Elec       q    Type
REMARK                         _______ _______ _______ _____ _____    ______ ____
ROOT
ATOM      1  C   UNL     1       3.659  -6.826  -6.857  0.00  0.00    +0.098 C 
ATOM      2  C   UNL     1       4.839  -7.624  -6.368  0.00  0.00    +0.008 A 
ATOM      3  C   UNL     1       6.002  -6.967  -6.006  0.00  0.00    +0.012 A 
ATOM      4  C   UNL     1       7.094  -7.682  -5.556  0.00  0.00    +0.047 A 
ATOM      5  C   UNL     1       7.027  -9.066  -5.465  0.00  0.00    +0.135 A 
ATOM      6  C   UNL     1       5.864  -9.726  -5.826  0.00  0.00    +0.093 A 
ATOM      7  C   UNL     1       4.767  -9.005  -6.278  0.00  0.00    +0.138 A 
ATOM      8  O   UNL     1       3.636  -9.667  -6.628  0.00  0.00    -0.441 OA
ATOM      9  C   UNL     1       2.725  -9.068  -7.413  0.00  0.00    +0.199 C 
ATOM     10  C   UNL     1       2.684  -7.726  -7.562  0.00  0.00    +0.098 C 
ENDROOT
BRANCH   1  14
ATOM     11  C   UNL     1       1.724  -4.975  -3.526  0.00  0.00    +0.121 A 
ATOM     12  C   UNL     1       2.251  -4.195  -4.545  0.00  0.00    +0.046 A 
ATOM     13  C   UNL     1       2.876  -4.796  -5.621  0.00  0.00    +0.008 A 
ATOM     14  C   UNL     1       2.977  -6.173  -5.682  0.00  0.00    -0.034 A 
ATOM     15  C   UNL     1       2.452  -6.953  -4.668  0.00  0.00    +0.008 A 
ATOM     16  C   UNL     1       1.831  -6.357  -3.588  0.00  0.00    +0.046 A 
BRANCH  11  17
ATOM     17  O   UNL     1       1.109  -4.387  -2.467  0.00  0.00    -0.492 OA
BRANCH  17  18
ATOM     18  C   UNL     1       1.035  -2.960  -2.471  0.00  0.00    +0.229 C 
BRANCH  18  19
ATOM     19  C   UNL     1       0.313  -2.483  -1.208  0.00  0.00    +0.041 C 
BRANCH  19  20
ATOM     20  C   UNL     1       0.235  -0.955  -1.212  0.00  0.00    +0.003 C 
BRANCH  20  22
ATOM     21  C   UNL     1      -0.566   1.049   0.046  0.00  0.00    +0.004 C 
ATOM     22  C   UNL     1      -0.487  -0.479   0.050  0.00  0.00    -0.003 C 
ENDBRANCH  20  22
ENDBRANCH  19  20
ENDBRANCH  18  19
ENDBRANCH  17  18
ENDBRANCH  11  17
ENDBRANCH   1  14
BRANCH   9  23
ATOM     23  N   UNL     1       1.810  -9.842  -8.082  0.00  0.00    -0.328 N 
ATOM     24  H   UNL     1       1.827 -10.807  -7.983  0.00  0.00    +0.145 HD
ATOM     25  H   UNL     1       1.146  -9.425  -8.652  0.00  0.00    +0.145 HD
ENDBRANCH   9  23
BRANCH  10  26
ATOM     26  C   UNL     1       1.687  -7.149  -8.413  0.00  0.00    +0.101 C 
ATOM     27  N   UNL     1       0.895  -6.692  -9.088  0.00  0.00    -0.191 NA
ENDBRANCH  10  26
BRANCH   5  28
ATOM     28  O   UNL     1       8.101  -9.771  -5.022  0.00  0.00    -0.422 OA
BRANCH  28  29
ATOM     29  C   UNL     1       8.734 -10.577  -5.897  0.00  0.00    +0.344 C 
ATOM     30  O   UNL     1       8.402 -10.583  -7.067  0.00  0.00    -0.245 OA
BRANCH  29  31
ATOM     31  C   UNL     1       9.828 -11.451  -5.437  0.00  0.00    +0.060 A 
ATOM     32  C   UNL     1      10.207 -11.450  -4.091  0.00  0.00    +0.018 A 
ATOM     33  C   UNL     1      11.229 -12.269  -3.665  0.00  0.00    +0.046 A 
ATOM     34  C   UNL     1      11.883 -13.095  -4.571  0.00  0.00    +0.121 A 
ATOM     35  C   UNL     1      11.510 -13.099  -5.910  0.00  0.00    +0.046 A 
ATOM     36  C   UNL     1      10.486 -12.288  -6.343  0.00  0.00    +0.018 A 
BRANCH  34  37
ATOM     37  O   UNL     1      12.890 -13.901  -4.147  0.00  0.00    -0.489 OA
BRANCH  37  38
ATOM     38  C   UNL     1      13.170 -13.906  -2.745  0.00  0.00    +0.167 C 
ATOM     39  C   UNL     1      12.203 -14.857  -2.036  0.00  0.00    +0.051 C 
ATOM     40  C   UNL     1      14.608 -14.375  -2.514  0.00  0.00    +0.051 C 
ENDBRANCH  37  38
ENDBRANCH  34  37
ENDBRANCH  29  31
ENDBRANCH  28  29
ENDBRANCH   5  28
TORSDOF 13
