REMARK  Name = ZINC11255707
REMARK  7 active torsions:
REMARK  status: ('A' for Active; 'I' for Inactive)
REMARK    1  A    between atoms: C_1  and  C_2
REMARK    2  A    between atoms: C_2  and  C_3
REMARK    3  A    between atoms: C_3  and  C_4
REMARK    4  A    between atoms: C_3  and  N_11
REMARK    5  A    between atoms: C_12  and  C_14
REMARK    6  A    between atoms: C_14  and  C_15
REMARK    7  A    between atoms: C_15  and  C_16
REMARK                            x       y       z     vdW  Elec       q    Type
REMARK                         _______ _______ _______ _____ _____    ______ ____
ROOT
ATOM      1  N   UNL     1      -0.008  -0.140   2.444  0.00  0.00    -0.308 N 
ATOM      2  C   UNL     1       0.164   1.077   2.997  0.00  0.00    +0.214 C 
ATOM      3  O   UNL     1       0.941   1.865   2.500  0.00  0.00    -0.276 OA
ATOM      4  H   UNL     1      -0.629  -0.770   2.842  0.00  0.00    +0.149 HD
ENDROOT
BRANCH   1   5
ATOM      5  C   UNL     1       0.742  -0.511   1.242  0.00  0.00    +0.103 C 
BRANCH   5   6
ATOM      6  C   UNL     1       0.870  -2.011   1.172  0.00  0.00    -0.027 A 
ATOM      7  C   UNL     1      -0.201  -2.813   1.519  0.00  0.00    +0.006 A 
ATOM      8  C   UNL     1      -0.085  -4.188   1.455  0.00  0.00    +0.015 A 
ATOM      9  C   UNL     1       1.104  -4.763   1.043  0.00  0.00    +0.018 A 
ATOM     10  C   UNL     1       2.176  -3.960   0.696  0.00  0.00    +0.015 A 
ATOM     11  C   UNL     1       2.057  -2.584   0.755  0.00  0.00    +0.006 A 
ATOM     12 BR   UNL     1       1.265  -6.645   0.956  0.00  0.00    -0.050 Br
ENDBRANCH   5   6
BRANCH   5  14
ATOM     13  C   UNL     1      -0.019   1.526   0.010  0.00  0.00    +0.006 C 
ATOM     14  C   UNL     1       0.002  -0.004   0.002  0.00  0.00    +0.024 C 
ENDBRANCH   5  14
ENDBRANCH   1   5
BRANCH   2  15
ATOM     15  C   UNL     1      -0.608   1.458   4.234  0.00  0.00    +0.102 C 
BRANCH  15  16
ATOM     16  C   UNL     1      -0.229   2.880   4.653  0.00  0.00    +0.072 C 
BRANCH  16  17
ATOM     17  C   UNL     1      -1.001   3.261   5.890  0.00  0.00    +0.128 A 
ATOM     18  C   UNL     1      -0.432   3.102   7.144  0.00  0.00    +0.274 A 
ATOM     19  O   UNL     1       0.816   2.606   7.277  0.00  0.00    -0.266 OA
ATOM     20  N   UNL     1      -1.162   3.459   8.240  0.00  0.00    -0.298 N 
ATOM     21  H   UNL     1      -0.794   3.361   9.132  0.00  0.00    +0.171 HD
ATOM     22  C   UNL     1      -2.405   3.951   8.059  0.00  0.00    +0.201 A 
ATOM     23  S   UNL     1      -3.347   4.408   9.414  0.00  0.00    -0.009 S 
ATOM     24  N   UNL     1      -2.905   4.083   6.826  0.00  0.00    -0.123 NA
ATOM     25  N   UNL     1      -2.225   3.756   5.785  0.00  0.00    -0.146 NA
ENDBRANCH  16  17
ENDBRANCH  15  16
ENDBRANCH   2  15
TORSDOF 6
