REMARK  Name = ZINC09464246
REMARK  6 active torsions:
REMARK  status: ('A' for Active; 'I' for Inactive)
REMARK    1  A    between atoms: C_4  and  C_7
REMARK    2  A    between atoms: C_7  and  C_8
REMARK    3  A    between atoms: C_8  and  C_31
REMARK    4  A    between atoms: N_11  and  C_15
REMARK    5  A    between atoms: C_15  and  N_64
REMARK    6  A    between atoms: C_20  and  C_22
REMARK                            x       y       z     vdW  Elec       q    Type
REMARK                         _______ _______ _______ _____ _____    ______ ____
ROOT
ATOM      1  C   UNL     1       1.229  -2.186  -0.022  0.00  0.00    +0.142 C 
ATOM      2  C   UNL     1       1.180  -2.728   1.393  0.00  0.00    +0.250 C 
ATOM      3  O   UNL     1       1.993  -2.547   2.274  0.00  0.00    -0.272 OA
ATOM      4  N   UNL     1       0.046  -3.452   1.467  0.00  0.00    -0.241 N 
ATOM      5  C   UNL     1      -0.622  -3.443   0.308  0.00  0.00    +0.308 C 
ATOM      6  O   UNL     1      -1.674  -4.025   0.129  0.00  0.00    -0.252 OA
ATOM      7  N   UNL     1       0.003  -2.717  -0.642  0.00  0.00    -0.281 N 
ATOM      8  H   UNL     1      -0.295  -2.572  -1.554  0.00  0.00    +0.152 HD
ENDROOT
BRANCH   1   9
ATOM      9  C   UNL     1       1.208  -0.679  -0.014  0.00  0.00    -0.015 A 
ATOM     10  C   UNL     1       0.002  -0.004   0.002  0.00  0.00    +0.006 A 
ATOM     11  C   UNL     1      -0.017   1.378   0.010  0.00  0.00    +0.000 A 
ATOM     12  C   UNL     1       1.171   2.086   0.002  0.00  0.00    +0.000 A 
ATOM     13  C   UNL     1       2.377   1.411  -0.014  0.00  0.00    +0.000 A 
ATOM     14  C   UNL     1       2.396   0.029  -0.021  0.00  0.00    +0.006 A 
ENDBRANCH   1   9
BRANCH   1  15
ATOM     15  C   UNL     1       2.470  -2.702  -0.753  0.00  0.00    +0.075 C 
BRANCH  15  19
ATOM     16  C   UNL     1       2.286  -6.960  -1.042  0.00  0.00    +0.000 A 
ATOM     17  C   UNL     1       1.739  -6.175  -2.040  0.00  0.00    +0.000 A 
ATOM     18  C   UNL     1       1.798  -4.797  -1.947  0.00  0.00    +0.004 A 
ATOM     19  C   UNL     1       2.405  -4.204  -0.855  0.00  0.00    -0.045 A 
ATOM     20  C   UNL     1       2.956  -4.988   0.140  0.00  0.00    +0.004 A 
ATOM     21  C   UNL     1       2.892  -6.366   0.050  0.00  0.00    +0.000 A 
ENDBRANCH  15  19
ENDBRANCH   1  15
BRANCH   4  22
ATOM     22  C   UNL     1      -0.400  -4.162   2.668  0.00  0.00    +0.043 C 
BRANCH  22  28
ATOM     23  C   UNL     1      -1.971  -2.320   2.630  0.00  0.00    -0.076 C 
ATOM     24  C   UNL     1      -2.721  -1.319   3.512  0.00  0.00    -0.019 C 
ATOM     25  C   UNL     1      -3.697  -2.075   4.417  0.00  0.00    -0.003 C 
ATOM     26  C   UNL     1      -2.919  -3.094   5.255  0.00  0.00    -0.009 C 
ATOM     27  C   UNL     1      -2.163  -4.043   4.323  0.00  0.00    -0.009 C 
ATOM     28  N   UNL     1      -1.224  -3.256   3.496  0.00  0.00    +0.396 N 
ATOM     29  H   UNL     1      -0.607  -2.717   4.115  0.00  0.00    -0.079 HD
BRANCH  27  30
ATOM     30  C   UNL     1      -1.380  -5.035   5.144  0.00  0.00    +0.066 A 
ATOM     31  N   UNL     1      -1.644  -6.293   5.361  0.00  0.00    -0.246 NA
ATOM     32  C   UNL     1      -0.854  -7.079   6.121  0.00  0.00    +0.078 A 
ATOM     33  C   UNL     1      -1.005  -8.445   6.446  0.00  0.00    +0.029 A 
ATOM     34  C   UNL     1      -0.096  -9.076   7.237  0.00  0.00    +0.002 A 
ATOM     35  C   UNL     1       1.007  -8.409   7.753  0.00  0.00    +0.001 A 
ATOM     36  C   UNL     1       1.190  -7.071   7.459  0.00  0.00    +0.017 A 
ATOM     37  C   UNL     1       0.278  -6.425   6.660  0.00  0.00    +0.039 A 
ATOM     38  S   UNL     1       0.095  -4.779   6.023  0.00  0.00    -0.074 S 
ENDBRANCH  27  30
ENDBRANCH  22  28
ENDBRANCH   4  22
TORSDOF 6
