REMARK  Name = ZINC63752605
REMARK  6 active torsions:
REMARK  status: ('A' for Active; 'I' for Inactive)
REMARK    1  A    between atoms: C_6  and  C_21
REMARK    2  A    between atoms: C_8  and  N_11
REMARK    3  A    between atoms: C_12  and  C_14
REMARK    4  A    between atoms: N_23  and  C_24
REMARK    5  A    between atoms: C_24  and  C_25
REMARK    6  A    between atoms: C_25  and  C_26
REMARK                            x       y       z     vdW  Elec       q    Type
REMARK                         _______ _______ _______ _____ _____    ______ ____
ROOT
ATOM      1  C   UNL     1       0.210   1.048  -1.721  0.00  0.00    +0.001 A 
ATOM      2  C   UNL     1       1.354   1.838  -1.585  0.00  0.00    +0.002 A 
ATOM      3  C   UNL     1       2.481   1.372  -0.995  0.00  0.00    +0.026 A 
ATOM      4  C   UNL     1       2.518   0.044  -0.494  0.00  0.00    +0.045 A 
ATOM      5  N   UNL     1       3.473  -0.634   0.109  0.00  0.00    -0.369 N 
ATOM      6  C   UNL     1       2.982  -1.980   0.420  0.00  0.00    +0.211 C 
ATOM      7  C   UNL     1       1.559  -2.033  -0.089  0.00  0.00    +0.051 C 
ATOM      8  C   UNL     1       1.310  -0.786  -0.639  0.00  0.00    +0.018 A 
ATOM      9  C   UNL     1       0.170  -0.230  -1.267  0.00  0.00    +0.011 A 
ATOM     10  H   UNL     1       4.359  -0.297   0.315  0.00  0.00    +0.161 HD
ENDROOT
BRANCH   7  11
ATOM     11  N   UNL     1       0.701  -3.087  -0.023  0.00  0.00    -0.282 N 
ATOM     12  C   UNL     1      -0.624  -2.871   0.092  0.00  0.00    +0.248 C 
ATOM     13  O   UNL     1      -1.056  -1.736   0.103  0.00  0.00    -0.270 OA
ATOM     14  H   UNL     1       1.043  -3.994  -0.058  0.00  0.00    +0.155 HD
BRANCH  12  15
ATOM     15  C   UNL     1      -1.552  -4.015   0.205  0.00  0.00    +0.037 A 
ATOM     16  C   UNL     1      -1.058  -5.322   0.199  0.00  0.00    +0.014 A 
ATOM     17  C   UNL     1      -1.929  -6.385   0.305  0.00  0.00    +0.021 A 
ATOM     18  C   UNL     1      -3.291  -6.160   0.417  0.00  0.00    +0.041 A 
ATOM     19  C   UNL     1      -3.787  -4.867   0.424  0.00  0.00    +0.021 A 
ATOM     20  C   UNL     1      -2.926  -3.795   0.325  0.00  0.00    +0.014 A 
ATOM     21 CL   UNL     1      -4.381  -7.505   0.550  0.00  0.00    -0.084 Cl
ENDBRANCH  12  15
ENDBRANCH   7  11
BRANCH   6  22
ATOM     22  C   UNL     1       3.824  -3.015  -0.281  0.00  0.00    +0.241 C 
ATOM     23  O   UNL     1       4.519  -2.694  -1.222  0.00  0.00    -0.273 OA
ATOM     24  N   UNL     1       3.806  -4.295   0.138  0.00  0.00    -0.313 N 
ATOM     25  H   UNL     1       3.251  -4.552   0.891  0.00  0.00    +0.149 HD
BRANCH  24  26
ATOM     26  C   UNL     1       4.625  -5.301  -0.543  0.00  0.00    +0.108 C 
BRANCH  26  27
ATOM     27  C   UNL     1       4.422  -6.662   0.124  0.00  0.00    +0.049 C 
BRANCH  27  28
ATOM     28  C   UNL     1       5.264  -7.697  -0.577  0.00  0.00    -0.072 C 
ATOM     29  C   UNL     1       6.430  -7.967  -0.082  0.00  0.00    -0.028 C 
ATOM     30  C   UNL     1       7.384  -8.963  -0.674  0.00  0.00    +0.027 C 
ATOM     31  C   UNL     1       6.645  -9.889  -1.643  0.00  0.00    +0.004 C 
ATOM     32  C   UNL     1       5.816  -9.026  -2.602  0.00  0.00    +0.005 C 
ATOM     33  C   UNL     1       4.697  -8.354  -1.801  0.00  0.00    +0.030 C 
ENDBRANCH  27  28
ENDBRANCH  26  27
ENDBRANCH  24  26
ENDBRANCH   6  22
TORSDOF 6
