REMARK  Name = ZINC11061130
REMARK  7 active torsions:
REMARK  status: ('A' for Active; 'I' for Inactive)
REMARK    1  A    between atoms: C_1  and  C_2
REMARK    2  A    between atoms: C_5  and  C_9
REMARK    3  A    between atoms: C_7  and  C_8
REMARK    4  A    between atoms: N_16  and  C_19
REMARK    5  A    between atoms: C_19  and  C_20
REMARK    6  A    between atoms: N_22  and  N_23
REMARK    7  A    between atoms: C_29  and  C_32
REMARK                            x       y       z     vdW  Elec       q    Type
REMARK                         _______ _______ _______ _____ _____    ______ ____
ROOT
ATOM      1  C   UNL     1      -2.446   0.951   0.019  0.00  0.00    +0.223 C 
ENDROOT
BRANCH   1   9
ATOM      2  C   UNL     1       0.146   5.267   0.029  0.00  0.00    +0.004 A 
ATOM      3  C   UNL     1       1.410   5.755   0.019  0.00  0.00    +0.056 A 
ATOM      4  S   UNL     1       2.420   4.286   0.002  0.00  0.00    -0.076 S 
ATOM      5  C   UNL     1       1.135   3.063   0.008  0.00  0.00    +0.116 A 
ATOM      6  C   UNL     1      -0.047   3.822   0.023  0.00  0.00    +0.080 A 
ATOM      7  C   UNL     1      -1.266   3.071   0.031  0.00  0.00    +0.263 A 
ATOM      8  O   UNL     1      -2.344   3.641   0.044  0.00  0.00    -0.267 OA
ATOM      9  N   UNL     1      -1.204   1.727   0.017  0.00  0.00    -0.290 N 
ATOM     10  C   UNL     1      -0.013   1.076   0.008  0.00  0.00    +0.203 A 
ATOM     11  N   UNL     1       1.116   1.733   0.001  0.00  0.00    -0.230 NA
BRANCH   2  16
ATOM     12  C   UNL     1      -4.375   8.832   0.093  0.00  0.00    +0.044 C 
ATOM     13  C   UNL     1      -3.192   7.899   0.076  0.00  0.00    -0.048 A 
ATOM     14  C   UNL     1      -3.137   6.872  -0.849  0.00  0.00    +0.004 A 
ATOM     15  C   UNL     1      -2.054   6.018  -0.873  0.00  0.00    +0.009 A 
ATOM     16  C   UNL     1      -1.018   6.185   0.045  0.00  0.00    -0.016 A 
ATOM     17  C   UNL     1      -1.078   7.222   0.975  0.00  0.00    +0.012 A 
ATOM     18  C   UNL     1      -2.164   8.073   0.986  0.00  0.00    -0.047 A 
ATOM     19  C   UNL     1      -2.231   9.194   1.991  0.00  0.00    +0.044 C 
ENDBRANCH   2  16
ENDBRANCH   1   9
BRANCH   1  20
ATOM     20  C   UNL     1      -2.866   0.677   1.440  0.00  0.00    +0.250 C 
ATOM     21  O   UNL     1      -2.193   1.089   2.361  0.00  0.00    -0.272 OA
ATOM     22  N   UNL     1      -3.988  -0.026   1.688  0.00  0.00    -0.222 N 
ATOM     23  H   UNL     1      -4.526  -0.356   0.952  0.00  0.00    +0.174 HD
BRANCH  22  24
ATOM     24  N   UNL     1      -4.378  -0.281   3.010  0.00  0.00    -0.137 N 
ATOM     25  C   UNL     1      -5.391   0.351   3.636  0.00  0.00    +0.263 C 
ATOM     26  O   UNL     1      -6.110   1.216   3.182  0.00  0.00    -0.271 OA
ATOM     27  C   UNL     1      -5.441  -0.244   5.025  0.00  0.00    +0.114 C 
ATOM     28  C   UNL     1      -6.785  -0.924   5.263  0.00  0.00    +0.035 C 
ATOM     29  C   UNL     1      -6.805  -1.544   6.663  0.00  0.00    +0.006 C 
ATOM     30  C   UNL     1      -6.576  -0.450   7.707  0.00  0.00    -0.014 C 
ATOM     31  C   UNL     1      -5.214   0.206   7.470  0.00  0.00    +0.006 C 
ATOM     32  C   UNL     1      -5.187   0.833   6.074  0.00  0.00    +0.035 C 
ATOM     33  C   UNL     1      -6.608  -1.066   9.107  0.00  0.00    +0.007 C 
ATOM     34  N   UNL     1      -4.356  -1.233   5.028  0.00  0.00    -0.284 N 
ATOM     35  C   UNL     1      -3.795  -1.186   3.805  0.00  0.00    +0.326 C 
ATOM     36  O   UNL     1      -2.862  -1.885   3.462  0.00  0.00    -0.251 OA
ATOM     37  H   UNL     1      -4.097  -1.809   5.765  0.00  0.00    +0.151 HD
ENDBRANCH  22  24
ENDBRANCH   1  20
TORSDOF 4
