REMARK  Name = ZINC09942143
REMARK  9 active torsions:
REMARK  status: ('A' for Active; 'I' for Inactive)
REMARK    1  A    between atoms: C_1  and  C_2
REMARK    2  A    between atoms: C_2  and  C_3
REMARK    3  A    between atoms: C_3  and  C_4
REMARK    4  A    between atoms: C_4  and  S_5
REMARK    5  A    between atoms: S_5  and  C_6
REMARK    6  A    between atoms: C_8  and  C_29
REMARK    7  A    between atoms: C_11  and  C_14
REMARK    8  A    between atoms: C_17  and  C_20
REMARK    9  A    between atoms: C_32  and  C_35
REMARK                            x       y       z     vdW  Elec       q    Type
REMARK                         _______ _______ _______ _____ _____    ______ ____
ROOT
ATOM      1  C   UNL     1       3.515   4.088  -0.383  0.00  0.00    +0.150 C 
ATOM      2  N   UNL     1       3.784   3.853   0.862  0.00  0.00    -0.254 NA
ATOM      3  C   UNL     1       2.764   3.574   1.866  0.00  0.00    +0.164 C 
ATOM      4  C   UNL     1       1.407   4.107   1.427  0.00  0.00    +0.172 C 
ATOM      5  C   UNL     1       1.151   3.592   0.010  0.00  0.00    +0.129 C 
ATOM      6  N   UNL     1       2.223   4.110  -0.855  0.00  0.00    -0.316 N 
ATOM      7  C   UNL     1       0.351   3.514   2.333  0.00  0.00    +0.240 C 
ATOM      8  O   UNL     1       0.213   2.315   2.443  0.00  0.00    -0.274 OA
ATOM      9  N   UNL     1      -0.433   4.380   3.015  0.00  0.00    -0.239 N 
ATOM     10  C   UNL     1      -0.287   5.705   2.898  0.00  0.00    +0.312 C 
ATOM     11  O   UNL     1      -1.034   6.409   3.547  0.00  0.00    -0.252 OA
ATOM     12  N   UNL     1       0.617   6.314   2.122  0.00  0.00    -0.239 N 
ATOM     13  C   UNL     1       1.491   5.615   1.364  0.00  0.00    +0.240 C 
ATOM     14  O   UNL     1       2.308   6.173   0.663  0.00  0.00    -0.274 OA
ATOM     15  H   UNL     1       2.023   4.458  -1.738  0.00  0.00    +0.149 HD
ATOM     16  H   UNL     1      -1.119   4.030   3.605  0.00  0.00    +0.159 HD
ATOM     17  H   UNL     1       0.645   7.284   2.103  0.00  0.00    +0.159 HD
ENDROOT
BRANCH   5  18
ATOM     18  C   UNL     1       1.171   2.086   0.002  0.00  0.00    -0.026 A 
ATOM     19  C   UNL     1      -0.017   1.378   0.010  0.00  0.00    +0.006 A 
ATOM     20  C   UNL     1       0.002  -0.004   0.002  0.00  0.00    +0.004 A 
ATOM     21  C   UNL     1       1.208  -0.679  -0.013  0.00  0.00    -0.050 A 
ATOM     22  C   UNL     1       2.396   0.029  -0.021  0.00  0.00    +0.004 A 
ATOM     23  C   UNL     1       2.377   1.411  -0.015  0.00  0.00    +0.006 A 
ATOM     24  C   UNL     1       1.229  -2.186  -0.021  0.00  0.00    +0.044 C 
ENDBRANCH   5  18
BRANCH   3  25
ATOM     25  C   UNL     1       3.156   4.228   3.165  0.00  0.00    -0.022 A 
ATOM     26  C   UNL     1       3.696   5.500   3.163  0.00  0.00    +0.006 A 
ATOM     27  C   UNL     1       4.052   6.103   4.355  0.00  0.00    +0.004 A 
ATOM     28  C   UNL     1       3.876   5.429   5.549  0.00  0.00    -0.050 A 
ATOM     29  C   UNL     1       3.340   4.155   5.551  0.00  0.00    +0.004 A 
ATOM     30  C   UNL     1       2.979   3.555   4.360  0.00  0.00    +0.006 A 
ATOM     31  C   UNL     1       4.269   6.084   6.848  0.00  0.00    +0.044 C 
ENDBRANCH   3  25
BRANCH   1  32
ATOM     32  S   UNL     1       4.841   4.390  -1.503  0.00  0.00    -0.091 S 
BRANCH  32  33
ATOM     33  C   UNL     1       6.247   4.242  -0.373  0.00  0.00    +0.077 C 
BRANCH  33  34
ATOM     34  C   UNL     1       7.548   4.471  -1.145  0.00  0.00    +0.011 C 
BRANCH  34  36
ATOM     35  C   UNL     1      10.038   4.576  -0.961  0.00  0.00    +0.004 C 
ATOM     36  C   UNL     1       8.737   4.346  -0.189  0.00  0.00    -0.003 C 
ENDBRANCH  34  36
ENDBRANCH  33  34
ENDBRANCH  32  33
ENDBRANCH   1  32
TORSDOF 6
