REMARK  Name = ZINC02724648
REMARK  11 active torsions:
REMARK  status: ('A' for Active; 'I' for Inactive)
REMARK    1  A    between atoms: C_1  and  C_2
REMARK    2  A    between atoms: C_2  and  O_3
REMARK    3  A    between atoms: O_3  and  C_4
REMARK    4  A    between atoms: C_6  and  C_16
REMARK    5  A    between atoms: C_8  and  O_13
REMARK    6  A    between atoms: C_9  and  O_10
REMARK    7  A    between atoms: O_10  and  C_11
REMARK    8  A    between atoms: C_11  and  C_12
REMARK    9  A    between atoms: O_13  and  C_14
REMARK   10  A    between atoms: C_14  and  C_15
REMARK   11  A    between atoms: C_29  and  C_31
REMARK                            x       y       z     vdW  Elec       q    Type
REMARK                         _______ _______ _______ _____ _____    ______ ____
ROOT
ATOM      1  C   UNL     1      -3.383   0.837  -2.700  0.00  0.00    +0.248 C 
ATOM      2  O   UNL     1      -2.924  -0.126  -3.283  0.00  0.00    -0.270 OA
ATOM      3  N   UNL     1      -2.723   1.371  -1.653  0.00  0.00    -0.278 N 
ATOM      4  C   UNL     1      -1.684   0.578  -1.019  0.00  0.00    +0.205 C 
ATOM      5  C   UNL     1      -0.340   1.164  -1.307  0.00  0.00    +0.235 C 
ATOM      6  O   UNL     1       0.580   0.384  -1.437  0.00  0.00    -0.274 OA
ATOM      7  N   UNL     1      -0.056   2.428  -1.433  0.00  0.00    -0.284 N 
ATOM      8  C   UNL     1      -0.745   3.591  -1.687  0.00  0.00    +0.039 A 
ATOM      9  C   UNL     1       0.054   4.693  -2.038  0.00  0.00    +0.025 A 
ATOM     10  C   UNL     1      -0.499   5.916  -2.327  0.00  0.00    +0.022 A 
ATOM     11  C   UNL     1      -1.872   6.079  -2.267  0.00  0.00    +0.041 A 
ATOM     12  C   UNL     1      -2.664   5.009  -1.910  0.00  0.00    +0.027 A 
ATOM     13  C   UNL     1      -2.111   3.765  -1.611  0.00  0.00    -0.000 A 
ATOM     14  C   UNL     1      -3.083   2.695  -1.222  0.00  0.00    +0.139 C 
ATOM     15 CL   UNL     1      -2.590   7.615  -2.640  0.00  0.00    -0.084 Cl
ATOM     16  H   UNL     1       0.892   2.594  -1.317  0.00  0.00    +0.155 HD
ENDROOT
BRANCH  14  17
ATOM     17  C   UNL     1      -3.210   2.689   0.279  0.00  0.00    -0.022 A 
ATOM     18  C   UNL     1      -2.102   2.433   1.065  0.00  0.00    +0.008 A 
ATOM     19  C   UNL     1      -2.216   2.433   2.442  0.00  0.00    +0.038 A 
ATOM     20  C   UNL     1      -3.442   2.684   3.035  0.00  0.00    +0.123 A 
ATOM     21  C   UNL     1      -4.552   2.935   2.247  0.00  0.00    +0.038 A 
ATOM     22  C   UNL     1      -4.436   2.935   0.870  0.00  0.00    +0.008 A 
ATOM     23  F   UNL     1      -3.555   2.684   4.381  0.00  0.00    -0.205 F 
ENDBRANCH  14  17
BRANCH   1  26
ATOM     24  C   UNL     1      -6.946   1.142  -3.854  0.00  0.00    +0.166 A 
ATOM     25  C   UNL     1      -5.747   0.592  -3.443  0.00  0.00    +0.062 A 
ATOM     26  C   UNL     1      -4.665   1.423  -3.139  0.00  0.00    +0.044 A 
ATOM     27  C   UNL     1      -4.801   2.809  -3.246  0.00  0.00    +0.062 A 
ATOM     28  C   UNL     1      -6.001   3.354  -3.663  0.00  0.00    +0.166 A 
ATOM     29  C   UNL     1      -7.077   2.524  -3.965  0.00  0.00    +0.204 A 
BRANCH  24  30
ATOM     30  O   UNL     1      -7.999   0.334  -4.150  0.00  0.00    -0.488 OA
BRANCH  30  32
ATOM     31  C   UNL     1      -9.079  -1.815  -4.388  0.00  0.00    +0.048 C 
ATOM     32  C   UNL     1      -7.794  -1.074  -4.014  0.00  0.00    +0.226 C 
ENDBRANCH  30  32
ENDBRANCH  24  30
BRANCH  29  33
ATOM     33  O   UNL     1      -8.257   3.063  -4.370  0.00  0.00    -0.485 OA
BRANCH  33  34
ATOM     34  C   UNL     1      -9.208   3.381  -3.352  0.00  0.00    +0.226 C 
ATOM     35  C   UNL     1     -10.464   3.973  -3.994  0.00  0.00    +0.048 C 
ENDBRANCH  33  34
ENDBRANCH  29  33
BRANCH  28  36
ATOM     36  O   UNL     1      -6.133   4.703  -3.773  0.00  0.00    -0.488 OA
BRANCH  36  37
ATOM     37  C   UNL     1      -5.404   5.505  -2.841  0.00  0.00    +0.226 C 
ATOM     38  C   UNL     1      -5.781   6.975  -3.028  0.00  0.00    +0.048 C 
ENDBRANCH  36  37
ENDBRANCH  28  36
ENDBRANCH   1  26
TORSDOF 8
