REMARK  Name = ZINC24971774
REMARK  6 active torsions:
REMARK  status: ('A' for Active; 'I' for Inactive)
REMARK    1  A    between atoms: C_1  and  C_2
REMARK    2  A    between atoms: C_2  and  C_25
REMARK    3  A    between atoms: N_5  and  C_9
REMARK    4  A    between atoms: C_9  and  C_10
REMARK    5  A    between atoms: N_12  and  C_13
REMARK    6  A    between atoms: C_13  and  C_14
REMARK                            x       y       z     vdW  Elec       q    Type
REMARK                         _______ _______ _______ _____ _____    ______ ____
ROOT
ATOM      1  C   UNL     1       1.738  -1.204  -1.279  0.00  0.00    +0.050 C 
ATOM      2  C   UNL     1       1.419  -0.406  -0.014  0.00  0.00    +0.168 C 
ATOM      3  C   UNL     1       2.164   0.914  -0.014  0.00  0.00    +0.254 C 
ATOM      4  O   UNL     1       3.365   1.077  -0.025  0.00  0.00    -0.272 OA
ATOM      5  N   UNL     1       1.213   1.869   0.001  0.00  0.00    -0.215 N 
ATOM      6  C   UNL     1      -0.016   1.341   0.009  0.00  0.00    +0.310 C 
ATOM      7  O   UNL     1      -1.036   2.003   0.018  0.00  0.00    -0.252 OA
ATOM      8  N   UNL     1       0.002  -0.004   0.002  0.00  0.00    -0.279 N 
ATOM      9  H   UNL     1      -0.787  -0.770   0.005  0.00  0.00    +0.152 HD
ENDROOT
BRANCH   2  10
ATOM     10  C   UNL     1       1.757  -1.206   1.218  0.00  0.00    +0.138 A 
ATOM     11  C   UNL     1       0.903  -2.005   1.872  0.00  0.00    +0.056 A 
ATOM     12  C   UNL     1       1.656  -2.577   2.995  0.00  0.00    +0.020 A 
ATOM     13  C   UNL     1       1.347  -3.465   4.024  0.00  0.00    +0.011 A 
ATOM     14  C   UNL     1       2.305  -3.799   4.941  0.00  0.00    +0.001 A 
ATOM     15  C   UNL     1       3.581  -3.260   4.853  0.00  0.00    +0.004 A 
ATOM     16  C   UNL     1       3.904  -2.380   3.843  0.00  0.00    +0.047 A 
ATOM     17  C   UNL     1       2.946  -2.027   2.900  0.00  0.00    +0.135 A 
ATOM     18  O   UNL     1       2.957  -1.216   1.824  0.00  0.00    -0.457 OA
ENDBRANCH   2  10
BRANCH   5  19
ATOM     19  C   UNL     1       1.491   3.307   0.005  0.00  0.00    +0.213 C 
BRANCH  19  20
ATOM     20  C   UNL     1       1.600   3.794   1.427  0.00  0.00    +0.231 C 
ATOM     21  O   UNL     1       1.460   3.016   2.346  0.00  0.00    -0.274 OA
ATOM     22  N   UNL     1       1.854   5.094   1.677  0.00  0.00    -0.310 N 
ATOM     23  H   UNL     1       1.982   5.799   0.843  0.00  0.00    +0.149 HD
BRANCH  22  24
ATOM     24  C   UNL     1       1.960   5.566   3.059  0.00  0.00    +0.152 C 
BRANCH  24  25
ATOM     25  C   UNL     1       2.251   7.069   3.063  0.00  0.00    +0.228 C 
ATOM     26  C   UNL     1       2.363   7.570   4.510  0.00  0.00    +0.275 C 
ATOM     27  O   UNL     1       2.648   8.973   4.477  0.00  0.00    -0.485 OA
ATOM     28  C   UNL     1       3.619   9.380   3.615  0.00  0.00    +0.162 A 
ATOM     29  C   UNL     1       4.193  10.632   3.778  0.00  0.00    +0.049 A 
ATOM     30  C   UNL     1       5.179  11.061   2.910  0.00  0.00    +0.004 A 
ATOM     31  C   UNL     1       5.595  10.243   1.875  0.00  0.00    +0.004 A 
ATOM     32  C   UNL     1       5.029   8.994   1.708  0.00  0.00    +0.049 A 
ATOM     33  C   UNL     1       4.040   8.557   2.577  0.00  0.00    +0.163 A 
ATOM     34  O   UNL     1       3.496   7.322   2.404  0.00  0.00    -0.480 OA
ENDBRANCH  24  25
ENDBRANCH  22  24
ENDBRANCH  19  20
ENDBRANCH   5  19
TORSDOF 5
