REMARK  Name = ZINC39633778
REMARK  7 active torsions:
REMARK  status: ('A' for Active; 'I' for Inactive)
REMARK    1  A    between atoms: C_1  and  O_2
REMARK    2  A    between atoms: O_2  and  C_3
REMARK    3  A    between atoms: C_6  and  C_9
REMARK    4  A    between atoms: C_9  and  C_10
REMARK    5  A    between atoms: C_10  and  C_11
REMARK    6  A    between atoms: C_15  and  C_24
REMARK    7  A    between atoms: N_26  and  C_27
REMARK                            x       y       z     vdW  Elec       q    Type
REMARK                         _______ _______ _______ _____ _____    ______ ____
ROOT
ATOM      1  C   UNL     1       4.698  -3.426  -5.380  0.00  0.00    +0.216 C 
ATOM      2  O   UNL     1       4.067  -3.756  -6.362  0.00  0.00    -0.276 OA
ATOM      3  N   UNL     1       6.006  -3.736  -5.285  0.00  0.00    -0.300 N 
ATOM      4  C   UNL     1       6.934  -3.428  -4.171  0.00  0.00    +0.121 C 
ATOM      5  C   UNL     1       7.813  -4.691  -4.034  0.00  0.00    +0.100 C 
ATOM      6  C   UNL     1       7.751  -5.363  -5.416  0.00  0.00    -0.004 C 
ATOM      7  C   UNL     1       6.841  -4.467  -6.268  0.00  0.00    +0.115 C 
ATOM      8  C   UNL     1       9.145  -5.439  -6.030  0.00  0.00    -0.010 C 
ATOM      9  C   UNL     1       9.066  -6.163  -7.377  0.00  0.00    -0.082 C 
ATOM     10  N   UNL     1       8.524  -7.513  -7.178  0.00  0.00    +0.379 N 
ATOM     11  C   UNL     1       7.147  -7.430  -6.674  0.00  0.00    -0.082 C 
ATOM     12  C   UNL     1       7.146  -6.759  -5.297  0.00  0.00    -0.010 C 
ATOM     13  H   UNL     1       8.529  -8.009  -8.056  0.00  0.00    -0.086 HD
ATOM     14  H   UNL     1       9.095  -8.009  -6.511  0.00  0.00    -0.086 HD
ENDROOT
BRANCH   5  15
ATOM     15  C   UNL     1       9.232  -4.309  -3.698  0.00  0.00    +0.218 C 
ATOM     16  O   UNL     1       9.689  -3.259  -4.099  0.00  0.00    -0.275 OA
ATOM     17  N   UNL     1       9.992  -5.133  -2.950  0.00  0.00    -0.312 N 
ATOM     18  H   UNL     1       9.627  -5.972  -2.629  0.00  0.00    +0.149 HD
BRANCH  17  19
ATOM     19  C   UNL     1      11.371  -4.761  -2.623  0.00  0.00    +0.073 C 
ATOM     20  C   UNL     1      12.282  -5.125  -3.813  0.00  0.00    +0.022 C 
ATOM     21  C   UNL     1      13.546  -4.313  -3.713  0.00  0.00    +0.002 C 
ATOM     22  C   UNL     1      14.675  -5.069  -2.987  0.00  0.00    +0.000 C 
ATOM     23  C   UNL     1      14.179  -5.841  -1.750  0.00  0.00    +0.000 C 
ATOM     24  C   UNL     1      13.185  -5.053  -0.940  0.00  0.00    +0.002 C 
ATOM     25  C   UNL     1      11.764  -5.440  -1.397  0.00  0.00    +0.022 C 
ENDBRANCH  17  19
ENDBRANCH   5  15
BRANCH   1  26
ATOM     26  C   UNL     1       4.019  -2.672  -4.266  0.00  0.00    +0.100 C 
BRANCH  26  27
ATOM     27  C   UNL     1       2.548  -2.451  -4.622  0.00  0.00    +0.044 C 
BRANCH  27  31
ATOM     28  C   UNL     1       0.623  -0.311  -1.464  0.00  0.00    +0.120 A 
ATOM     29  C   UNL     1       1.220   0.380  -2.508  0.00  0.00    +0.046 A 
ATOM     30  C   UNL     1       1.842  -0.314  -3.528  0.00  0.00    +0.007 A 
ATOM     31  C   UNL     1       1.869  -1.696  -3.508  0.00  0.00    -0.047 A 
ATOM     32  C   UNL     1       1.274  -2.387  -2.468  0.00  0.00    +0.007 A 
ATOM     33  C   UNL     1       0.657  -1.698  -1.443  0.00  0.00    +0.046 A 
BRANCH  28  35
ATOM     34  C   UNL     1       0.015   1.796  -0.546  0.00  0.00    +0.277 C 
ATOM     35  O   UNL     1       0.011   0.370  -0.459  0.00  0.00    -0.495 OA
ENDBRANCH  28  35
ENDBRANCH  27  31
ENDBRANCH  26  27
ENDBRANCH   1  26
TORSDOF 6
