REMARK  Name = ZINC45259457
REMARK  9 active torsions:
REMARK  status: ('A' for Active; 'I' for Inactive)
REMARK    1  A    between atoms: C_1  and  C_2
REMARK    2  A    between atoms: C_2  and  C_3
REMARK    3  A    between atoms: C_2  and  N_4
REMARK    4  A    between atoms: C_12  and  N_13
REMARK    5  A    between atoms: N_13  and  C_14
REMARK    6  A    between atoms: C_14  and  C_15
REMARK    7  A    between atoms: C_18  and  C_20
REMARK    8  A    between atoms: N_26  and  C_27
REMARK    9  A    between atoms: C_30  and  N_33
REMARK                            x       y       z     vdW  Elec       q    Type
REMARK                         _______ _______ _______ _____ _____    ______ ____
ROOT
ATOM      1  N   UNL     1       0.711  -0.489   1.189  0.00  0.00    -0.312 N 
ATOM      2  C   UNL     1       2.006  -0.219   1.523  0.00  0.00    +0.201 A 
ATOM      3  N   UNL     1       2.309  -0.811   2.641  0.00  0.00    -0.231 NA
ATOM      4  C   UNL     1       1.231  -1.497   3.095  0.00  0.00    +0.148 A 
ATOM      5  C   UNL     1       0.192  -1.294   2.172  0.00  0.00    +0.167 A 
ATOM      6  N   UNL     1      -0.990  -1.862   2.391  0.00  0.00    -0.195 NA
ATOM      7  C   UNL     1      -1.189  -2.608   3.465  0.00  0.00    +0.219 A 
ATOM      8  N   UNL     1      -0.237  -2.824   4.364  0.00  0.00    -0.197 NA
ATOM      9  C   UNL     1       0.975  -2.300   4.220  0.00  0.00    +0.152 A 
ATOM     10  N   UNL     1      -2.434  -3.183   3.659  0.00  0.00    -0.311 N 
ATOM     11  H   UNL     1      -3.142  -3.036   3.012  0.00  0.00    +0.149 HD
ENDROOT
BRANCH  10  12
ATOM     12  C   UNL     1      -2.682  -4.013   4.840  0.00  0.00    +0.073 C 
ATOM     13  C   UNL     1      -2.226  -5.447   4.561  0.00  0.00    +0.021 C 
ATOM     14  C   UNL     1      -3.007  -6.008   3.370  0.00  0.00    -0.014 C 
ATOM     15  C   UNL     1      -4.502  -6.002   3.693  0.00  0.00    -0.075 C 
ATOM     16  C   UNL     1      -4.958  -4.568   3.972  0.00  0.00    -0.014 C 
ATOM     17  C   UNL     1      -4.178  -4.008   5.163  0.00  0.00    +0.021 C 
BRANCH  15  18
ATOM     18  N   UNL     1      -5.252  -6.540   2.550  0.00  0.00    +0.380 N 
ATOM     19  H   UNL     1      -4.951  -7.485   2.365  0.00  0.00    -0.090 HD
ATOM     20  H   UNL     1      -6.238  -6.536   2.763  0.00  0.00    -0.090 HD
ATOM     21  H   UNL     1      -5.081  -5.968   1.736  0.00  0.00    -0.090 HD
ENDBRANCH  15  18
ENDBRANCH  10  12
BRANCH   1  23
ATOM     22  C   UNL     1      -0.019   1.526   0.010  0.00  0.00    +0.030 C 
ATOM     23  C   UNL     1       0.002  -0.004   0.002  0.00  0.00    +0.084 C 
ATOM     24  C   UNL     1       0.718  -0.497  -1.257  0.00  0.00    +0.030 C 
ENDBRANCH   1  23
BRANCH   9  25
ATOM     25  N   UNL     1       1.961  -2.530   5.163  0.00  0.00    -0.323 N 
ATOM     26  H   UNL     1       2.840  -2.134   5.052  0.00  0.00    +0.148 HD
BRANCH  25  27
ATOM     27  C   UNL     1       1.678  -3.370   6.329  0.00  0.00    +0.145 C 
BRANCH  27  28
ATOM     28  C   UNL     1       2.908  -3.459   7.195  0.00  0.00    +0.007 A 
ATOM     29  C   UNL     1       3.287  -2.660   8.226  0.00  0.00    +0.013 A 
ATOM     30  C   UNL     1       4.465  -2.929   8.886  0.00  0.00    +0.018 A 
ATOM     31  C   UNL     1       5.219  -3.998   8.477  0.00  0.00    +0.038 A 
ATOM     32  S   UNL     1       4.240  -4.647   7.133  0.00  0.00    -0.090 S 
BRANCH  31  33
ATOM     33  C   UNL     1       6.505  -4.488   9.014  0.00  0.00    +0.078 A 
ATOM     34  C   UNL     1       7.114  -5.605   8.439  0.00  0.00    +0.029 A 
ATOM     35  C   UNL     1       8.318  -6.052   8.953  0.00  0.00    +0.004 A 
ATOM     36  C   UNL     1       8.876  -5.368  10.025  0.00  0.00    +0.020 A 
ATOM     37  C   UNL     1       8.220  -4.269  10.546  0.00  0.00    +0.111 A 
ATOM     38  N   UNL     1       7.076  -3.859  10.035  0.00  0.00    -0.254 NA
ENDBRANCH  31  33
ENDBRANCH  27  28
ENDBRANCH  25  27
ENDBRANCH   9  25
TORSDOF 7
