REMARK  Name = ZINC64773142
REMARK  8 active torsions:
REMARK  status: ('A' for Active; 'I' for Inactive)
REMARK    1  A    between atoms: C_1  and  C_2
REMARK    2  A    between atoms: C_2  and  O_3
REMARK    3  A    between atoms: O_3  and  C_4
REMARK    4  A    between atoms: C_6  and  C_11
REMARK    5  A    between atoms: C_9  and  O_10
REMARK    6  A    between atoms: C_19  and  S_25
REMARK    7  A    between atoms: S_25  and  C_26
REMARK    8  A    between atoms: C_26  and  C_27
REMARK                            x       y       z     vdW  Elec       q    Type
REMARK                         _______ _______ _______ _____ _____    ______ ____
ROOT
ATOM      1  C   UNL     1      -0.217  -4.963  -0.535  0.00  0.00    +0.047 C 
ATOM      2  C   UNL     1       0.887  -5.839  -1.135  0.00  0.00    +0.105 C 
ATOM      3  C   UNL     1       0.303  -6.964  -1.938  0.00  0.00    +0.219 C 
ATOM      4  O   UNL     1       1.012  -7.512  -2.754  0.00  0.00    -0.275 OA
ATOM      5  N   UNL     1      -0.959  -7.396  -1.802  0.00  0.00    -0.273 N 
ATOM      6  C   UNL     1      -1.828  -6.768  -0.956  0.00  0.00    +0.117 C 
ATOM      7  N   UNL     1      -3.114  -6.931  -1.082  0.00  0.00    -0.212 NA
ATOM      8  C   UNL     1      -3.996  -6.243  -0.346  0.00  0.00    +0.182 C 
ATOM      9  N   UNL     1      -3.619  -5.322   0.529  0.00  0.00    -0.154 NA
ATOM     10  C   UNL     1      -2.339  -5.082   0.779  0.00  0.00    +0.249 C 
ATOM     11  O   UNL     1      -2.039  -4.200   1.560  0.00  0.00    -0.273 OA
ATOM     12  C   UNL     1      -1.258  -5.877   0.118  0.00  0.00    +0.148 C 
ATOM     13  H   UNL     1      -1.258  -8.165  -2.312  0.00  0.00    +0.156 HD
ENDROOT
BRANCH   1  16
ATOM     14  C   UNL     1       0.802  -1.825   1.306  0.00  0.00    +0.162 A 
ATOM     15  C   UNL     1       0.261  -2.673   0.353  0.00  0.00    +0.053 A 
ATOM     16  C   UNL     1       0.372  -4.043   0.502  0.00  0.00    -0.039 A 
ATOM     17  C   UNL     1       1.024  -4.570   1.602  0.00  0.00    +0.008 A 
ATOM     18  C   UNL     1       1.566  -3.730   2.557  0.00  0.00    +0.049 A 
ATOM     19  C   UNL     1       1.462  -2.356   2.410  0.00  0.00    +0.158 A 
BRANCH  19  20
ATOM     20  O   UNL     1       2.000  -1.528   3.345  0.00  0.00    -0.503 OA
ATOM     21  H   UNL     1       1.395  -1.301   4.064  0.00  0.00    +0.292 HD
ENDBRANCH  19  20
BRANCH  14  22
ATOM     22  O   UNL     1       0.693  -0.477   1.160  0.00  0.00    -0.489 OA
BRANCH  22  24
ATOM     23  C   UNL     1      -0.019   1.526   0.010  0.00  0.00    +0.048 C 
ATOM     24  C   UNL     1       0.002  -0.004   0.002  0.00  0.00    +0.226 C 
ENDBRANCH  22  24
ENDBRANCH  14  22
ENDBRANCH   1  16
BRANCH   8  25
ATOM     25  S   UNL     1      -5.715  -6.575  -0.547  0.00  0.00    -0.084 S 
BRANCH  25  26
ATOM     26  C   UNL     1      -6.519  -5.442   0.620  0.00  0.00    +0.112 C 
BRANCH  26  27
ATOM     27  C   UNL     1      -8.014  -5.625   0.548  0.00  0.00    -0.036 A 
ATOM     28  C   UNL     1      -8.759  -4.876  -0.343  0.00  0.00    +0.004 A 
ATOM     29  C   UNL     1     -10.130  -5.043  -0.409  0.00  0.00    +0.002 A 
ATOM     30  C   UNL     1     -10.756  -5.958   0.416  0.00  0.00    +0.020 A 
ATOM     31  C   UNL     1     -10.010  -6.708   1.308  0.00  0.00    +0.041 A 
ATOM     32  C   UNL     1      -8.637  -6.545   1.370  0.00  0.00    +0.024 A 
ATOM     33 CL   UNL     1     -10.795  -7.858   2.345  0.00  0.00    -0.084 Cl
ENDBRANCH  26  27
ENDBRANCH  25  26
ENDBRANCH   8  25
TORSDOF 7
