REMARK  Name = ZINC13098886
REMARK  8 active torsions:
REMARK  status: ('A' for Active; 'I' for Inactive)
REMARK    1  A    between atoms: C_7  and  C_11
REMARK    2  A    between atoms: C_11  and  C_13
REMARK    3  A    between atoms: C_11  and  C_34
REMARK    4  A    between atoms: C_13  and  N_14
REMARK    5  A    between atoms: C_15  and  C_17
REMARK    6  A    between atoms: C_20  and  S_26
REMARK    7  A    between atoms: C_21  and  N_23
REMARK    8  A    between atoms: S_26  and  C_27
REMARK                            x       y       z     vdW  Elec       q    Type
REMARK                         _______ _______ _______ _____ _____    ______ ____
ROOT
ATOM      1  N   UNL     1       5.756   5.156  -2.243  0.00  0.00    -0.310 N 
ATOM      2  C   UNL     1       6.675   5.474  -3.177  0.00  0.00    +0.244 C 
ATOM      3  O   UNL     1       6.365   6.176  -4.120  0.00  0.00    -0.270 OA
ATOM      4  H   UNL     1       6.003   4.596  -1.491  0.00  0.00    +0.149 HD
ENDROOT
BRANCH   2   5
ATOM      5  C   UNL     1       8.056   4.971  -3.054  0.00  0.00    +0.039 A 
ATOM      6  C   UNL     1       8.415   4.168  -1.966  0.00  0.00    +0.014 A 
ATOM      7  C   UNL     1       9.692   3.697  -1.856  0.00  0.00    +0.018 A 
ATOM      8  C   UNL     1      10.645   4.024  -2.818  0.00  0.00    +0.043 A 
ATOM      9  C   UNL     1      10.297   4.827  -3.901  0.00  0.00    +0.141 A 
ATOM     10  C   UNL     1       9.010   5.300  -4.021  0.00  0.00    +0.047 A 
BRANCH   9  11
ATOM     11  N   UNL     1      11.311   5.172  -4.923  0.00  0.00    +0.058 N 
ATOM     12  O   UNL     1      11.007   5.875  -5.870  0.00  0.00    -0.126 OA
ATOM     13  O   UNL     1      12.450   4.754  -4.816  0.00  0.00    -0.126 OA
ENDBRANCH   9  11
BRANCH   8  14
ATOM     14  S   UNL     1      12.292   3.418  -2.665  0.00  0.00    -0.087 S 
BRANCH  14  15
ATOM     15  C   UNL     1      12.369   2.092  -3.823  0.00  0.00    +0.013 A 
ATOM     16  C   UNL     1      11.220   1.685  -4.491  0.00  0.00    +0.018 A 
ATOM     17  C   UNL     1      11.284   0.649  -5.401  0.00  0.00    +0.039 A 
ATOM     18  C   UNL     1      12.488   0.009  -5.642  0.00  0.00    +0.123 A 
ATOM     19  C   UNL     1      13.633   0.410  -4.973  0.00  0.00    +0.039 A 
ATOM     20  C   UNL     1      13.576   1.449  -4.066  0.00  0.00    +0.018 A 
ATOM     21  F   UNL     1      12.547  -1.007  -6.530  0.00  0.00    -0.205 F 
ENDBRANCH  14  15
ENDBRANCH   8  14
ENDBRANCH   2   5
BRANCH   1  22
ATOM     22  C   UNL     1       4.385   5.656  -2.365  0.00  0.00    +0.118 C 
BRANCH  22  23
ATOM     23  C   UNL     1       3.551   5.152  -1.185  0.00  0.00    +0.075 C 
BRANCH  23  30
ATOM     24  C   UNL     1      -0.450   2.740  -1.563  0.00  0.00    +0.001 A 
ATOM     25  C   UNL     1      -1.560   3.557  -1.734  0.00  0.00    +0.002 A 
ATOM     26  C   UNL     1      -1.425   4.928  -1.768  0.00  0.00    +0.026 A 
ATOM     27  C   UNL     1      -0.164   5.501  -1.642  0.00  0.00    +0.047 A 
ATOM     28  C   UNL     1       0.958   4.669  -1.475  0.00  0.00    +0.003 A 
ATOM     29  C   UNL     1       0.798   3.283  -1.437  0.00  0.00    +0.010 A 
ATOM     30  C   UNL     1       2.114   5.563  -1.373  0.00  0.00    -0.013 A 
ATOM     31  C   UNL     1       1.649   6.818  -1.480  0.00  0.00    +0.088 A 
ATOM     32  N   UNL     1       0.291   6.801  -1.641  0.00  0.00    -0.360 N 
ATOM     33  H   UNL     1      -0.269   7.587  -1.740  0.00  0.00    +0.165 HD
ENDBRANCH  23  30
BRANCH  23  34
ATOM     34  C   UNL     1       4.081   5.749   0.094  0.00  0.00    -0.001 A 
ATOM     35  C   UNL     1       4.576   5.120   1.188  0.00  0.00    +0.012 A 
ATOM     36  C   UNL     1       5.010   5.879   2.258  0.00  0.00    +0.008 A 
ATOM     37  C   UNL     1       4.928   7.230   2.182  0.00  0.00    +0.045 A 
ATOM     38  S   UNL     1       4.225   7.466   0.558  0.00  0.00    -0.101 S 
ENDBRANCH  23  34
ENDBRANCH  22  23
ENDBRANCH   1  22
TORSDOF 8
