REMARK  Name = ZINC08957501
REMARK  16 active torsions:
REMARK  status: ('A' for Active; 'I' for Inactive)
REMARK    1  A    between atoms: C_1  and  C_2
REMARK    2  A    between atoms: C_4  and  C_35
REMARK    3  A    between atoms: N_10  and  C_11
REMARK    4  A    between atoms: C_11  and  C_13
REMARK    5  A    between atoms: C_16  and  S_19
REMARK    6  A    between atoms: S_19  and  N_22
REMARK    7  A    between atoms: N_22  and  C_23
REMARK    8  A    between atoms: N_22  and  C_27
REMARK    9  A    between atoms: C_23  and  C_24
REMARK   10  A    between atoms: C_24  and  O_25
REMARK   11  A    between atoms: O_25  and  C_26
REMARK   12  A    between atoms: C_27  and  C_28
REMARK   13  A    between atoms: C_28  and  O_29
REMARK   14  A    between atoms: O_29  and  C_30
REMARK   15  A    between atoms: N_31  and  C_32
REMARK   16  A    between atoms: C_32  and  C_33
REMARK                            x       y       z     vdW  Elec       q    Type
REMARK                         _______ _______ _______ _____ _____    ______ ____
ROOT
ATOM      1  C   UNL     1       3.083  -2.524   3.505  0.00  0.00    +0.039 A 
ATOM      2  C   UNL     1       3.986  -2.149   2.510  0.00  0.00    +0.015 A 
ATOM      3  C   UNL     1       5.338  -2.345   2.701  0.00  0.00    +0.029 A 
ATOM      4  C   UNL     1       5.799  -2.921   3.872  0.00  0.00    +0.106 A 
ATOM      5  C   UNL     1       4.908  -3.299   4.860  0.00  0.00    +0.029 A 
ATOM      6  C   UNL     1       3.553  -3.105   4.683  0.00  0.00    +0.015 A 
ENDROOT
BRANCH   4   7
ATOM      7  S   UNL     1       7.527  -3.173   4.105  0.00  0.00    +0.061 S 
ATOM      8  O   UNL     1       8.191  -2.237   3.267  0.00  0.00    -0.153 OA
ATOM      9  O   UNL     1       7.744  -3.228   5.508  0.00  0.00    -0.153 OA
BRANCH   7  10
ATOM     10  N   UNL     1       7.886  -4.677   3.511  0.00  0.00    -0.172 NA
BRANCH  10  11
ATOM     11  C   UNL     1       8.273  -4.837   2.107  0.00  0.00    +0.137 C 
BRANCH  11  12
ATOM     12  C   UNL     1       9.799  -4.828   1.994  0.00  0.00    +0.176 C 
BRANCH  12  13
ATOM     13  O   UNL     1      10.333  -5.971   2.666  0.00  0.00    -0.382 OA
ATOM     14  C   UNL     1      11.758  -6.059   2.620  0.00  0.00    +0.194 C 
ENDBRANCH  12  13
ENDBRANCH  11  12
ENDBRANCH  10  11
BRANCH  10  15
ATOM     15  C   UNL     1       7.818  -5.847   4.390  0.00  0.00    +0.137 C 
BRANCH  15  16
ATOM     16  C   UNL     1       6.450  -6.516   4.242  0.00  0.00    +0.176 C 
BRANCH  16  17
ATOM     17  O   UNL     1       6.312  -7.031   2.916  0.00  0.00    -0.382 OA
ATOM     18  C   UNL     1       5.063  -7.680   2.671  0.00  0.00    +0.194 C 
ENDBRANCH  16  17
ENDBRANCH  15  16
ENDBRANCH  10  15
ENDBRANCH   7  10
ENDBRANCH   4   7
BRANCH   1  19
ATOM     19  C   UNL     1       1.630  -2.312   3.309  0.00  0.00    +0.269 C 
ATOM     20  O   UNL     1       0.843  -2.645   4.178  0.00  0.00    -0.268 OA
BRANCH  19  30
ATOM     21  C   UNL     1      -6.425  -0.776   1.392  0.00  0.00    +0.044 C 
ATOM     22  C   UNL     1      -4.927  -0.826   1.236  0.00  0.00    -0.049 A 
ATOM     23  C   UNL     1      -4.327  -0.347   0.083  0.00  0.00    +0.008 A 
ATOM     24  C   UNL     1      -2.962  -0.383  -0.078  0.00  0.00    -0.026 A 
ATOM     25  C   UNL     1      -2.135  -0.908   0.927  0.00  0.00    +0.061 A 
ATOM     26  C   UNL     1      -2.770  -1.385   2.083  0.00  0.00    +0.039 A 
ATOM     27  C   UNL     1      -4.135  -1.349   2.243  0.00  0.00    +0.020 A 
ATOM     28  S   UNL     1      -1.420  -1.951   3.086  0.00  0.00    -0.052 S 
ATOM     29  C   UNL     1      -0.121  -1.566   2.004  0.00  0.00    +0.167 A 
ATOM     30  N   UNL     1       1.182  -1.756   2.179  0.00  0.00    -0.152 NA
ATOM     31  N   UNL     1      -0.757  -1.020   0.932  0.00  0.00    -0.317 N 
ATOM     32  C   UNL     1      -2.348   0.148  -1.347  0.00  0.00    +0.046 C 
BRANCH  31  33
ATOM     33  C   UNL     1       0.019  -0.556  -0.221  0.00  0.00    +0.151 C 
BRANCH  33  34
ATOM     34  C   UNL     1       0.329   0.910  -0.061  0.00  0.00    -0.013 C 
ATOM     35  C   UNL     1       1.569   1.327  -0.115  0.00  0.00    +0.005 C 
ENDBRANCH  33  34
ENDBRANCH  31  33
ENDBRANCH  19  30
ENDBRANCH   1  19
TORSDOF 12
