REMARK  Name = ZINC39609544
REMARK  11 active torsions:
REMARK  status: ('A' for Active; 'I' for Inactive)
REMARK    1  A    between atoms: C_1  and  C_2
REMARK    2  A    between atoms: C_2  and  O_3
REMARK    3  A    between atoms: O_3  and  C_4
REMARK    4  A    between atoms: C_8  and  C_10
REMARK    5  A    between atoms: C_10  and  C_11
REMARK    6  A    between atoms: C_11  and  N_12
REMARK    7  A    between atoms: C_13  and  C_15
REMARK    8  A    between atoms: C_26  and  C_28
REMARK    9  A    between atoms: C_31  and  O_38
REMARK   10  A    between atoms: C_32  and  C_34
REMARK   11  A    between atoms: O_38  and  C_39
REMARK                            x       y       z     vdW  Elec       q    Type
REMARK                         _______ _______ _______ _____ _____    ______ ____
ROOT
ATOM      1  C   UNL     1       1.706  -5.157  -8.446  0.00  0.00    +0.100 C 
ATOM      2  C   UNL     1       2.877  -4.395  -9.107  0.00  0.00    +0.121 C 
ATOM      3  N   UNL     1       2.737  -4.676 -10.555  0.00  0.00    -0.296 N 
ATOM      4  C   UNL     1       1.276  -4.634 -10.800  0.00  0.00    +0.115 C 
ATOM      5  C   UNL     1       0.657  -5.311  -9.560  0.00  0.00    -0.004 C 
ATOM      6  C   UNL     1      -0.639  -4.608  -9.168  0.00  0.00    -0.010 C 
ATOM      7  C   UNL     1      -1.685  -4.825 -10.264  0.00  0.00    -0.082 C 
ATOM      8  N   UNL     1      -1.920  -6.263 -10.442  0.00  0.00    +0.379 N 
ATOM      9  C   UNL     1      -0.691  -6.917 -10.910  0.00  0.00    -0.082 C 
ATOM     10  C   UNL     1       0.397  -6.788  -9.840  0.00  0.00    -0.010 C 
ATOM     11  C   UNL     1       3.718  -4.916 -11.448  0.00  0.00    +0.247 C 
ATOM     12  O   UNL     1       4.866  -5.045 -11.069  0.00  0.00    -0.270 OA
ATOM     13  H   UNL     1      -2.200  -6.668  -9.561  0.00  0.00    -0.086 HD
ATOM     14  H   UNL     1      -2.652  -6.401 -11.121  0.00  0.00    -0.086 HD
ENDROOT
BRANCH  11  15
ATOM     15  C   UNL     1       3.398  -5.023 -12.885  0.00  0.00    +0.038 A 
ATOM     16  C   UNL     1       2.217  -4.464 -13.383  0.00  0.00    +0.016 A 
ATOM     17  C   UNL     1       1.923  -4.566 -14.724  0.00  0.00    +0.047 A 
ATOM     18  C   UNL     1       2.797  -5.222 -15.582  0.00  0.00    +0.132 A 
ATOM     19  C   UNL     1       3.972  -5.779 -15.091  0.00  0.00    +0.097 A 
ATOM     20  C   UNL     1       4.276  -5.678 -13.751  0.00  0.00    +0.029 A 
BRANCH  19  21
ATOM     21  C   UNL     1       4.916  -6.491 -16.025  0.00  0.00    +0.421 C 
ATOM     22  F   UNL     1       6.018  -6.962 -15.305  0.00  0.00    -0.166 F 
ATOM     23  F   UNL     1       4.255  -7.569 -16.624  0.00  0.00    -0.166 F 
ATOM     24  F   UNL     1       5.350  -5.602 -17.014  0.00  0.00    -0.166 F 
ENDBRANCH  19  21
BRANCH  18  25
ATOM     25  O   UNL     1       2.502  -5.320 -16.903  0.00  0.00    -0.495 OA
ATOM     26  C   UNL     1       1.279  -4.726 -17.341  0.00  0.00    +0.277 C 
ENDBRANCH  18  25
ENDBRANCH  11  15
BRANCH   1  28
ATOM     27  N   UNL     1       0.586  -4.991  -6.247  0.00  0.00    -0.315 N 
ATOM     28  C   UNL     1       1.140  -4.359  -7.300  0.00  0.00    +0.218 C 
ATOM     29  O   UNL     1       1.184  -3.147  -7.325  0.00  0.00    -0.275 OA
ATOM     30  H   UNL     1       0.550  -5.960  -6.227  0.00  0.00    +0.149 HD
BRANCH  27  31
ATOM     31  C   UNL     1       0.036  -4.215  -5.133  0.00  0.00    +0.109 C 
BRANCH  31  32
ATOM     32  C   UNL     1      -0.529  -5.168  -4.077  0.00  0.00    +0.054 C 
BRANCH  32  37
ATOM     33  C   UNL     1      -0.809  -3.297  -0.806  0.00  0.00    +0.121 A 
ATOM     34  C   UNL     1      -2.140  -2.904  -0.828  0.00  0.00    +0.045 A 
ATOM     35  C   UNL     1      -2.942  -3.245  -1.900  0.00  0.00    +0.004 A 
ATOM     36  C   UNL     1      -2.420  -3.977  -2.951  0.00  0.00    +0.004 A 
ATOM     37  C   UNL     1      -1.094  -4.370  -2.931  0.00  0.00    -0.042 A 
ATOM     38  C   UNL     1      -0.286  -4.027  -1.864  0.00  0.00    +0.049 A 
BRANCH  33  39
ATOM     39  O   UNL     1      -0.018  -2.963   0.247  0.00  0.00    -0.492 OA
BRANCH  39  41
ATOM     40  C   UNL     1       0.414  -1.931   2.389  0.00  0.00    +0.048 C 
ATOM     41  C   UNL     1      -0.624  -2.211   1.300  0.00  0.00    +0.225 C 
ENDBRANCH  39  41
ENDBRANCH  33  39
ENDBRANCH  32  37
ENDBRANCH  31  32
ENDBRANCH  27  31
ENDBRANCH   1  28
TORSDOF 9
