REMARK  Name = ZINC09315990
REMARK  8 active torsions:
REMARK  status: ('A' for Active; 'I' for Inactive)
REMARK    1  A    between atoms: C_5  and  N_7
REMARK    2  A    between atoms: N_7  and  S_8
REMARK    3  A    between atoms: S_8  and  C_11
REMARK    4  A    between atoms: C_14  and  C_17
REMARK    5  A    between atoms: C_18  and  C_19
REMARK    6  A    between atoms: N_21  and  C_22
REMARK    7  A    between atoms: C_24  and  C_31
REMARK    8  A    between atoms: C_26  and  C_28
REMARK                            x       y       z     vdW  Elec       q    Type
REMARK                         _______ _______ _______ _____ _____    ______ ____
ROOT
ATOM      1  C   UNL     1      -0.777  -1.395   6.646  0.00  0.00    +0.013 C 
ATOM      2  C   UNL     1       0.439  -1.388   7.228  0.00  0.00    +0.068 C 
ENDROOT
BRANCH   1   6
ATOM      3  C   UNL     1      -1.119  -1.961   2.455  0.00  0.00    +0.109 A 
ATOM      4  C   UNL     1       0.131  -1.960   3.050  0.00  0.00    +0.029 A 
ATOM      5  C   UNL     1       0.251  -1.771   4.411  0.00  0.00    +0.010 A 
ATOM      6  C   UNL     1      -0.895  -1.591   5.192  0.00  0.00    -0.025 A 
ATOM      7  C   UNL     1      -2.155  -1.600   4.584  0.00  0.00    +0.010 A 
ATOM      8  C   UNL     1      -2.258  -1.784   3.221  0.00  0.00    +0.029 A 
BRANCH   3   9
ATOM      9  S   UNL     1      -1.260  -2.196   0.715  0.00  0.00    +0.072 S 
ATOM     10  O   UNL     1      -2.565  -2.706   0.479  0.00  0.00    -0.150 OA
ATOM     11  O   UNL     1      -0.087  -2.882   0.301  0.00  0.00    -0.150 OA
BRANCH   9  12
ATOM     12  N   UNL     1      -1.204  -0.697   0.013  0.00  0.00    -0.215 N 
ATOM     13  H   UNL     1      -1.952  -0.382  -0.519  0.00  0.00    +0.174 HD
BRANCH  12  18
ATOM     14  C   UNL     1       2.295   0.351   0.422  0.00  0.00    +0.002 A 
ATOM     15  C   UNL     1       2.147   1.722   0.529  0.00  0.00    +0.002 A 
ATOM     16  C   UNL     1       0.889   2.292   0.466  0.00  0.00    +0.022 A 
ATOM     17  C   UNL     1      -0.225   1.492   0.295  0.00  0.00    +0.063 A 
ATOM     18  C   UNL     1      -0.080   0.115   0.186  0.00  0.00    +0.066 A 
ATOM     19  C   UNL     1       1.186  -0.454   0.250  0.00  0.00    +0.026 A 
ATOM     20 CL   UNL     1      -1.804   2.209   0.208  0.00  0.00    -0.082 Cl
ENDBRANCH  12  18
ENDBRANCH   9  12
ENDBRANCH   3   9
ENDBRANCH   1   6
BRANCH   2  21
ATOM     21  C   UNL     1       0.557  -1.193   8.674  0.00  0.00    +0.241 C 
ATOM     22  O   UNL     1      -0.443  -1.038   9.351  0.00  0.00    -0.270 OA
ATOM     23  N   UNL     1       1.772  -1.186   9.256  0.00  0.00    -0.282 N 
ATOM     24  H   UNL     1       2.572  -1.241   8.710  0.00  0.00    +0.155 HD
BRANCH  23  25
ATOM     25  C   UNL     1       1.881  -1.099  10.648  0.00  0.00    +0.035 A 
ATOM     26  C   UNL     1       0.977  -0.328  11.366  0.00  0.00    +0.036 A 
ATOM     27  C   UNL     1       1.079  -0.243  12.755  0.00  0.00    +0.039 A 
ATOM     28  C   UNL     1       2.097  -0.924  13.420  0.00  0.00    +0.026 A 
ATOM     29  C   UNL     1       3.006  -1.693  12.696  0.00  0.00    +0.039 A 
ATOM     30  C   UNL     1       2.895  -1.778  11.307  0.00  0.00    +0.036 A 
BRANCH  29  31
ATOM     31  C   UNL     1       4.087  -2.418  13.398  0.00  0.00    +0.242 C 
ATOM     32  O   UNL     1       4.879  -3.088  12.766  0.00  0.00    -0.270 OA
ATOM     33  N   UNL     1       4.193  -2.335  14.739  0.00  0.00    -0.325 N 
ATOM     34  H   UNL     1       3.561  -1.800  15.244  0.00  0.00    +0.145 HD
ATOM     35  H   UNL     1       4.902  -2.811  15.200  0.00  0.00    +0.145 HD
ENDBRANCH  29  31
BRANCH  27  36
ATOM     36  C   UNL     1       0.112   0.574  13.520  0.00  0.00    +0.242 C 
ATOM     37  O   UNL     1      -0.775   1.167  12.939  0.00  0.00    -0.270 OA
ATOM     38  N   UNL     1       0.215   0.659  14.861  0.00  0.00    -0.325 N 
ATOM     39  H   UNL     1       0.923   0.185  15.325  0.00  0.00    +0.145 HD
ATOM     40  H   UNL     1      -0.420   1.195  15.363  0.00  0.00    +0.145 HD
ENDBRANCH  27  36
ENDBRANCH  23  25
ENDBRANCH   2  21
TORSDOF 8
