REMARK  Name = ZINC40823506
REMARK  8 active torsions:
REMARK  status: ('A' for Active; 'I' for Inactive)
REMARK    1  A    between atoms: C_1  and  C_2
REMARK    2  A    between atoms: C_6  and  C_7
REMARK    3  A    between atoms: N_9  and  N_10
REMARK    4  A    between atoms: N_10  and  C_11
REMARK    5  A    between atoms: N_10  and  C_17
REMARK    6  A    between atoms: N_27  and  N_28
REMARK    7  A    between atoms: C_29  and  C_31
REMARK    8  A    between atoms: C_35  and  C_36
REMARK                            x       y       z     vdW  Elec       q    Type
REMARK                         _______ _______ _______ _____ _____    ______ ____
ROOT
ATOM      1  C   UNL     1       1.041   3.148   1.422  0.00  0.00    +0.048 C 
ATOM      2  C   UNL     1       1.069   1.761   0.833  0.00  0.00    +0.009 A 
ATOM      3  C   UNL     1       1.329   1.420  -0.500  0.00  0.00    +0.042 A 
ATOM      4  C   UNL     1       1.253   0.050  -0.597  0.00  0.00    +0.115 A 
ATOM      5  O   UNL     1       0.966  -0.432   0.609  0.00  0.00    -0.454 OA
ATOM      6  C   UNL     1       0.853   0.584   1.494  0.00  0.00    +0.194 A 
ATOM      7  C   UNL     1       1.471  -0.693  -1.891  0.00  0.00    +0.075 C 
ATOM      8  C   UNL     1       1.262   0.263  -3.068  0.00  0.00    +0.014 C 
ATOM      9  C   UNL     1       2.124   1.519  -2.903  0.00  0.00    +0.058 C 
ATOM     10  C   UNL     1       1.640   2.270  -1.671  0.00  0.00    +0.070 C 
ATOM     11  N   UNL     1       1.510   3.560  -1.648  0.00  0.00    -0.184 NA
ENDROOT
BRANCH   6  12
ATOM     12  C   UNL     1       0.546   0.447   2.922  0.00  0.00    +0.296 C 
ATOM     13  O   UNL     1       0.466   1.438   3.625  0.00  0.00    -0.265 OA
ATOM     14  N   UNL     1       0.353  -0.775   3.456  0.00  0.00    -0.223 N 
ATOM     15  H   UNL     1       0.417  -1.565   2.896  0.00  0.00    +0.174 HD
BRANCH  14  16
ATOM     16  N   UNL     1       0.060  -0.906   4.819  0.00  0.00    -0.219 N 
BRANCH  16  17
ATOM     17  C   UNL     1      -1.242  -1.206   5.229  0.00  0.00    +0.053 A 
ATOM     18  C   UNL     1      -2.324  -0.579   4.623  0.00  0.00    +0.025 A 
ATOM     19  C   UNL     1      -3.609  -0.877   5.030  0.00  0.00    +0.002 A 
ATOM     20  C   UNL     1      -3.820  -1.799   6.039  0.00  0.00    +0.000 A 
ATOM     21  C   UNL     1      -2.746  -2.425   6.644  0.00  0.00    +0.002 A 
ATOM     22  C   UNL     1      -1.458  -2.135   6.238  0.00  0.00    +0.025 A 
ENDBRANCH  16  17
BRANCH  16  23
ATOM     23  C   UNL     1       1.069  -0.737   5.770  0.00  0.00    +0.053 A 
ATOM     24  C   UNL     1       2.302  -1.352   5.594  0.00  0.00    +0.025 A 
ATOM     25  C   UNL     1       3.298  -1.183   6.536  0.00  0.00    +0.002 A 
ATOM     26  C   UNL     1       3.069  -0.401   7.653  0.00  0.00    +0.000 A 
ATOM     27  C   UNL     1       1.843   0.213   7.832  0.00  0.00    +0.002 A 
ATOM     28  C   UNL     1       0.845   0.052   6.891  0.00  0.00    +0.025 A 
ENDBRANCH  16  23
ENDBRANCH  14  16
ENDBRANCH   6  12
BRANCH  11  29
ATOM     29  N   UNL     1       1.820   4.316  -2.787  0.00  0.00    -0.203 N 
ATOM     30  C   UNL     1       1.685   5.656  -2.763  0.00  0.00    +0.267 C 
ATOM     31  O   UNL     1       1.294   6.211  -1.753  0.00  0.00    -0.268 OA
ATOM     32  H   UNL     1       2.131   3.873  -3.592  0.00  0.00    +0.178 HD
BRANCH  30  33
ATOM     33  C   UNL     1       2.010   6.451  -3.961  0.00  0.00    +0.079 A 
ATOM     34  C   UNL     1       2.485   5.949  -5.259  0.00  0.00    +0.054 A 
ATOM     35  C   UNL     1       2.645   7.030  -6.037  0.00  0.00    +0.196 A 
ATOM     36  O   UNL     1       2.315   8.127  -5.338  0.00  0.00    -0.467 OA
ATOM     37  C   UNL     1       1.928   7.806  -4.099  0.00  0.00    +0.114 A 
ATOM     38  C   UNL     1       1.480   8.775  -3.036  0.00  0.00    +0.087 C 
ENDBRANCH  30  33
ENDBRANCH  11  29
TORSDOF 6
