REMARK  Name = ZINC36796106
REMARK  6 active torsions:
REMARK  status: ('A' for Active; 'I' for Inactive)
REMARK    1  A    between atoms: C_6  and  C_7
REMARK    2  A    between atoms: N_9  and  N_10
REMARK    3  A    between atoms: C_11  and  C_13
REMARK    4  A    between atoms: C_13  and  S_14
REMARK    5  A    between atoms: S_14  and  C_15
REMARK    6  A    between atoms: C_21  and  C_25
REMARK                            x       y       z     vdW  Elec       q    Type
REMARK                         _______ _______ _______ _____ _____    ______ ____
ROOT
ATOM      1  C   UNL     1      -3.718  -4.952   0.012  0.00  0.00    +0.174 C 
ENDROOT
BRANCH   1   3
ATOM      2  N   UNL     1      -2.446  -2.830   0.011  0.00  0.00    -0.233 N 
ATOM      3  C   UNL     1      -2.425  -4.178   0.004  0.00  0.00    +0.239 C 
ATOM      4  O   UNL     1      -1.365  -4.768  -0.010  0.00  0.00    -0.273 OA
ATOM      5  H   UNL     1      -3.294  -2.359   0.022  0.00  0.00    +0.173 HD
BRANCH   2   8
ATOM      6  C   UNL     1      -1.266  -0.763   0.011  0.00  0.00    +0.260 C 
ATOM      7  O   UNL     1      -2.328  -0.172   0.024  0.00  0.00    -0.269 OA
ATOM      8  N   UNL     1      -1.244  -2.111   0.003  0.00  0.00    -0.230 N 
ATOM      9  H   UNL     1      -0.397  -2.582  -0.008  0.00  0.00    +0.173 HD
BRANCH   6  15
ATOM     10  C   UNL     1      -0.017   1.392   0.010  0.00  0.00    +0.014 A 
ATOM     11  C   UNL     1       1.169   2.095   0.002  0.00  0.00    +0.021 A 
ATOM     12  C   UNL     1       2.378   1.419  -0.013  0.00  0.00    +0.041 A 
ATOM     13  C   UNL     1       2.403   0.034  -0.021  0.00  0.00    +0.021 A 
ATOM     14  C   UNL     1       1.224  -0.680  -0.014  0.00  0.00    +0.014 A 
ATOM     15  C   UNL     1       0.002  -0.004   0.002  0.00  0.00    +0.038 A 
ATOM     16 CL   UNL     1       3.868   2.310  -0.023  0.00  0.00    -0.084 Cl
ENDBRANCH   6  15
ENDBRANCH   2   8
ENDBRANCH   1   3
BRANCH   1  17
ATOM     17  S   UNL     1      -3.358  -6.730  -0.001  0.00  0.00    -0.076 S 
BRANCH  17  18
ATOM     18  C   UNL     1      -4.950  -7.487   0.011  0.00  0.00    +0.196 A 
ATOM     19  N   UNL     1      -6.107  -6.865   0.020  0.00  0.00    -0.122 NA
ATOM     20  N   UNL     1      -7.071  -7.718   0.027  0.00  0.00    -0.127 NA
ATOM     21  C   UNL     1      -6.581  -8.944   0.022  0.00  0.00    +0.180 A 
ATOM     22  N   UNL     1      -5.207  -8.826   0.006  0.00  0.00    -0.276 N 
ATOM     23  C   UNL     1      -4.417  -9.942  -0.007  0.00  0.00    +0.107 A 
ATOM     24  C   UNL     1      -4.970 -11.171  -0.009  0.00  0.00    +0.073 A 
ATOM     25  C   UNL     1      -6.369 -11.324   0.003  0.00  0.00    +0.037 A 
ATOM     26  C   UNL     1      -7.170 -10.225   0.026  0.00  0.00    +0.086 A 
ATOM     27 CL   UNL     1      -8.897 -10.398   0.039  0.00  0.00    -0.080 Cl
BRANCH  24  28
ATOM     28  C   UNL     1      -4.084 -12.390  -0.024  0.00  0.00    +0.419 C 
ATOM     29  F   UNL     1      -3.890 -12.842   1.285  0.00  0.00    -0.166 F 
ATOM     30  F   UNL     1      -4.691 -13.398  -0.781  0.00  0.00    -0.166 F 
ATOM     31  F   UNL     1      -2.848 -12.061  -0.592  0.00  0.00    -0.166 F 
ENDBRANCH  24  28
ENDBRANCH  17  18
ENDBRANCH   1  17
TORSDOF 6
