REMARK  Name = ZINC51036188
REMARK  5 active torsions:
REMARK  status: ('A' for Active; 'I' for Inactive)
REMARK    1  A    between atoms: C_6  and  C_7
REMARK    2  A    between atoms: C_7  and  C_9
REMARK    3  A    between atoms: C_7  and  S_11
REMARK    4  A    between atoms: C_9  and  N_10
REMARK    5  A    between atoms: S_11  and  C_12
REMARK                            x       y       z     vdW  Elec       q    Type
REMARK                         _______ _______ _______ _____ _____    ______ ____
ROOT
ATOM      1  C   UNL     1      -1.196  -0.475  -0.120  0.00  0.00    +0.065 C 
ENDROOT
BRANCH   1   7
ATOM      2  C   UNL     1      -0.086   1.767  -0.087  0.00  0.00    +0.006 A 
ATOM      3  C   UNL     1       1.037   2.564   0.032  0.00  0.00    +0.015 A 
ATOM      4  C   UNL     1       2.275   1.987   0.250  0.00  0.00    +0.018 A 
ATOM      5  C   UNL     1       2.388   0.612   0.348  0.00  0.00    +0.015 A 
ATOM      6  C   UNL     1       1.265  -0.184   0.229  0.00  0.00    +0.006 A 
ATOM      7  C   UNL     1       0.028   0.393   0.011  0.00  0.00    -0.036 A 
ATOM      8 BR   UNL     1       3.812   3.077   0.413  0.00  0.00    -0.050 Br
ENDBRANCH   1   7
BRANCH   1   9
ATOM      9  C   UNL     1      -1.021  -1.430  -1.302  0.00  0.00    -0.067 C 
BRANCH   9  10
ATOM     10  N   UNL     1      -2.260  -2.192  -1.504  0.00  0.00    +0.379 N 
ATOM     11  H   UNL     1      -3.035  -1.554  -1.605  0.00  0.00    -0.090 HD
ATOM     12  H   UNL     1      -2.177  -2.755  -2.338  0.00  0.00    -0.090 HD
ATOM     13  H   UNL     1      -2.420  -2.792  -0.709  0.00  0.00    -0.090 HD
ENDBRANCH   9  10
ENDBRANCH   1   9
BRANCH   1  14
ATOM     14  S   UNL     1      -1.423  -1.434   1.403  0.00  0.00    -0.098 S 
BRANCH  14  15
ATOM     15  C   UNL     1      -1.813  -0.219   2.618  0.00  0.00    +0.126 A 
ATOM     16  C   UNL     1      -1.956  -0.573   3.962  0.00  0.00    +0.117 A 
ATOM     17  C   UNL     1      -2.267   0.432   4.893  0.00  0.00    +0.182 A 
ATOM     18  N   UNL     1      -2.348  -0.164   6.097  0.00  0.00    -0.216 NA
ATOM     19  H   UNL     1      -1.661  -2.624   4.326  0.00  0.00    +0.167 HD
ATOM     20  C   UNL     1      -2.112  -1.440   5.975  0.00  0.00    +0.199 A 
ATOM     21  N   UNL     1      -1.865  -1.745   4.681  0.00  0.00    -0.341 N 
ATOM     22  N   UNL     1      -2.415   1.687   4.456  0.00  0.00    -0.214 NA
ATOM     23  C   UNL     1      -2.272   1.973   3.181  0.00  0.00    +0.224 A 
ATOM     24  N   UNL     1      -1.974   1.057   2.277  0.00  0.00    -0.227 NA
ENDBRANCH  14  15
ENDBRANCH   1  14
TORSDOF 5
