REMARK  Name = ZINC06142900
REMARK  6 active torsions:
REMARK  status: ('A' for Active; 'I' for Inactive)
REMARK    1  A    between atoms: C_3  and  N_23
REMARK    2  A    between atoms: C_6  and  N_7
REMARK    3  A    between atoms: N_7  and  S_8
REMARK    4  A    between atoms: S_8  and  C_11
REMARK    5  A    between atoms: N_23  and  S_24
REMARK    6  A    between atoms: S_24  and  C_27
REMARK                            x       y       z     vdW  Elec       q    Type
REMARK                         _______ _______ _______ _____ _____    ______ ____
ROOT
ATOM      1  C   UNL     1       0.480   2.895   0.353  0.00  0.00    +0.026 A 
ATOM      2  C   UNL     1       0.419   1.516   0.343  0.00  0.00    +0.026 A 
ATOM      3  C   UNL     1      -0.809   0.875   0.440  0.00  0.00    +0.048 A 
ATOM      4  C   UNL     1      -1.976   1.620   0.542  0.00  0.00    +0.026 A 
ATOM      5  C   UNL     1      -1.914   3.000   0.557  0.00  0.00    +0.026 A 
ATOM      6  C   UNL     1      -0.686   3.641   0.461  0.00  0.00    +0.048 A 
ENDROOT
BRANCH   6   7
ATOM      7  N   UNL     1      -0.624   5.040   0.472  0.00  0.00    -0.216 N 
ATOM      8  H   UNL     1      -0.755   5.524   1.302  0.00  0.00    +0.174 HD
BRANCH   7   9
ATOM      9  S   UNL     1      -0.327   5.867  -0.931  0.00  0.00    +0.072 S 
ATOM     10  O   UNL     1      -0.380   7.249  -0.607  0.00  0.00    -0.150 OA
ATOM     11  O   UNL     1       0.817   5.266  -1.522  0.00  0.00    -0.150 OA
BRANCH   9  12
ATOM     12  C   UNL     1      -1.678   5.552  -2.018  0.00  0.00    +0.111 A 
ATOM     13  C   UNL     1      -2.758   6.418  -2.043  0.00  0.00    +0.031 A 
ATOM     14  C   UNL     1      -3.822   6.180  -2.891  0.00  0.00    +0.030 A 
ATOM     15  C   UNL     1      -3.807   5.069  -3.721  0.00  0.00    +0.067 A 
ATOM     16  C   UNL     1      -2.718   4.196  -3.696  0.00  0.00    +0.069 A 
ATOM     17  C   UNL     1      -1.653   4.446  -2.844  0.00  0.00    +0.056 A 
ATOM     18  N   UNL     1      -2.986   3.191  -4.622  0.00  0.00    -0.306 N 
ATOM     19  H   UNL     1      -2.408   2.439  -4.827  0.00  0.00    +0.170 HD
ATOM     20  C   UNL     1      -4.183   3.441  -5.186  0.00  0.00    +0.325 A 
ATOM     21  O   UNL     1      -4.713   2.754  -6.038  0.00  0.00    -0.247 OA
ATOM     22  N   UNL     1      -4.703   4.567  -4.662  0.00  0.00    -0.306 N 
ATOM     23  H   UNL     1      -5.557   4.962  -4.901  0.00  0.00    +0.170 HD
ENDBRANCH   9  12
ENDBRANCH   7   9
ENDBRANCH   6   7
BRANCH   3  24
ATOM     24  N   UNL     1      -0.871  -0.524   0.429  0.00  0.00    -0.216 N 
ATOM     25  H   UNL     1      -1.182  -0.990  -0.363  0.00  0.00    +0.174 HD
BRANCH  24  26
ATOM     26  S   UNL     1      -0.413  -1.384   1.768  0.00  0.00    +0.072 S 
ATOM     27  O   UNL     1      -0.640  -2.754   1.468  0.00  0.00    -0.150 OA
ATOM     28  O   UNL     1       0.863  -0.889   2.152  0.00  0.00    -0.150 OA
BRANCH  26  29
ATOM     29  C   UNL     1      -1.528  -0.961   3.065  0.00  0.00    +0.111 A 
ATOM     30  C   UNL     1      -2.659  -1.730   3.280  0.00  0.00    +0.031 A 
ATOM     31  C   UNL     1      -3.539  -1.406   4.294  0.00  0.00    +0.030 A 
ATOM     32  C   UNL     1      -3.288  -0.307   5.101  0.00  0.00    +0.067 A 
ATOM     33  C   UNL     1      -2.147   0.469   4.884  0.00  0.00    +0.069 A 
ATOM     34  C   UNL     1      -1.267   0.133   3.866  0.00  0.00    +0.056 A 
ATOM     35  N   UNL     1      -2.166   1.487   5.835  0.00  0.00    -0.306 N 
ATOM     36  H   UNL     1      -1.500   2.185   5.932  0.00  0.00    +0.170 HD
ATOM     37  C   UNL     1      -3.268   1.337   6.594  0.00  0.00    +0.325 A 
ATOM     38  O   UNL     1      -3.585   2.062   7.519  0.00  0.00    -0.247 OA
ATOM     39  N   UNL     1      -3.965   0.264   6.176  0.00  0.00    -0.306 N 
ATOM     40  H   UNL     1      -4.796  -0.057   6.559  0.00  0.00    +0.170 HD
ENDBRANCH  26  29
ENDBRANCH  24  26
ENDBRANCH   3  24
TORSDOF 6
