REMARK  Name = ZINC04545361
REMARK  14 active torsions:
REMARK  status: ('A' for Active; 'I' for Inactive)
REMARK    1  A    between atoms: C_1  and  C_2
REMARK    2  A    between atoms: C_2  and  C_3
REMARK    3  A    between atoms: C_3  and  C_4
REMARK    4  A    between atoms: C_7  and  C_11
REMARK    5  A    between atoms: C_10  and  N_60
REMARK    6  A    between atoms: N_13  and  C_14
REMARK    7  A    between atoms: C_14  and  C_16
REMARK    8  A    between atoms: C_14  and  C_32
REMARK    9  A    between atoms: C_18  and  O_31
REMARK   10  A    between atoms: C_20  and  O_30
REMARK   11  A    between atoms: C_22  and  O_29
REMARK   12  A    between atoms: C_24  and  S_27
REMARK   13  A    between atoms: S_27  and  C_28
REMARK   14  A    between atoms: C_32  and  C_34
REMARK                            x       y       z     vdW  Elec       q    Type
REMARK                         _______ _______ _______ _____ _____    ______ ____
ROOT
ATOM      1  C   UNL     1       3.207  -3.596   0.648  0.00  0.00    +0.122 C 
ENDROOT
BRANCH   1   2
ATOM      2  C   UNL     1       4.455  -3.902   1.478  0.00  0.00    +0.172 C 
ATOM      3  C   UNL     1       5.429  -2.725   1.389  0.00  0.00    +0.176 C 
ATOM      4  C   UNL     1       6.701  -3.063   2.172  0.00  0.00    +0.177 C 
ATOM      5  C   UNL     1       7.301  -4.358   1.616  0.00  0.00    +0.184 C 
ATOM      6  C   UNL     1       6.255  -5.472   1.697  0.00  0.00    +0.207 C 
ATOM      7  O   UNL     1       5.086  -5.081   0.974  0.00  0.00    -0.356 OA
BRANCH   6   8
ATOM      8  S   UNL     1       5.820  -5.769   3.433  0.00  0.00    -0.131 S 
ATOM      9  C   UNL     1       4.829  -7.287   3.384  0.00  0.00    +0.087 C 
ENDBRANCH   6   8
BRANCH   5  10
ATOM     10  O   UNL     1       8.449  -4.721   2.386  0.00  0.00    -0.386 OA
ATOM     11  H   UNL     1       8.880  -5.534   2.088  0.00  0.00    +0.210 HD
ENDBRANCH   5  10
BRANCH   4  12
ATOM     12  O   UNL     1       7.646  -2.000   2.033  0.00  0.00    -0.386 OA
ATOM     13  H   UNL     1       8.477  -2.147   2.505  0.00  0.00    +0.210 HD
ENDBRANCH   4  12
BRANCH   3  14
ATOM     14  O   UNL     1       5.762  -2.483   0.020  0.00  0.00    -0.387 OA
ATOM     15  H   UNL     1       6.377  -1.749  -0.112  0.00  0.00    +0.210 HD
ENDBRANCH   3  14
ENDBRANCH   1   2
BRANCH   1  18
ATOM     16  C   UNL     1       1.784  -1.640   0.357  0.00  0.00    +0.200 C 
ATOM     17  O   UNL     1       1.620  -1.968  -0.799  0.00  0.00    -0.278 OA
ATOM     18  N   UNL     1       2.560  -2.388   1.166  0.00  0.00    -0.310 N 
ATOM     19  H   UNL     1       2.691  -2.126   2.090  0.00  0.00    +0.149 HD
BRANCH  16  22
ATOM     20  C   UNL     1       1.485   1.856  -0.002  0.00  0.00    -0.029 C 
ATOM     21  C   UNL     1       2.119   0.774   0.901  0.00  0.00    -0.005 C 
ATOM     22  C   UNL     1       1.119  -0.397   0.889  0.00  0.00    +0.019 C 
ATOM     23  C   UNL     1      -0.018   1.481   0.010  0.00  0.00    -0.075 C 
ATOM     24  C   UNL     1      -1.272  -0.550   0.487  0.00  0.00    -0.095 C 
ATOM     25  N   UNL     1       0.026   0.010   0.005  0.00  0.00    +0.386 N 
ATOM     26  H   UNL     1       0.206  -0.328  -0.948  0.00  0.00    -0.081 HD
BRANCH  20  27
ATOM     27  C   UNL     1       1.700   3.250   0.591  0.00  0.00    +0.001 C 
BRANCH  27  29
ATOM     28  C   UNL     1       1.277   5.691   0.268  0.00  0.00    +0.004 C 
ATOM     29  C   UNL     1       1.062   4.297  -0.324  0.00  0.00    -0.003 C 
ENDBRANCH  27  29
ENDBRANCH  20  27
ENDBRANCH  16  22
ENDBRANCH   1  18
BRANCH   1  30
ATOM     30  C   UNL     1       2.234  -4.774   0.738  0.00  0.00    +0.100 C 
ATOM     31  C   UNL     1       0.986  -4.468  -0.092  0.00  0.00    +0.026 C 
ATOM     32 CL   UNL     1       3.030  -6.261   0.101  0.00  0.00    -0.120 Cl
ENDBRANCH   1  30
TORSDOF 10
