REMARK  Name = ZINC02281712
REMARK  9 active torsions:
REMARK  status: ('A' for Active; 'I' for Inactive)
REMARK    1  A    between atoms: C_1  and  O_2
REMARK    2  A    between atoms: O_2  and  C_3
REMARK    3  A    between atoms: C_3  and  C_5
REMARK    4  A    between atoms: C_5  and  C_6
REMARK    5  A    between atoms: C_5  and  N_10
REMARK    6  A    between atoms: C_5  and  N_22
REMARK    7  A    between atoms: N_10  and  C_11
REMARK    8  A    between atoms: C_12  and  C_20
REMARK    9  A    between atoms: C_23  and  C_25
REMARK                            x       y       z     vdW  Elec       q    Type
REMARK                         _______ _______ _______ _____ _____    ______ ____
ROOT
ATOM      1  C   UNL     1      -2.204   7.266  -3.051  0.00  0.00    +0.296 C 
ENDROOT
BRANCH   1   2
ATOM      2  C   UNL     1      -3.474   6.668  -3.660  0.00  0.00    +0.438 C 
ATOM      3  F   UNL     1      -4.596   7.207  -3.021  0.00  0.00    -0.166 F 
ATOM      4  F   UNL     1      -3.524   6.971  -5.024  0.00  0.00    -0.166 F 
ATOM      5  F   UNL     1      -3.463   5.279  -3.490  0.00  0.00    -0.166 F 
ENDBRANCH   1   2
BRANCH   1   6
ATOM      6  N   UNL     1      -2.284   8.728  -3.093  0.00  0.00    -0.274 N 
ATOM      7  C   UNL     1      -2.364   9.365  -4.279  0.00  0.00    +0.248 C 
ATOM      8  O   UNL     1      -2.457   8.724  -5.308  0.00  0.00    -0.270 OA
ATOM      9  H   UNL     1      -2.280   9.238  -2.268  0.00  0.00    +0.152 HD
BRANCH   7  10
ATOM     10  C   UNL     1      -2.338  10.841  -4.327  0.00  0.00    +0.055 A 
ATOM     11  C   UNL     1      -2.231  11.580  -3.147  0.00  0.00    +0.016 A 
ATOM     12  C   UNL     1      -2.207  12.957  -3.199  0.00  0.00    +0.021 A 
ATOM     13  C   UNL     1      -2.288  13.609  -4.419  0.00  0.00    +0.042 A 
ATOM     14  C   UNL     1      -2.394  12.884  -5.593  0.00  0.00    +0.040 A 
ATOM     15  C   UNL     1      -2.414  11.504  -5.555  0.00  0.00    +0.054 A 
ATOM     16 CL   UNL     1      -2.539  10.595  -7.029  0.00  0.00    -0.083 Cl
ATOM     17 CL   UNL     1      -2.258  15.344  -4.475  0.00  0.00    -0.083 Cl
ENDBRANCH   7  10
ENDBRANCH   1   6
BRANCH   1  18
ATOM     18  C   UNL     1      -1.004   6.806  -3.838  0.00  0.00    +0.359 C 
ATOM     19  O   UNL     1      -0.273   5.958  -3.384  0.00  0.00    -0.246 OA
BRANCH  18  21
ATOM     20  C   UNL     1       0.423   6.846  -5.746  0.00  0.00    +0.280 C 
ATOM     21  O   UNL     1      -0.749   7.337  -5.044  0.00  0.00    -0.465 OA
ENDBRANCH  18  21
ENDBRANCH   1  18
BRANCH   1  22
ATOM     22  N   UNL     1      -2.074   6.824  -1.660  0.00  0.00    -0.301 N 
ATOM     23  H   UNL     1      -2.154   7.467  -0.938  0.00  0.00    +0.149 HD
BRANCH  22  24
ATOM     24  C   UNL     1      -1.838   5.490  -1.377  0.00  0.00    +0.086 A 
ATOM     25  C   UNL     1      -1.664   4.889  -0.138  0.00  0.00    +0.083 A 
ATOM     26  C   UNL     1      -1.427   3.455  -0.115  0.00  0.00    -0.018 A 
ATOM     27  C   UNL     1      -1.401   2.857  -1.325  0.00  0.00    -0.004 A 
ATOM     28  S   UNL     1      -1.687   4.165  -2.483  0.00  0.00    -0.077 S 
ATOM     29  C   UNL     1      -1.179   1.403  -1.610  0.00  0.00    +0.043 C 
ATOM     30  C   UNL     1      -0.610   0.745  -0.345  0.00  0.00    +0.005 C 
ATOM     31  C   UNL     1      -1.455   1.171   0.859  0.00  0.00    +0.005 C 
ATOM     32  C   UNL     1      -1.219   2.651   1.162  0.00  0.00    +0.037 C 
BRANCH  25  33
ATOM     33  C   UNL     1      -1.717   5.653   1.072  0.00  0.00    +0.102 C 
ATOM     34  N   UNL     1      -1.759   6.259   2.032  0.00  0.00    -0.191 NA
ENDBRANCH  25  33
ENDBRANCH  22  24
ENDBRANCH   1  22
TORSDOF 8
