REMARK  Name = ZINC12497144
REMARK  9 active torsions:
REMARK  status: ('A' for Active; 'I' for Inactive)
REMARK    1  A    between atoms: C_1  and  N_2
REMARK    2  A    between atoms: N_2  and  C_3
REMARK    3  A    between atoms: N_2  and  C_4
REMARK    4  A    between atoms: C_7  and  C_10
REMARK    5  A    between atoms: N_18  and  C_21
REMARK    6  A    between atoms: C_27  and  C_28
REMARK    7  A    between atoms: C_27  and  C_34
REMARK    8  A    between atoms: C_34  and  O_36
REMARK    9  A    between atoms: O_36  and  C_37
REMARK                            x       y       z     vdW  Elec       q    Type
REMARK                         _______ _______ _______ _____ _____    ______ ____
ROOT
ATOM      1  C   UNL     1       0.735  -3.388   2.020  0.00  0.00    -0.026 C 
ATOM      2  C   UNL     1       1.873  -2.396   1.983  0.00  0.00    +0.078 C 
ATOM      3  C   UNL     1       2.260  -2.567   0.460  0.00  0.00    +0.090 C 
ATOM      4  C   UNL     1       3.488  -1.777   0.433  0.00  0.00    +0.229 C 
ATOM      5  O   UNL     1       3.895  -1.074  -0.466  0.00  0.00    -0.275 OA
ATOM      6  N   UNL     1       4.081  -2.006   1.650  0.00  0.00    -0.210 N 
ATOM      7  C   UNL     1       3.226  -2.586   2.550  0.00  0.00    +0.229 C 
ATOM      8  O   UNL     1       3.517  -3.138   3.590  0.00  0.00    -0.275 OA
ATOM      9  C   UNL     1       0.932  -2.420  -0.190  0.00  0.00    +0.070 C 
ATOM     10  N   UNL     1      -0.017  -3.045   0.775  0.00  0.00    +0.398 N 
ATOM     11  H   UNL     1      -0.772  -2.385   0.997  0.00  0.00    -0.083 HD
ATOM     12  H   UNL     1      -0.417  -3.897   0.366  0.00  0.00    -0.083 HD
ENDROOT
BRANCH   1  16
ATOM     13  C   UNL     1      -1.685  -2.812   5.495  0.00  0.00    +0.029 A 
ATOM     14  C   UNL     1      -0.962  -3.987   5.338  0.00  0.00    +0.023 A 
ATOM     15  C   UNL     1      -0.181  -4.170   4.213  0.00  0.00    +0.004 A 
ATOM     16  C   UNL     1      -0.118  -3.185   3.245  0.00  0.00    -0.060 A 
ATOM     17  C   UNL     1      -0.833  -2.011   3.402  0.00  0.00    +0.004 A 
ATOM     18  C   UNL     1      -1.620  -1.824   4.521  0.00  0.00    +0.023 A 
BRANCH  13  20
ATOM     19  C   UNL     1      -2.545  -3.667   7.657  0.00  0.00    +0.129 C 
ATOM     20  N   UNL     1      -2.477  -2.624   6.631  0.00  0.00    -0.336 N 
ATOM     21  C   UNL     1      -3.239  -1.384   6.795  0.00  0.00    +0.129 C 
ENDBRANCH  13  20
ENDBRANCH   1  16
BRANCH   6  22
ATOM     22  C   UNL     1       5.414  -1.683   1.939  0.00  0.00    +0.044 A 
ATOM     23  C   UNL     1       6.216  -1.102   0.966  0.00  0.00    +0.024 A 
ATOM     24  C   UNL     1       7.527  -0.780   1.256  0.00  0.00    +0.002 A 
ATOM     25  C   UNL     1       8.045  -1.046   2.510  0.00  0.00    +0.000 A 
ATOM     26  C   UNL     1       7.251  -1.630   3.480  0.00  0.00    +0.002 A 
ATOM     27  C   UNL     1       5.937  -1.949   3.197  0.00  0.00    +0.024 A 
ENDBRANCH   6  22
BRANCH   9  28
ATOM     28  C   UNL     1       0.603  -0.963  -0.388  0.00  0.00    -0.047 A 
ATOM     29  C   UNL     1      -0.482  -0.405   0.261  0.00  0.00    +0.003 A 
ATOM     30  C   UNL     1      -0.784   0.932   0.079  0.00  0.00    +0.000 A 
ATOM     31  C   UNL     1      -0.001   1.710  -0.752  0.00  0.00    +0.000 A 
ATOM     32  C   UNL     1       1.084   1.152  -1.402  0.00  0.00    +0.000 A 
ATOM     33  C   UNL     1       1.386  -0.184  -1.220  0.00  0.00    +0.003 A 
ENDBRANCH   9  28
BRANCH   9  34
ATOM     34  C   UNL     1       0.906  -3.148  -1.509  0.00  0.00    +0.301 C 
ATOM     35  O   UNL     1       1.932  -3.319  -2.125  0.00  0.00    -0.252 OA
BRANCH  34  36
ATOM     36  O   UNL     1      -0.256  -3.607  -1.999  0.00  0.00    -0.469 OA
ATOM     37  C   UNL     1      -0.205  -4.299  -3.275  0.00  0.00    +0.280 C 
ENDBRANCH  34  36
ENDBRANCH   9  34
TORSDOF 6
