REMARK  Name = ZINC00718385
REMARK  8 active torsions:
REMARK  status: ('A' for Active; 'I' for Inactive)
REMARK    1  A    between atoms: C_1  and  C_2
REMARK    2  A    between atoms: C_11  and  C_22
REMARK    3  A    between atoms: C_17  and  N_21
REMARK    4  A    between atoms: C_18  and  C_19
REMARK    5  A    between atoms: C_24  and  O_30
REMARK    6  A    between atoms: C_27  and  O_28
REMARK    7  A    between atoms: O_28  and  C_29
REMARK    8  A    between atoms: O_30  and  C_31
REMARK                            x       y       z     vdW  Elec       q    Type
REMARK                         _______ _______ _______ _____ _____    ______ ____
ROOT
ATOM      1  C   UNL     1       2.328  -0.954  -0.067  0.00  0.00    +0.045 C 
ATOM      2  C   UNL     1       1.607  -2.260   0.151  0.00  0.00    -0.036 A 
ATOM      3  C   UNL     1       1.423  -3.116  -0.915  0.00  0.00    +0.006 A 
ATOM      4  C   UNL     1       0.768  -4.330  -0.777  0.00  0.00    +0.024 A 
ATOM      5  C   UNL     1       0.295  -4.660   0.494  0.00  0.00    +0.039 A 
ATOM      6  C   UNL     1       0.488  -3.783   1.569  0.00  0.00    +0.013 A 
ATOM      7  C   UNL     1       1.145  -2.579   1.424  0.00  0.00    +0.027 A 
ATOM      8 BR   UNL     1       1.401  -1.411   2.889  0.00  0.00    -0.050 Br
ATOM      9  C   UNL     1      -0.131  -4.440   2.760  0.00  0.00    +0.146 C 
ATOM     10  C   UNL     1      -1.241  -3.605   3.332  0.00  0.00    +0.066 A 
ATOM     11  C   UNL     1      -2.496  -3.301   2.796  0.00  0.00    +0.105 A 
ATOM     12  N   UNL     1      -3.132  -2.532   3.661  0.00  0.00    -0.170 NA
ATOM     13  N   UNL     1      -2.296  -2.329   4.769  0.00  0.00    -0.246 N 
ATOM     14  H   UNL     1      -2.510  -1.803   5.556  0.00  0.00    +0.192 HD
ATOM     15  C   UNL     1      -1.143  -2.993   4.550  0.00  0.00    +0.224 A 
ATOM     16  O   UNL     1      -0.038  -3.095   5.331  0.00  0.00    -0.423 OA
ATOM     17  C   UNL     1       0.878  -4.032   5.012  0.00  0.00    +0.201 C 
ATOM     18  C   UNL     1       0.892  -4.697   3.833  0.00  0.00    +0.110 C 
ATOM     19  C   UNL     1      -0.675  -5.748   2.230  0.00  0.00    +0.238 C 
ATOM     20  O   UNL     1      -1.261  -6.597   2.867  0.00  0.00    -0.274 OA
ATOM     21  N   UNL     1      -0.384  -5.790   0.912  0.00  0.00    -0.284 N 
ATOM     22  H   UNL     1      -0.624  -6.526   0.328  0.00  0.00    +0.155 HD
ENDROOT
BRANCH  11  23
ATOM     23  C   UNL     1      -3.021  -3.761   1.487  0.00  0.00    +0.048 A 
ATOM     24  C   UNL     1      -2.670  -3.089   0.319  0.00  0.00    +0.059 A 
ATOM     25  C   UNL     1      -3.162  -3.522  -0.901  0.00  0.00    +0.121 A 
ATOM     26  C   UNL     1      -4.004  -4.624  -0.960  0.00  0.00    +0.049 A 
ATOM     27  C   UNL     1      -4.356  -5.294   0.196  0.00  0.00    +0.050 A 
ATOM     28  C   UNL     1      -3.864  -4.873   1.421  0.00  0.00    +0.130 A 
BRANCH  28  29
ATOM     29  O   UNL     1      -4.206  -5.537   2.557  0.00  0.00    -0.494 OA
ATOM     30  C   UNL     1      -5.072  -6.664   2.413  0.00  0.00    +0.277 C 
ENDBRANCH  28  29
BRANCH  25  31
ATOM     31  O   UNL     1      -2.821  -2.867  -2.042  0.00  0.00    -0.495 OA
ATOM     32  C   UNL     1      -3.365  -3.367  -3.265  0.00  0.00    +0.277 C 
ENDBRANCH  25  31
ENDBRANCH  11  23
BRANCH  17  33
ATOM     33  N   UNL     1       1.851  -4.327   5.934  0.00  0.00    -0.328 N 
ATOM     34  H   UNL     1       1.866  -3.866   6.787  0.00  0.00    +0.145 HD
ATOM     35  H   UNL     1       2.523  -4.996   5.732  0.00  0.00    +0.145 HD
ENDBRANCH  17  33
BRANCH  18  36
ATOM     36  C   UNL     1       1.911  -5.676   3.601  0.00  0.00    +0.102 C 
ATOM     37  N   UNL     1       2.719  -6.453   3.416  0.00  0.00    -0.191 NA
ENDBRANCH  18  36
TORSDOF 5
