REMARK  Name = ZINC02212690
REMARK  14 active torsions:
REMARK  status: ('A' for Active; 'I' for Inactive)
REMARK    1  A    between atoms: C_1  and  C_2
REMARK    2  A    between atoms: C_2  and  C_3
REMARK    3  A    between atoms: C_3  and  C_4
REMARK    4  A    between atoms: C_4  and  O_5
REMARK    5  A    between atoms: O_5  and  C_6
REMARK    6  A    between atoms: C_6  and  C_8
REMARK    7  A    between atoms: C_9  and  N_38
REMARK    8  A    between atoms: C_14  and  C_15
REMARK    9  A    between atoms: C_18  and  C_21
REMARK   10  A    between atoms: C_24  and  C_34
REMARK   11  A    between atoms: C_25  and  C_27
REMARK   12  A    between atoms: C_30  and  C_33
REMARK   13  A    between atoms: C_34  and  O_36
REMARK   14  A    between atoms: O_36  and  C_37
REMARK                            x       y       z     vdW  Elec       q    Type
REMARK                         _______ _______ _______ _____ _____    ______ ____
ROOT
ATOM      1  C   UNL     1      -4.286   2.948   6.709  0.00  0.00    +0.087 C 
ATOM      2  C   UNL     1      -5.533   3.086   6.200  0.00  0.00    +0.115 C 
ATOM      3  N   UNL     1      -5.904   4.098   5.311  0.00  0.00    -0.257 N 
ATOM      4  C   UNL     1      -7.149   4.223   4.811  0.00  0.00    +0.271 A 
ATOM      5  O   UNL     1      -8.027   3.439   5.123  0.00  0.00    -0.266 OA
ATOM      6  C   UNL     1      -7.423   5.327   3.883  0.00  0.00    +0.079 A 
ATOM      7  C   UNL     1      -8.579   5.659   3.255  0.00  0.00    +0.028 C 
ATOM      8  S   UNL     1      -5.822   6.115   3.803  0.00  0.00    -0.065 S 
ATOM      9  C   UNL     1      -4.959   5.022   4.914  0.00  0.00    +0.100 A 
ATOM     10  C   UNL     1      -3.656   5.022   5.336  0.00  0.00    +0.079 C 
ATOM     11  C   UNL     1      -3.216   3.940   6.302  0.00  0.00    +0.099 C 
ENDROOT
BRANCH   7  12
ATOM     12  C   UNL     1      -8.673   6.921   2.507  0.00  0.00    -0.024 A 
ATOM     13  C   UNL     1      -7.753   7.949   2.742  0.00  0.00    +0.008 A 
ATOM     14  C   UNL     1      -7.844   9.126   2.031  0.00  0.00    +0.004 A 
ATOM     15  C   UNL     1      -8.849   9.298   1.095  0.00  0.00    -0.050 A 
ATOM     16  C   UNL     1      -9.767   8.288   0.861  0.00  0.00    +0.004 A 
ATOM     17  C   UNL     1      -9.686   7.102   1.558  0.00  0.00    +0.008 A 
ATOM     18  C   UNL     1      -8.945  10.591   0.327  0.00  0.00    +0.044 C 
ENDBRANCH   7  12
BRANCH  11  19
ATOM     19  C   UNL     1      -2.081   3.176   5.669  0.00  0.00    -0.035 A 
ATOM     20  C   UNL     1      -0.815   3.235   6.221  0.00  0.00    +0.005 A 
ATOM     21  C   UNL     1       0.225   2.534   5.640  0.00  0.00    +0.003 A 
ATOM     22  C   UNL     1      -0.000   1.774   4.508  0.00  0.00    -0.050 A 
ATOM     23  C   UNL     1      -1.265   1.719   3.953  0.00  0.00    +0.003 A 
ATOM     24  C   UNL     1      -2.307   2.416   4.536  0.00  0.00    +0.005 A 
ATOM     25  C   UNL     1       1.134   1.009   3.875  0.00  0.00    +0.044 C 
ENDBRANCH  11  19
BRANCH   2  26
ATOM     26  N   UNL     1      -6.488   2.179   6.580  0.00  0.00    -0.344 N 
ATOM     27  H   UNL     1      -7.386   2.480   6.791  0.00  0.00    +0.144 HD
ATOM     28  H   UNL     1      -6.266   1.237   6.637  0.00  0.00    +0.144 HD
ENDBRANCH   2  26
BRANCH   1  29
ATOM     29  C   UNL     1      -3.990   1.905   7.599  0.00  0.00    +0.339 C 
ATOM     30  O   UNL     1      -4.875   1.158   7.978  0.00  0.00    -0.245 OA
BRANCH  29  31
ATOM     31  O   UNL     1      -2.724   1.728   8.036  0.00  0.00    -0.461 OA
BRANCH  31  32
ATOM     32  C   UNL     1      -2.495   0.646   8.941  0.00  0.00    +0.232 C 
BRANCH  32  33
ATOM     33  C   UNL     1      -1.014   0.605   9.322  0.00  0.00    +0.041 C 
BRANCH  33  35
ATOM     34  C   UNL     1       0.713  -0.595  10.671  0.00  0.00    +0.004 C 
ATOM     35  C   UNL     1      -0.768  -0.554  10.290  0.00  0.00    -0.000 C 
ENDBRANCH  33  35
ENDBRANCH  32  33
ENDBRANCH  31  32
ENDBRANCH  29  31
ENDBRANCH   1  29
BRANCH  10  36
ATOM     36  C   UNL     1      -2.754   5.997   4.887  0.00  0.00    +0.338 C 
ATOM     37  O   UNL     1      -3.126   6.860   4.111  0.00  0.00    -0.245 OA
BRANCH  36  38
ATOM     38  O   UNL     1      -1.473   5.980   5.316  0.00  0.00    -0.465 OA
ATOM     39  C   UNL     1      -0.609   7.004   4.818  0.00  0.00    +0.280 C 
ENDBRANCH  36  38
ENDBRANCH  10  36
TORSDOF 10
