REMARK  Name = ZINC13064823
REMARK  10 active torsions:
REMARK  status: ('A' for Active; 'I' for Inactive)
REMARK    1  A    between atoms: C_1  and  C_2
REMARK    2  A    between atoms: C_2  and  C_3
REMARK    3  A    between atoms: C_3  and  C_5
REMARK    4  A    between atoms: C_3  and  N_72
REMARK    5  A    between atoms: N_9  and  C_10
REMARK    6  A    between atoms: C_15  and  C_16
REMARK    7  A    between atoms: C_15  and  N_72
REMARK    8  A    between atoms: C_19  and  C_29
REMARK    9  A    between atoms: C_21  and  C_28
REMARK   10  A    between atoms: C_30  and  N_72
REMARK                            x       y       z     vdW  Elec       q    Type
REMARK                         _______ _______ _______ _____ _____    ______ ____
ROOT
ATOM      1  N   UNL     1       3.020  -1.916  -0.772  0.00  0.00    +0.391 N 
ATOM      2  H   UNL     1       3.061  -1.500  -1.710  0.00  0.00    -0.080 HD
ENDROOT
BRANCH   1   3
ATOM      3  C   UNL     1       3.929  -1.171   0.124  0.00  0.00    -0.067 C 
ATOM      4  C   UNL     1       3.714  -1.593   1.579  0.00  0.00    -0.015 C 
ATOM      5  C   UNL     1       4.662  -0.805   2.484  0.00  0.00    -0.002 C 
ATOM      6  C   UNL     1       4.379   0.692   2.340  0.00  0.00    -0.000 C 
ATOM      7  C   UNL     1       4.594   1.114   0.886  0.00  0.00    -0.002 C 
ATOM      8  C   UNL     1       3.646   0.326  -0.020  0.00  0.00    -0.015 C 
ENDBRANCH   1   3
BRANCH   1   9
ATOM      9  C   UNL     1       1.633  -1.830  -0.269  0.00  0.00    +0.003 C 
BRANCH   9  10
ATOM     10  C   UNL     1       1.442  -2.745   0.913  0.00  0.00    +0.138 A 
ATOM     11  N   UNL     1       1.843  -3.989   1.012  0.00  0.00    -0.115 NA
ATOM     12  N   UNL     1       1.492  -4.430   2.171  0.00  0.00    -0.023 NA
ATOM     13  N   UNL     1       0.878  -3.499   2.814  0.00  0.00    -0.044 NA
ATOM     14  N   UNL     1       0.827  -2.445   2.072  0.00  0.00    -0.228 N 
BRANCH  14  15
ATOM     15  C   UNL     1       0.215  -1.161   2.425  0.00  0.00    +0.111 C 
ATOM     16  C   UNL     1       0.863  -0.601   3.708  0.00  0.00    +0.027 C 
ATOM     17  C   UNL     1      -0.313   0.061   4.468  0.00  0.00    +0.002 C 
ATOM     18  C   UNL     1      -1.488  -0.911   4.197  0.00  0.00    +0.002 C 
ATOM     19  C   UNL     1      -1.279  -1.358   2.735  0.00  0.00    +0.027 C 
ENDBRANCH  14  15
ENDBRANCH   9  10
BRANCH   9  21
ATOM     20  C   UNL     1       0.774  -1.231  -2.537  0.00  0.00    +0.002 C 
ATOM     21  C   UNL     1       0.677  -2.240  -1.391  0.00  0.00    -0.011 C 
ENDBRANCH   9  21
ENDBRANCH   1   9
BRANCH   1  22
ATOM     22  C   UNL     1       3.440  -3.330  -0.855  0.00  0.00    -0.036 C 
BRANCH  22  23
ATOM     23  C   UNL     1       4.676  -3.418  -1.712  0.00  0.00    +0.001 A 
ATOM     24  C   UNL     1       5.901  -3.448  -1.131  0.00  0.00    +0.017 A 
ATOM     25  C   UNL     1       7.082  -3.538  -1.992  0.00  0.00    +0.002 A 
ATOM     26  C   UNL     1       8.371  -3.577  -1.451  0.00  0.00    -0.041 A 
ATOM     27  C   UNL     1       9.452  -3.657  -2.281  0.00  0.00    +0.007 A 
ATOM     28  C   UNL     1       9.283  -3.699  -3.659  0.00  0.00    -0.048 A 
ATOM     29  C   UNL     1       8.023  -3.661  -4.214  0.00  0.00    +0.029 A 
ATOM     30  C   UNL     1       6.906  -3.580  -3.388  0.00  0.00    +0.050 A 
ATOM     31  N   UNL     1       5.634  -3.541  -3.917  0.00  0.00    -0.322 N 
ATOM     32  H   UNL     1       5.515  -3.571  -4.879  0.00  0.00    +0.169 HD
ATOM     33  C   UNL     1       4.555  -3.464  -3.118  0.00  0.00    +0.251 A 
ATOM     34  O   UNL     1       3.445  -3.431  -3.620  0.00  0.00    -0.268 OA
ATOM     35  C   UNL     1      10.491  -3.787  -4.556  0.00  0.00    +0.044 C 
ATOM     36  C   UNL     1       8.566  -3.532   0.043  0.00  0.00    +0.044 C 
ENDBRANCH  22  23
ENDBRANCH   1  22
TORSDOF 7
