REMARK  Name = ZINC06193147
REMARK  13 active torsions:
REMARK  status: ('A' for Active; 'I' for Inactive)
REMARK    1  A    between atoms: C_1  and  C_2
REMARK    2  A    between atoms: C_2  and  N_69
REMARK    3  A    between atoms: C_3  and  C_4
REMARK    4  A    between atoms: C_3  and  N_69
REMARK    5  A    between atoms: C_5  and  C_6
REMARK    6  A    between atoms: C_5  and  N_69
REMARK    7  A    between atoms: C_6  and  C_7
REMARK    8  A    between atoms: C_7  and  N_8
REMARK    9  A    between atoms: N_8  and  C_9
REMARK   10  A    between atoms: C_9  and  N_11
REMARK   11  A    between atoms: N_11  and  C_12
REMARK   12  A    between atoms: N_11  and  C_29
REMARK   13  A    between atoms: C_12  and  C_13
REMARK                            x       y       z     vdW  Elec       q    Type
REMARK                         _______ _______ _______ _____ _____    ______ ____
ROOT
ATOM      1  N   UNL     1      -1.159   2.540   0.391  0.00  0.00    -0.305 N 
ENDROOT
BRANCH   1   2
ATOM      2  C   UNL     1      -1.435   3.892   0.884  0.00  0.00    +0.075 C 
ATOM      3  C   UNL     1      -0.947   4.938  -0.141  0.00  0.00    +0.022 C 
ATOM      4  C   UNL     1      -0.396   6.094   0.730  0.00  0.00    +0.002 C 
ATOM      5  C   UNL     1       0.285   5.344   1.902  0.00  0.00    +0.002 C 
ATOM      6  C   UNL     1      -0.652   4.151   2.183  0.00  0.00    +0.022 C 
ENDBRANCH   1   2
BRANCH   1   7
ATOM      7  C   UNL     1       0.093   2.199   0.027  0.00  0.00    +0.133 C 
ATOM      8  S   UNL     1       1.384   3.297   0.267  0.00  0.00    -0.019 S 
BRANCH   7   9
ATOM      9  N   UNL     1       0.330   0.990  -0.520  0.00  0.00    -0.326 N 
ATOM     10  H   UNL     1      -0.387   0.341  -0.591  0.00  0.00    +0.148 HD
BRANCH   9  11
ATOM     11  C   UNL     1       1.671   0.656  -1.007  0.00  0.00    +0.101 C 
BRANCH  11  12
ATOM     12  C   UNL     1       1.668  -0.764  -1.576  0.00  0.00    +0.000 C 
BRANCH  12  13
ATOM     13  C   UNL     1       3.068  -1.113  -2.085  0.00  0.00    -0.077 C 
BRANCH  13  14
ATOM     14  N   UNL     1       3.054  -2.494  -2.611  0.00  0.00    +0.379 N 
ATOM     15  H   UNL     1       2.651  -3.117  -1.901  0.00  0.00    -0.082 HD
BRANCH  14  17
ATOM     16  C   UNL     1       2.829  -1.694  -4.940  0.00  0.00    -0.017 C 
ATOM     17  C   UNL     1       2.225  -2.560  -3.833  0.00  0.00    -0.082 C 
ENDBRANCH  14  17
BRANCH  14  18
ATOM     18  C   UNL     1       4.432  -2.934  -2.912  0.00  0.00    -0.082 C 
ATOM     19  C   UNL     1       4.431  -4.450  -3.114  0.00  0.00    -0.017 C 
ENDBRANCH  14  18
ENDBRANCH  13  14
ENDBRANCH  12  13
ENDBRANCH  11  12
ENDBRANCH   9  11
ENDBRANCH   7   9
ENDBRANCH   1   7
BRANCH   1  20
ATOM     20  C   UNL     1      -2.243   1.560   0.294  0.00  0.00    +0.147 C 
BRANCH  20  21
ATOM     21  C   UNL     1      -2.452   0.908   1.637  0.00  0.00    +0.035 A 
ATOM     22  C   UNL     1      -3.385   1.401   2.490  0.00  0.00    +0.020 A 
ATOM     23  C   UNL     1      -3.563   0.746   3.785  0.00  0.00    +0.003 A 
ATOM     24  C   UNL     1      -4.510   1.212   4.706  0.00  0.00    +0.059 A 
ATOM     25  C   UNL     1      -4.654   0.576   5.921  0.00  0.00    +0.163 A 
ATOM     26  C   UNL     1      -3.861  -0.533   6.234  0.00  0.00    +0.164 A 
ATOM     27  C   UNL     1      -2.924  -1.001   5.329  0.00  0.00    +0.075 A 
ATOM     28  C   UNL     1      -2.765  -0.370   4.102  0.00  0.00    +0.053 A 
ATOM     29  N   UNL     1      -1.834  -0.823   3.189  0.00  0.00    -0.322 N 
ATOM     30  H   UNL     1      -1.265  -1.613   3.415  0.00  0.00    +0.169 HD
ATOM     31  C   UNL     1      -1.681  -0.216   1.999  0.00  0.00    +0.254 A 
ATOM     32  O   UNL     1      -0.853  -0.646   1.215  0.00  0.00    -0.268 OA
ATOM     33  O   UNL     1      -4.000  -1.168   7.429  0.00  0.00    -0.485 OA
ATOM     34  C   UNL     1      -4.681  -0.452   8.464  0.00  0.00    +0.270 C 
ATOM     35  C   UNL     1      -5.956   0.159   7.868  0.00  0.00    +0.270 C 
ATOM     36  O   UNL     1      -5.575   1.044   6.809  0.00  0.00    -0.485 OA
ENDBRANCH  20  21
ENDBRANCH   1  20
TORSDOF 11
