REMARK  Name = ZINC11202878
REMARK  8 active torsions:
REMARK  status: ('A' for Active; 'I' for Inactive)
REMARK    1  A    between atoms: C_1  and  C_2
REMARK    2  A    between atoms: C_2  and  C_3
REMARK    3  A    between atoms: C_3  and  N_4
REMARK    4  A    between atoms: C_5  and  C_31
REMARK    5  A    between atoms: C_6  and  C_22
REMARK    6  A    between atoms: C_7  and  C_12
REMARK    7  A    between atoms: C_16  and  N_18
REMARK    8  A    between atoms: C_27  and  C_30
REMARK                            x       y       z     vdW  Elec       q    Type
REMARK                         _______ _______ _______ _____ _____    ______ ____
ROOT
ATOM      1  N   UNL     1       0.094   1.550  -0.134  0.00  0.00    -0.286 N 
ATOM      2  C   UNL     1       1.300   2.161   0.051  0.00  0.00    +0.020 C 
ATOM      3  C   UNL     1       2.442   1.444   0.123  0.00  0.00    +0.056 C 
ATOM      4  C   UNL     1       2.337  -0.062  -0.008  0.00  0.00    +0.139 C 
ATOM      5  N   UNL     1       0.990  -0.623  -0.204  0.00  0.00    -0.315 N 
ATOM      6  C   UNL     1      -0.057   0.225  -0.256  0.00  0.00    +0.138 C 
ATOM      7  S   UNL     1      -1.629  -0.413  -0.484  0.00  0.00    -0.018 S 
ATOM      8  C   UNL     1       1.359   3.662   0.177  0.00  0.00    +0.061 C 
ATOM      9  H   UNL     1       0.858  -1.580  -0.295  0.00  0.00    +0.149 HD
ENDROOT
BRANCH   3  10
ATOM     10  C   UNL     1       3.694   2.076   0.315  0.00  0.00    +0.249 C 
ATOM     11  O   UNL     1       4.221   2.061   1.413  0.00  0.00    -0.270 OA
ATOM     12  N   UNL     1       4.301   2.696  -0.716  0.00  0.00    -0.264 N 
ATOM     13  C   UNL     1       5.577   3.232  -0.553  0.00  0.00    +0.168 A 
ATOM     14  C   UNL     1       6.368   3.209   0.626  0.00  0.00    +0.091 A 
ATOM     15  C   UNL     1       7.504   3.850   0.270  0.00  0.00    +0.136 A 
ATOM     16  O   UNL     1       7.358   4.205  -1.014  0.00  0.00    -0.358 OA
ATOM     17  N   UNL     1       6.290   3.851  -1.458  0.00  0.00    -0.063 NA
ATOM     18  C   UNL     1       8.701   4.114   1.147  0.00  0.00    +0.089 C 
ATOM     19  H   UNL     1       3.850   2.769  -1.572  0.00  0.00    +0.157 HD
ENDBRANCH   3  10
BRANCH   4  20
ATOM     20  C   UNL     1       3.192  -0.488  -1.174  0.00  0.00    -0.020 A 
ATOM     21  C   UNL     1       2.688  -0.424  -2.460  0.00  0.00    +0.007 A 
ATOM     22  C   UNL     1       3.472  -0.813  -3.529  0.00  0.00    +0.018 A 
ATOM     23  C   UNL     1       4.761  -1.267  -3.313  0.00  0.00    +0.048 A 
ATOM     24  C   UNL     1       5.264  -1.331  -2.026  0.00  0.00    +0.140 A 
ATOM     25  C   UNL     1       4.481  -0.936  -0.958  0.00  0.00    +0.039 A 
ATOM     26 BR   UNL     1       5.834  -1.800  -4.776  0.00  0.00    -0.048 Br
BRANCH  24  27
ATOM     27  N   UNL     1       6.643  -1.816  -1.794  0.00  0.00    +0.058 N 
ATOM     28  O   UNL     1       7.086  -1.873  -0.661  0.00  0.00    -0.126 OA
ATOM     29  O   UNL     1       7.335  -2.159  -2.737  0.00  0.00    -0.126 OA
ENDBRANCH  24  27
ENDBRANCH   4  20
BRANCH   1  30
ATOM     30  C   UNL     1      -1.103   2.391  -0.209  0.00  0.00    +0.112 C 
BRANCH  30  32
ATOM     31  C   UNL     1      -2.957   3.424   1.110  0.00  0.00    +0.005 C 
ATOM     32  C   UNL     1      -1.707   2.545   1.189  0.00  0.00    +0.016 C 
ENDBRANCH  30  32
ENDBRANCH   1  30
TORSDOF 5
