REMARK  Name = ZINC22432949
REMARK  9 active torsions:
REMARK  status: ('A' for Active; 'I' for Inactive)
REMARK    1  A    between atoms: C_1  and  C_2
REMARK    2  A    between atoms: C_5  and  C_9
REMARK    3  A    between atoms: C_7  and  N_8
REMARK    4  A    between atoms: C_13  and  N_18
REMARK    5  A    between atoms: C_19  and  C_21
REMARK    6  A    between atoms: C_21  and  C_22
REMARK    7  A    between atoms: C_21  and  C_23
REMARK    8  A    between atoms: C_21  and  O_24
REMARK    9  A    between atoms: O_24  and  C_25
REMARK                            x       y       z     vdW  Elec       q    Type
REMARK                         _______ _______ _______ _____ _____    ______ ____
ROOT
ATOM      1  C   UNL     1       6.121  -1.068  -5.535  0.00  0.00    +0.228 A 
ATOM      2  N   UNL     1       6.008  -0.528  -4.348  0.00  0.00    -0.209 NA
ATOM      3  C   UNL     1       4.725  -0.666  -3.925  0.00  0.00    +0.112 A 
ATOM      4  C   UNL     1       4.048  -0.288  -2.764  0.00  0.00    +0.055 A 
ATOM      5  C   UNL     1       2.703  -0.580  -2.630  0.00  0.00    +0.036 A 
ATOM      6  C   UNL     1       2.026  -1.254  -3.645  0.00  0.00    +0.027 A 
ATOM      7  C   UNL     1       2.686  -1.626  -4.796  0.00  0.00    +0.050 A 
ATOM      8  C   UNL     1       4.035  -1.340  -4.946  0.00  0.00    +0.156 A 
ATOM      9  O   UNL     1       4.936  -1.572  -5.927  0.00  0.00    -0.435 OA
ENDROOT
BRANCH   1  14
ATOM     10  C   UNL     1      10.985  -1.255  -8.614  0.00  0.00    +0.045 C 
ATOM     11  C   UNL     1       9.711  -1.207  -7.810  0.00  0.00    -0.030 A 
ATOM     12  C   UNL     1       9.706  -0.609  -6.563  0.00  0.00    +0.006 A 
ATOM     13  C   UNL     1       8.542  -0.556  -5.823  0.00  0.00    +0.013 A 
ATOM     14  C   UNL     1       7.368  -1.118  -6.328  0.00  0.00    +0.039 A 
ATOM     15  C   UNL     1       7.373  -1.721  -7.585  0.00  0.00    +0.036 A 
ATOM     16  C   UNL     1       8.546  -1.764  -8.323  0.00  0.00    +0.028 A 
BRANCH  16  17
ATOM     17  N   UNL     1       8.557  -2.368  -9.583  0.00  0.00    -0.358 N 
ATOM     18  H   UNL     1       7.635  -2.809  -9.990  0.00  0.00    +0.142 HD
ATOM     19  H   UNL     1       9.488  -2.402 -10.169  0.00  0.00    +0.142 HD
ENDBRANCH  16  17
ENDBRANCH   1  14
BRANCH   5  20
ATOM     20  N   UNL     1       2.020  -0.203  -1.467  0.00  0.00    -0.282 N 
ATOM     21  C   UNL     1       0.736   0.201  -1.540  0.00  0.00    +0.261 C 
ATOM     22  O   UNL     1       0.148   0.162  -2.600  0.00  0.00    -0.271 OA
ATOM     23  H   UNL     1       2.531  -0.237  -0.493  0.00  0.00    +0.155 HD
BRANCH  21  24
ATOM     24  C   UNL     1       0.031   0.700  -0.305  0.00  0.00    +0.180 C 
ATOM     25  C   UNL     1       0.771   1.920   0.246  0.00  0.00    +0.065 C 
ATOM     26  C   UNL     1       0.011  -0.405   0.752  0.00  0.00    +0.065 C 
BRANCH  24  27
ATOM     27  O   UNL     1      -1.310   1.066  -0.637  0.00  0.00    -0.477 OA
BRANCH  27  28
ATOM     28  C   UNL     1      -2.115   0.085  -1.123  0.00  0.00    +0.122 A 
ATOM     29  C   UNL     1      -1.593  -1.172  -1.393  0.00  0.00    +0.047 A 
ATOM     30  C   UNL     1      -2.414  -2.170  -1.881  0.00  0.00    +0.019 A 
ATOM     31  C   UNL     1      -3.754  -1.913  -2.112  0.00  0.00    +0.018 A 
ATOM     32  C   UNL     1      -4.275  -0.658  -1.850  0.00  0.00    +0.019 A 
ATOM     33  C   UNL     1      -3.458   0.340  -1.356  0.00  0.00    +0.047 A 
ATOM     34 BR   UNL     1      -4.875  -3.278  -2.787  0.00  0.00    -0.050 Br
ENDBRANCH  27  28
ENDBRANCH  24  27
ENDBRANCH  21  24
ENDBRANCH   5  20
TORSDOF 6
