REMARK  Name = ZINC64690669
REMARK  5 active torsions:
REMARK  status: ('A' for Active; 'I' for Inactive)
REMARK    1  A    between atoms: C_4  and  C_7
REMARK    2  A    between atoms: N_9  and  C_10
REMARK    3  A    between atoms: C_18  and  C_20
REMARK    4  A    between atoms: N_22  and  C_23
REMARK    5  A    between atoms: C_23  and  C_24
REMARK                            x       y       z     vdW  Elec       q    Type
REMARK                         _______ _______ _______ _____ _____    ______ ____
ROOT
ATOM      1  C   UNL     1       4.901  -2.692  -0.164  0.00  0.00    +0.051 C 
ATOM      2  C   UNL     1       6.169  -2.137  -0.183  0.00  0.00    +0.020 A 
ATOM      3  C   UNL     1       6.628  -0.800  -0.094  0.00  0.00    +0.050 A 
ATOM      4  C   UNL     1       7.959  -0.541  -0.142  0.00  0.00    +0.124 A 
ATOM      5  C   UNL     1       8.901  -1.568  -0.279  0.00  0.00    +0.040 A 
ATOM      6  C   UNL     1       8.533  -2.868  -0.369  0.00  0.00    +0.029 A 
ATOM      7  C   UNL     1       7.158  -3.219  -0.327  0.00  0.00    +0.045 A 
ATOM      8  N   UNL     1       6.554  -4.388  -0.394  0.00  0.00    -0.369 N 
ATOM      9  C   UNL     1       5.105  -4.185  -0.295  0.00  0.00    +0.211 C 
ATOM     10  F   UNL     1       8.386   0.738  -0.057  0.00  0.00    -0.205 F 
ATOM     11  H   UNL     1       6.997  -5.246  -0.490  0.00  0.00    +0.161 HD
ENDROOT
BRANCH   1  14
ATOM     12  C   UNL     1       3.586  -0.787  -0.547  0.00  0.00    +0.248 C 
ATOM     13  O   UNL     1       4.535  -0.242  -1.075  0.00  0.00    -0.270 OA
ATOM     14  N   UNL     1       3.717  -2.031  -0.046  0.00  0.00    -0.282 N 
ATOM     15  H   UNL     1       2.967  -2.456   0.400  0.00  0.00    +0.155 HD
BRANCH  12  19
ATOM     16  C   UNL     1      -0.143   1.228  -0.280  0.00  0.00    +0.000 A 
ATOM     17  C   UNL     1       0.936   1.852  -0.882  0.00  0.00    +0.001 A 
ATOM     18  C   UNL     1       2.150   1.203  -0.972  0.00  0.00    +0.013 A 
ATOM     19  C   UNL     1       2.289  -0.086  -0.454  0.00  0.00    +0.037 A 
ATOM     20  C   UNL     1       1.196  -0.710   0.152  0.00  0.00    +0.013 A 
ATOM     21  C   UNL     1      -0.012  -0.049   0.235  0.00  0.00    +0.001 A 
ENDBRANCH  12  19
ENDBRANCH   1  14
BRANCH   9  22
ATOM     22  C   UNL     1       4.426  -4.694  -1.541  0.00  0.00    +0.241 C 
ATOM     23  O   UNL     1       5.076  -4.902  -2.544  0.00  0.00    -0.273 OA
ATOM     24  N   UNL     1       3.097  -4.917  -1.541  0.00  0.00    -0.309 N 
ATOM     25  H   UNL     1       2.578  -4.751  -0.739  0.00  0.00    +0.149 HD
BRANCH  24  26
ATOM     26  C   UNL     1       2.437  -5.412  -2.752  0.00  0.00    +0.141 C 
BRANCH  26  27
ATOM     27  C   UNL     1       0.963  -5.577  -2.489  0.00  0.00    -0.012 A 
ATOM     28  C   UNL     1       0.447  -6.828  -2.206  0.00  0.00    +0.006 A 
ATOM     29  C   UNL     1      -0.906  -6.979  -1.964  0.00  0.00    +0.000 A 
ATOM     30  C   UNL     1      -1.743  -5.880  -2.006  0.00  0.00    +0.001 A 
ATOM     31  C   UNL     1      -1.228  -4.629  -2.288  0.00  0.00    +0.020 A 
ATOM     32  C   UNL     1       0.126  -4.476  -2.524  0.00  0.00    +0.046 A 
ATOM     33 CL   UNL     1       0.775  -2.904  -2.873  0.00  0.00    -0.083 Cl
ENDBRANCH  26  27
ENDBRANCH  24  26
ENDBRANCH   9  22
TORSDOF 5
