REMARK  Name = ZINC15946794
REMARK  10 active torsions:
REMARK  status: ('A' for Active; 'I' for Inactive)
REMARK    1  A    between atoms: C_1  and  C_2
REMARK    2  A    between atoms: C_7  and  C_8
REMARK    3  A    between atoms: C_7  and  N_70
REMARK    4  A    between atoms: N_10  and  C_11
REMARK    5  A    between atoms: C_12  and  C_25
REMARK    6  A    between atoms: C_17  and  C_21
REMARK    7  A    between atoms: C_21  and  C_22
REMARK    8  A    between atoms: C_21  and  C_23
REMARK    9  A    between atoms: C_21  and  C_24
REMARK   10  A    between atoms: N_27  and  C_28
REMARK                            x       y       z     vdW  Elec       q    Type
REMARK                         _______ _______ _______ _____ _____    ______ ____
ROOT
ATOM      1  C   UNL     1      -0.933  -1.386   0.542  0.00  0.00    +0.084 A 
ATOM      2  C   UNL     1      -1.189  -0.023   0.580  0.00  0.00    +0.069 A 
ATOM      3  C   UNL     1      -0.279   0.811   1.347  0.00  0.00    -0.023 A 
ATOM      4  C   UNL     1       0.735   0.152   1.948  0.00  0.00    -0.004 A 
ATOM      5  S   UNL     1       0.495  -1.546   1.510  0.00  0.00    -0.077 S 
ATOM      6  C   UNL     1       1.818   0.743   2.798  0.00  0.00    +0.046 C 
ATOM      7  C   UNL     1       1.397   2.164   3.198  0.00  0.00    -0.000 C 
ATOM      8  C   UNL     1       0.910   2.905   1.949  0.00  0.00    +0.009 C 
ATOM      9  C   UNL     1      -0.425   2.321   1.485  0.00  0.00    +0.037 C 
ENDROOT
BRANCH   1  12
ATOM     10  C   UNL     1      -1.240  -3.662  -0.036  0.00  0.00    +0.201 C 
ATOM     11  O   UNL     1      -0.252  -3.948   0.607  0.00  0.00    -0.278 OA
ATOM     12  N   UNL     1      -1.646  -2.379  -0.113  0.00  0.00    -0.281 N 
ATOM     13  H   UNL     1      -2.436  -2.150  -0.626  0.00  0.00    +0.155 HD
BRANCH  10  14
ATOM     14  C   UNL     1      -2.015  -4.741  -0.747  0.00  0.00    +0.019 C 
BRANCH  14  21
ATOM     15  C   UNL     1       0.675  -9.762  -1.217  0.00  0.00    +0.007 C 
ATOM     16  C   UNL     1      -0.072  -8.467  -1.539  0.00  0.00    -0.018 C 
ATOM     17  C   UNL     1       0.758  -7.267  -1.074  0.00  0.00    -0.016 C 
ATOM     18  C   UNL     1      -0.022  -5.978  -1.343  0.00  0.00    -0.078 C 
ATOM     19  C   UNL     1      -2.136  -7.135  -1.088  0.00  0.00    -0.078 C 
ATOM     20  C   UNL     1      -1.419  -8.459  -0.811  0.00  0.00    -0.016 C 
ATOM     21  N   UNL     1      -1.296  -6.022  -0.595  0.00  0.00    +0.385 N 
ATOM     22  H   UNL     1      -1.092  -6.175   0.400  0.00  0.00    -0.081 HD
ENDBRANCH  14  21
ENDBRANCH  10  14
ENDBRANCH   1  12
BRANCH   7  23
ATOM     23  C   UNL     1       2.594   2.904   3.799  0.00  0.00    -0.035 C 
ATOM     24  C   UNL     1       3.719   2.978   2.764  0.00  0.00    +0.011 C 
ATOM     25  C   UNL     1       2.172   4.320   4.196  0.00  0.00    +0.011 C 
ATOM     26  C   UNL     1       3.089   2.153   5.037  0.00  0.00    +0.011 C 
ENDBRANCH   7  23
BRANCH   2  27
ATOM     27  C   UNL     1      -2.337   0.555  -0.126  0.00  0.00    +0.251 C 
ATOM     28  O   UNL     1      -2.216   0.932  -1.277  0.00  0.00    -0.270 OA
ATOM     29  N   UNL     1      -3.525   0.669   0.499  0.00  0.00    -0.281 N 
ATOM     30  H   UNL     1      -3.604   0.434   1.437  0.00  0.00    +0.155 HD
BRANCH  29  31
ATOM     31  C   UNL     1      -4.645   1.126  -0.204  0.00  0.00    +0.034 A 
ATOM     32  C   UNL     1      -5.619   1.872   0.447  0.00  0.00    +0.025 A 
ATOM     33  C   UNL     1      -6.720   2.327  -0.252  0.00  0.00    +0.022 A 
ATOM     34  C   UNL     1      -6.859   2.031  -1.596  0.00  0.00    +0.041 A 
ATOM     35  C   UNL     1      -5.893   1.283  -2.246  0.00  0.00    +0.022 A 
ATOM     36  C   UNL     1      -4.787   0.831  -1.554  0.00  0.00    +0.025 A 
ATOM     37 CL   UNL     1      -8.248   2.599  -2.469  0.00  0.00    -0.084 Cl
ENDBRANCH  29  31
ENDBRANCH   2  27
TORSDOF 6
