REMARK  Name = ZINC08915985
REMARK  12 active torsions:
REMARK  status: ('A' for Active; 'I' for Inactive)
REMARK    1  A    between atoms: C_1  and  C_2
REMARK    2  A    between atoms: C_2  and  O_3
REMARK    3  A    between atoms: O_3  and  C_4
REMARK    4  A    between atoms: C_6  and  C_12
REMARK    5  A    between atoms: C_9  and  O_10
REMARK    6  A    between atoms: C_17  and  C_22
REMARK    7  A    between atoms: C_25  and  O_28
REMARK    8  A    between atoms: O_28  and  C_29
REMARK    9  A    between atoms: C_31  and  C_37
REMARK   10  A    between atoms: C_32  and  C_33
REMARK   11  A    between atoms: C_33  and  O_35
REMARK   12  A    between atoms: O_35  and  C_36
REMARK                            x       y       z     vdW  Elec       q    Type
REMARK                         _______ _______ _______ _____ _____    ______ ____
ROOT
ATOM      1  C   UNL     1      -1.001   9.923   0.164  0.00  0.00    +0.092 C 
ATOM      2  C   UNL     1      -0.920   8.422   0.044  0.00  0.00    +0.024 C 
ATOM      3  C   UNL     1      -0.856   7.644   1.146  0.00  0.00    +0.016 C 
ATOM      4  C   UNL     1      -0.793   6.141   1.034  0.00  0.00    +0.059 C 
ATOM      5  C   UNL     1      -0.072   5.752  -0.259  0.00  0.00    +0.032 C 
ATOM      6  C   UNL     1      -0.827   6.369  -1.441  0.00  0.00    +0.088 C 
ATOM      7  C   UNL     1      -0.916   7.857  -1.244  0.00  0.00    +0.162 C 
ATOM      8  O   UNL     1      -0.985   8.585  -2.214  0.00  0.00    -0.292 OA
ATOM      9  N   UNL     1      -0.845   8.207   2.394  0.00  0.00    -0.321 N 
ATOM     10  C   UNL     1      -0.512   9.522   2.563  0.00  0.00    +0.016 C 
ATOM     11  C   UNL     1      -0.568  10.377   1.527  0.00  0.00    +0.065 C 
ATOM     12  C   UNL     1      -0.080  10.016   3.919  0.00  0.00    +0.061 C 
ATOM     13  H   UNL     1      -1.106   7.600   3.273  0.00  0.00    +0.152 HD
ENDROOT
BRANCH   1  16
ATOM     14  C   UNL     1      -4.018  11.631  -1.337  0.00  0.00    +0.163 A 
ATOM     15  C   UNL     1      -2.711  11.226  -1.115  0.00  0.00    +0.054 A 
ATOM     16  C   UNL     1      -2.422  10.362  -0.075  0.00  0.00    -0.030 A 
ATOM     17  C   UNL     1      -3.435   9.896   0.743  0.00  0.00    +0.028 A 
ATOM     18  C   UNL     1      -4.741  10.301   0.530  0.00  0.00    +0.086 A 
ATOM     19  C   UNL     1      -5.037  11.167  -0.511  0.00  0.00    +0.177 A 
ATOM     20 CL   UNL     1      -6.009   9.719   1.563  0.00  0.00    -0.080 Cl
BRANCH  19  21
ATOM     21  O   UNL     1      -6.321  11.562  -0.725  0.00  0.00    -0.502 OA
ATOM     22  H   UNL     1      -7.126  11.194  -0.072  0.00  0.00    +0.292 HD
ENDBRANCH  19  21
BRANCH  14  23
ATOM     23  O   UNL     1      -4.303  12.481  -2.359  0.00  0.00    -0.489 OA
BRANCH  23  25
ATOM     24  C   UNL     1      -3.720  13.861  -4.256  0.00  0.00    +0.048 C 
ATOM     25  C   UNL     1      -3.207  12.917  -3.165  0.00  0.00    +0.226 C 
ENDBRANCH  23  25
ENDBRANCH  14  23
ENDBRANCH   1  16
BRANCH   5  26
ATOM     26  C   UNL     1      -0.054   4.252  -0.397  0.00  0.00    -0.043 A 
ATOM     27  C   UNL     1       1.153   3.579  -0.464  0.00  0.00    +0.007 A 
ATOM     28  C   UNL     1       1.172   2.204  -0.591  0.00  0.00    +0.046 A 
ATOM     29  C   UNL     1      -0.020   1.497  -0.650  0.00  0.00    +0.120 A 
ATOM     30  C   UNL     1      -1.229   2.174  -0.588  0.00  0.00    +0.046 A 
ATOM     31  C   UNL     1      -1.243   3.549  -0.456  0.00  0.00    +0.007 A 
BRANCH  29  32
ATOM     32  O   UNL     1      -0.003   0.144  -0.776  0.00  0.00    -0.495 OA
ATOM     33  C   UNL     1      -1.269  -0.518  -0.831  0.00  0.00    +0.277 C 
ENDBRANCH  29  32
ENDBRANCH   5  26
BRANCH  11  34
ATOM     34  C   UNL     1      -0.212  11.732   1.726  0.00  0.00    +0.337 C 
ATOM     35  O   UNL     1       0.038  12.137   2.846  0.00  0.00    -0.245 OA
BRANCH  34  36
ATOM     36  O   UNL     1      -0.149  12.575   0.674  0.00  0.00    -0.465 OA
ATOM     37  C   UNL     1       0.217  13.928   0.948  0.00  0.00    +0.280 C 
ENDBRANCH  34  36
ENDBRANCH  11  34
TORSDOF 8
