REMARK  Name = ZINC05503773
REMARK  13 active torsions:
REMARK  status: ('A' for Active; 'I' for Inactive)
REMARK    1  A    between atoms: C_1  and  C_2
REMARK    2  A    between atoms: C_3  and  O_30
REMARK    3  A    between atoms: C_4  and  C_27
REMARK    4  A    between atoms: C_7  and  O_8
REMARK    5  A    between atoms: O_8  and  C_9
REMARK    6  A    between atoms: C_9  and  C_11
REMARK    7  A    between atoms: C_12  and  C_26
REMARK    8  A    between atoms: C_13  and  O_25
REMARK    9  A    between atoms: C_14  and  C_22
REMARK   10  A    between atoms: C_18  and  O_20
REMARK   11  A    between atoms: O_20  and  C_21
REMARK   12  A    between atoms: C_22  and  C_24
REMARK   13  A    between atoms: C_27  and  C_29
REMARK                            x       y       z     vdW  Elec       q    Type
REMARK                         _______ _______ _______ _____ _____    ______ ____
ROOT
ATOM      1  C   UNL     1      -2.531   5.966   5.369  0.00  0.00    +0.051 C 
ATOM      2  C   UNL     1      -2.150   4.646   4.748  0.00  0.00    +0.034 A 
ATOM      3  C   UNL     1      -1.917   3.559   5.565  0.00  0.00    +0.137 A 
ATOM      4  C   UNL     1      -1.562   2.300   5.034  0.00  0.00    +0.101 A 
ATOM      5  C   UNL     1      -1.459   2.199   3.630  0.00  0.00    +0.146 A 
ATOM      6  C   UNL     1      -1.691   3.325   2.822  0.00  0.00    +0.057 A 
ATOM      7  C   UNL     1      -2.041   4.553   3.359  0.00  0.00    +0.146 A 
ATOM      8  C   UNL     1      -1.477   2.867   1.423  0.00  0.00    +0.123 C 
ATOM      9  C   UNL     1      -2.474   3.313   0.391  0.00  0.00    +0.125 C 
ATOM     10  C   UNL     1      -2.511   2.499  -0.752  0.00  0.00    +0.098 C 
ATOM     11  C   UNL     1      -1.598   1.355  -0.844  0.00  0.00    +0.176 C 
ATOM     12  O   UNL     1      -1.233   0.967  -1.934  0.00  0.00    -0.292 OA
ATOM     13  C   UNL     1      -1.104   0.647   0.405  0.00  0.00    +0.160 C 
ATOM     14  C   UNL     1      -1.738   1.334   1.596  0.00  0.00    +0.236 C 
ATOM     15  O   UNL     1      -1.169   1.104   2.879  0.00  0.00    -0.458 OA
ATOM     16  C   UNL     1      -0.046   3.155   0.963  0.00  0.00    +0.031 C 
ENDROOT
BRANCH  10  17
ATOM     17  C   UNL     1      -3.448   2.788  -1.838  0.00  0.00    +0.167 C 
ATOM     18  O   UNL     1      -4.284   3.658  -1.704  0.00  0.00    -0.292 OA
ATOM     19  C   UNL     1      -3.376   2.006  -3.124  0.00  0.00    +0.092 C 
ENDBRANCH  10  17
BRANCH   4  20
ATOM     20  C   UNL     1      -1.310   1.151   5.902  0.00  0.00    +0.167 C 
ATOM     21  O   UNL     1      -2.235   0.459   6.276  0.00  0.00    -0.292 OA
ATOM     22  C   UNL     1       0.097   0.824   6.331  0.00  0.00    +0.092 C 
ENDBRANCH   4  20
BRANCH  14  23
ATOM     23  O   UNL     1      -3.144   1.078   1.617  0.00  0.00    -0.341 OA
ATOM     24  C   UNL     1      -3.481  -0.298   1.807  0.00  0.00    +0.198 C 
ENDBRANCH  14  23
BRANCH   9  25
ATOM     25  O   UNL     1      -3.257   4.390   0.548  0.00  0.00    -0.509 OA
ATOM     26  H   UNL     1      -3.840   4.499  -0.257  0.00  0.00    +0.292 HD
ENDBRANCH   9  25
BRANCH   3  27
ATOM     27  O   UNL     1      -2.033   3.703   6.908  0.00  0.00    -0.506 OA
ATOM     28  H   UNL     1      -1.213   3.965   7.348  0.00  0.00    +0.292 HD
ENDBRANCH   3  27
BRANCH   7  29
ATOM     29  O   UNL     1      -2.271   5.628   2.562  0.00  0.00    -0.425 OA
BRANCH  29  30
ATOM     30  C   UNL     1      -1.211   6.390   2.247  0.00  0.00    +0.309 C 
ATOM     31  O   UNL     1      -0.115   6.106   2.669  0.00  0.00    -0.251 OA
ATOM     32  C   UNL     1      -1.389   7.600   1.367  0.00  0.00    +0.136 C 
ENDBRANCH  29  30
ENDBRANCH   7  29
TORSDOF 7
