REMARK  Name = ZINC20901821
REMARK  4 active torsions:
REMARK  status: ('A' for Active; 'I' for Inactive)
REMARK    1  A    between atoms: C_6  and  S_7
REMARK    2  A    between atoms: S_7  and  N_10
REMARK    3  A    between atoms: C_13  and  C_16
REMARK    4  A    between atoms: C_13  and  N_19
REMARK                            x       y       z     vdW  Elec       q    Type
REMARK                         _______ _______ _______ _____ _____    ______ ____
ROOT
ATOM      1  N   UNL     1      -3.544  -2.245   0.666  0.00  0.00    -0.177 NA
ATOM      2  C   UNL     1      -2.803  -2.785  -0.482  0.00  0.00    +0.108 C 
ATOM      3  C   UNL     1      -1.335  -2.363  -0.364  0.00  0.00    +0.014 C 
ATOM      4  C   UNL     1      -1.255  -0.842  -0.223  0.00  0.00    +0.015 C 
ATOM      5  C   UNL     1      -1.987  -0.406   1.049  0.00  0.00    +0.014 C 
ATOM      6  C   UNL     1      -3.462  -0.806   0.946  0.00  0.00    +0.108 C 
ENDROOT
BRANCH   4   7
ATOM      7  N   UNL     1       0.153  -0.431  -0.142  0.00  0.00    +0.389 N 
ATOM      8  C   UNL     1       0.273   1.033  -0.114  0.00  0.00    -0.077 C 
ATOM      9  C   UNL     1       1.751   1.425  -0.177  0.00  0.00    -0.019 C 
ATOM     10  C   UNL     1       2.489   0.811   1.016  0.00  0.00    -0.004 C 
ATOM     11  C   UNL     1       2.307  -0.709   0.990  0.00  0.00    -0.019 C 
ATOM     12  C   UNL     1       0.813  -1.040   1.019  0.00  0.00    -0.077 C 
ATOM     13  H   UNL     1       0.664  -0.792  -1.046  0.00  0.00    -0.080 HD
ENDBRANCH   4   7
BRANCH   4  14
ATOM     14  C   UNL     1      -1.900  -0.192  -1.420  0.00  0.00    +0.200 C 
ATOM     15  O   UNL     1      -3.034   0.232  -1.343  0.00  0.00    -0.278 OA
ATOM     16  N   UNL     1      -1.217  -0.082  -2.576  0.00  0.00    -0.330 N 
ATOM     17  H   UNL     1      -1.687   0.393  -3.450  0.00  0.00    +0.145 HD
ATOM     18  H   UNL     1      -0.188  -0.466  -2.646  0.00  0.00    +0.145 HD
ENDBRANCH   4  14
BRANCH   1  19
ATOM     19  S   UNL     1      -4.455  -3.242   1.625  0.00  0.00    +0.064 S 
ATOM     20  O   UNL     1      -5.561  -2.472   2.076  0.00  0.00    -0.153 OA
ATOM     21  O   UNL     1      -4.615  -4.459   0.911  0.00  0.00    -0.153 OA
BRANCH  19  27
ATOM     22  C   UNL     1      -3.866  -3.148   4.296  0.00  0.00    +0.048 A 
ATOM     23  C   UNL     1      -3.075  -3.469   5.392  0.00  0.00    +0.038 A 
ATOM     24  C   UNL     1      -1.945  -4.242   5.208  0.00  0.00    +0.128 A 
ATOM     25  N   UNL     1      -1.610  -4.675   4.007  0.00  0.00    -0.238 NA
ATOM     26  C   UNL     1      -2.341  -4.395   2.939  0.00  0.00    +0.143 A 
ATOM     27  C   UNL     1      -3.489  -3.617   3.051  0.00  0.00    +0.146 A 
ATOM     28  N   UNL     1      -1.954  -4.877   1.694  0.00  0.00    -0.342 N 
ATOM     29 BR   UNL     1      -3.542  -2.856   7.119  0.00  0.00    -0.049 Br
ATOM     30  H   UNL     1      -2.557  -4.648   0.803  0.00  0.00    +0.144 HD
ATOM     31  H   UNL     1      -1.044  -5.488   1.599  0.00  0.00    +0.144 HD
ENDBRANCH  19  27
ENDBRANCH   1  19
TORSDOF 4
