REMARK  Name = ZINC20759228
REMARK  8 active torsions:
REMARK  status: ('A' for Active; 'I' for Inactive)
REMARK    1  A    between atoms: C_1  and  C_2
REMARK    2  A    between atoms: C_5  and  C_8
REMARK    3  A    between atoms: N_10  and  C_11
REMARK    4  A    between atoms: C_11  and  C_13
REMARK    5  A    between atoms: C_11  and  C_17
REMARK    6  A    between atoms: C_13  and  C_14
REMARK    7  A    between atoms: C_14  and  S_15
REMARK    8  A    between atoms: S_15  and  C_16
REMARK                            x       y       z     vdW  Elec       q    Type
REMARK                         _______ _______ _______ _____ _____    ______ ____
ROOT
ATOM      1  C   UNL     1      -0.478  -6.813   2.465  0.00  0.00    +0.236 C 
ATOM      2  O   UNL     1      -0.944  -5.980   3.213  0.00  0.00    -0.274 OA
ATOM      3  N   UNL     1      -0.472  -8.112   2.823  0.00  0.00    -0.300 N 
ATOM      4  C   UNL     1       0.191  -9.118   1.982  0.00  0.00    +0.110 C 
ATOM      5  C   UNL     1       1.188  -9.901   2.842  0.00  0.00    +0.047 C 
ATOM      6  C   UNL     1       0.464 -10.476   4.060  0.00  0.00    +0.064 C 
ATOM      7  C   UNL     1      -0.116  -9.339   4.902  0.00  0.00    +0.047 C 
ATOM      8  C   UNL     1      -1.121  -8.549   4.067  0.00  0.00    +0.110 C 
ATOM      9  C   UNL     1       1.427 -11.284   4.889  0.00  0.00    +0.057 A 
ATOM     10  C   UNL     1       1.133 -12.496   5.411  0.00  0.00    +0.039 A 
ATOM     11  N   UNL     1       2.202 -12.927   6.081  0.00  0.00    -0.349 N 
ATOM     12  C   UNL     1       3.150 -12.030   5.997  0.00  0.00    +0.171 A 
ATOM     13  N   UNL     1       2.700 -10.987   5.260  0.00  0.00    -0.348 N 
ATOM     14  H   UNL     1       3.194 -10.182   5.037  0.00  0.00    +0.166 HD
ATOM     15  C   UNL     1      -0.203 -13.171   5.222  0.00  0.00    +0.070 C 
ATOM     16  C   UNL     1      -1.202 -12.111   4.738  0.00  0.00    +0.088 C 
ATOM     17  N   UNL     1      -0.623 -11.362   3.613  0.00  0.00    -0.305 NA
ATOM     18  H   UNL     1      -1.334 -10.842   3.121  0.00  0.00    +0.123 HD
ATOM     19  H   UNL     1       2.267 -13.771   6.554  0.00  0.00    +0.166 HD
ENDROOT
BRANCH   1  20
ATOM     20  C   UNL     1       0.093  -6.395   1.135  0.00  0.00    +0.160 C 
BRANCH  20  23
ATOM     21  C   UNL     1      -0.607  -4.856  -0.620  0.00  0.00    +0.245 C 
ATOM     22  O   UNL     1      -0.119  -5.612  -1.437  0.00  0.00    -0.270 OA
ATOM     23  N   UNL     1      -0.553  -5.157   0.693  0.00  0.00    -0.300 N 
ATOM     24  H   UNL     1      -0.942  -4.554   1.345  0.00  0.00    +0.150 HD
BRANCH  21  29
ATOM     25  C   UNL     1      -3.146   0.007  -2.356  0.00  0.00    +0.044 C 
ATOM     26  C   UNL     1      -2.481  -1.266  -1.902  0.00  0.00    -0.050 A 
ATOM     27  C   UNL     1      -1.926  -2.124  -2.834  0.00  0.00    +0.004 A 
ATOM     28  C   UNL     1      -1.316  -3.292  -2.425  0.00  0.00    +0.013 A 
ATOM     29  C   UNL     1      -1.258  -3.607  -1.066  0.00  0.00    +0.037 A 
ATOM     30  C   UNL     1      -1.820  -2.736  -0.131  0.00  0.00    +0.013 A 
ATOM     31  C   UNL     1      -2.422  -1.569  -0.553  0.00  0.00    +0.004 A 
ENDBRANCH  21  29
ENDBRANCH  20  23
BRANCH  20  32
ATOM     32  C   UNL     1       1.599  -6.162   1.276  0.00  0.00    +0.042 C 
BRANCH  32  33
ATOM     33  C   UNL     1       2.203  -5.879  -0.100  0.00  0.00    +0.071 C 
BRANCH  33  34
ATOM     34  S   UNL     1       3.988  -5.603   0.068  0.00  0.00    -0.164 S 
ATOM     35  C   UNL     1       4.545  -5.285  -1.629  0.00  0.00    +0.084 C 
ENDBRANCH  33  34
ENDBRANCH  32  33
ENDBRANCH  20  32
ENDBRANCH   1  20
TORSDOF 6
