REMARK  Name = ZINC43687532
REMARK  7 active torsions:
REMARK  status: ('A' for Active; 'I' for Inactive)
REMARK    1  A    between atoms: C_1  and  C_2
REMARK    2  A    between atoms: C_2  and  O_3
REMARK    3  A    between atoms: O_3  and  C_4
REMARK    4  A    between atoms: C_6  and  C_18
REMARK    5  A    between atoms: C_9  and  O_10
REMARK    6  A    between atoms: O_10  and  C_11
REMARK    7  A    between atoms: C_11  and  C_12
REMARK                            x       y       z     vdW  Elec       q    Type
REMARK                         _______ _______ _______ _____ _____    ______ ____
ROOT
ATOM      1  C   UNL     1       0.777  -1.811  -1.336  0.00  0.00    +0.163 A 
ATOM      2  C   UNL     1       0.245  -2.665  -0.390  0.00  0.00    +0.060 A 
ATOM      3  C   UNL     1       0.355  -4.047  -0.560  0.00  0.00    +0.016 A 
ATOM      4  C   UNL     1       1.003  -4.560  -1.685  0.00  0.00    +0.015 A 
ATOM      5  C   UNL     1       1.532  -3.703  -2.626  0.00  0.00    +0.050 A 
ATOM      6  C   UNL     1       1.417  -2.329  -2.461  0.00  0.00    +0.162 A 
ENDROOT
BRANCH   3   7
ATOM      7  C   UNL     1      -0.212  -4.965   0.450  0.00  0.00    +0.094 C 
ATOM      8  N   UNL     1      -0.106  -6.283   0.286  0.00  0.00    -0.387 N 
ATOM      9  N   UNL     1      -0.830  -4.474   1.524  0.00  0.00    -0.345 N 
ATOM     10  H   UNL     1       0.344  -6.640  -0.495  0.00  0.00    +0.157 HD
ATOM     11  H   UNL     1      -0.907  -3.515   1.643  0.00  0.00    +0.144 HD
ATOM     12  H   UNL     1      -1.202  -5.077   2.187  0.00  0.00    +0.144 HD
ATOM     13  H   UNL     1      -0.478  -6.886   0.949  0.00  0.00    +0.157 HD
ENDBRANCH   3   7
BRANCH   1  14
ATOM     14  O   UNL     1       0.671  -0.465  -1.174  0.00  0.00    -0.489 OA
BRANCH  14  16
ATOM     15  C   UNL     1      -0.019   1.526   0.010  0.00  0.00    +0.048 C 
ATOM     16  C   UNL     1       0.002  -0.004   0.002  0.00  0.00    +0.226 C 
ENDBRANCH  14  16
ENDBRANCH   1  14
BRANCH   6  17
ATOM     17  O   UNL     1       1.935  -1.488  -3.393  0.00  0.00    -0.483 OA
BRANCH  17  18
ATOM     18  C   UNL     1       2.578  -2.087  -4.521  0.00  0.00    +0.271 C 
BRANCH  18  19
ATOM     19  C   UNL     1       3.086  -1.007  -5.441  0.00  0.00    +0.028 A 
ATOM     20  C   UNL     1       4.292  -0.389  -5.448  0.00  0.00    +0.029 A 
ATOM     21  C   UNL     1       4.541   0.585  -6.397  0.00  0.00    +0.025 A 
ATOM     22  C   UNL     1       3.571   0.894  -7.292  0.00  0.00    +0.060 A 
ATOM     23  S   UNL     1       2.257  -0.215  -6.810  0.00  0.00    -0.097 S 
ATOM     24 BR   UNL     1       6.209   1.475  -6.445  0.00  0.00    -0.050 Br
ENDBRANCH  18  19
ENDBRANCH  17  18
ENDBRANCH   6  17
TORSDOF 6
