REMARK  Name = ZINC59394513
REMARK  10 active torsions:
REMARK  status: ('A' for Active; 'I' for Inactive)
REMARK    1  A    between atoms: C_1  and  C_2
REMARK    2  A    between atoms: C_5  and  N_8
REMARK    3  A    between atoms: N_8  and  S_9
REMARK    4  A    between atoms: S_9  and  C_12
REMARK    5  A    between atoms: C_15  and  N_21
REMARK    6  A    between atoms: C_16  and  N_18
REMARK    7  A    between atoms: N_21  and  C_22
REMARK    8  A    between atoms: N_25  and  C_27
REMARK    9  A    between atoms: C_27  and  C_28
REMARK   10  A    between atoms: N_30  and  C_31
REMARK                            x       y       z     vdW  Elec       q    Type
REMARK                         _______ _______ _______ _____ _____    ______ ____
ROOT
ATOM      1  C   UNL     1       3.183  -4.782   2.222  0.00  0.00    +0.108 A 
ATOM      2  C   UNL     1       4.088  -3.808   2.604  0.00  0.00    +0.030 A 
ATOM      3  C   UNL     1       4.146  -3.396   3.920  0.00  0.00    +0.027 A 
ATOM      4  C   UNL     1       3.294  -3.959   4.862  0.00  0.00    +0.062 A 
ATOM      5  C   UNL     1       2.386  -4.937   4.475  0.00  0.00    +0.149 A 
ATOM      6  C   UNL     1       2.329  -5.341   3.155  0.00  0.00    +0.063 A 
ENDROOT
BRANCH   1   7
ATOM      7  S   UNL     1       3.111  -5.305   0.541  0.00  0.00    +0.059 S 
ATOM      8  O   UNL     1       2.552  -6.611   0.546  0.00  0.00    -0.153 OA
ATOM      9  O   UNL     1       4.383  -5.023  -0.026  0.00  0.00    -0.153 OA
BRANCH   7  10
ATOM     10  N   UNL     1       2.021  -4.326  -0.231  0.00  0.00    -0.187 NA
ATOM     11  H   UNL     1       1.200  -4.700  -0.585  0.00  0.00    +0.148 HD
BRANCH  10  16
ATOM     12  C   UNL     1       1.653   1.354  -0.885  0.00  0.00    +0.007 C 
ATOM     13  C   UNL     1       1.364  -0.140  -0.731  0.00  0.00    -0.014 C 
ATOM     14  C   UNL     1       2.034  -0.909  -1.871  0.00  0.00    +0.005 C 
ATOM     15  C   UNL     1       1.745  -2.404  -1.718  0.00  0.00    +0.020 C 
ATOM     16  C   UNL     1       2.298  -2.895  -0.378  0.00  0.00    +0.077 C 
ATOM     17  C   UNL     1       1.628  -2.126   0.763  0.00  0.00    +0.020 C 
ATOM     18  C   UNL     1       1.917  -0.631   0.609  0.00  0.00    +0.005 C 
ENDBRANCH  10  16
ENDBRANCH   7  10
ENDBRANCH   1   7
BRANCH   5  19
ATOM     19  N   UNL     1       1.476  -5.540   5.474  0.00  0.00    +0.058 N 
ATOM     20  O   UNL     1       0.760  -6.463   5.161  0.00  0.00    -0.126 OA
ATOM     21  O   UNL     1       1.448  -5.111   6.604  0.00  0.00    -0.126 OA
ENDBRANCH   5  19
BRANCH   4  22
ATOM     22  N   UNL     1       3.351  -3.545   6.194  0.00  0.00    -0.310 N 
ATOM     23  H   UNL     1       3.142  -4.170   6.906  0.00  0.00    +0.152 HD
BRANCH  22  24
ATOM     24  C   UNL     1       3.710  -2.220   6.504  0.00  0.00    +0.069 A 
ATOM     25  C   UNL     1       3.812  -1.157   5.595  0.00  0.00    +0.157 A 
ATOM     26  N   UNL     1       4.168  -0.084   6.253  0.00  0.00    -0.177 NA
ATOM     27  N   UNL     1       4.306  -0.421   7.605  0.00  0.00    -0.261 N 
ATOM     28  C   UNL     1       4.014  -1.742   7.738  0.00  0.00    +0.132 A 
BRANCH  27  29
ATOM     29  C   UNL     1       4.693   0.489   8.686  0.00  0.00    +0.239 C 
BRANCH  29  30
ATOM     30  C   UNL     1       6.001   1.152   8.341  0.00  0.00    +0.235 C 
ATOM     31  O   UNL     1       6.557   0.890   7.295  0.00  0.00    -0.274 OA
ATOM     32  N   UNL     1       6.555   2.036   9.194  0.00  0.00    -0.311 N 
ATOM     33  H   UNL     1       6.111   2.246  10.031  0.00  0.00    +0.149 HD
BRANCH  32  34
ATOM     34  C   UNL     1       7.827   2.681   8.858  0.00  0.00    +0.073 C 
ATOM     35  C   UNL     1       8.877   2.790   9.965  0.00  0.00    +0.024 C 
ATOM     36  C   UNL     1       8.123   4.037   9.501  0.00  0.00    +0.024 C 
ENDBRANCH  32  34
ENDBRANCH  29  30
ENDBRANCH  27  29
ENDBRANCH  22  24
ENDBRANCH   4  22
TORSDOF 9
