REMARK  Name = ZINC63502953
REMARK  8 active torsions:
REMARK  status: ('A' for Active; 'I' for Inactive)
REMARK    1  A    between atoms: C_1  and  C_2
REMARK    2  A    between atoms: C_2  and  O_3
REMARK    3  A    between atoms: O_3  and  C_4
REMARK    4  A    between atoms: C_11  and  N_14
REMARK    5  A    between atoms: C_18  and  C_21
REMARK    6  A    between atoms: N_23  and  C_24
REMARK    7  A    between atoms: C_24  and  C_25
REMARK    8  A    between atoms: C_25  and  C_26
REMARK                            x       y       z     vdW  Elec       q    Type
REMARK                         _______ _______ _______ _____ _____    ______ ____
ROOT
ATOM      1  N   UNL     1       3.119  -7.142   2.717  0.00  0.00    -0.275 NA
ATOM      2  C   UNL     1       3.802  -7.597   3.934  0.00  0.00    +0.087 C 
ATOM      3  C   UNL     1       4.985  -8.490   3.553  0.00  0.00    +0.016 C 
ATOM      4  C   UNL     1       5.952  -7.699   2.668  0.00  0.00    +0.015 C 
ATOM      5  C   UNL     1       5.202  -7.196   1.431  0.00  0.00    +0.089 C 
ATOM      6  C   UNL     1       4.014  -6.340   1.873  0.00  0.00    +0.099 C 
ENDROOT
BRANCH   1  14
ATOM      7  C   UNL     1       0.802  -1.825   1.306  0.00  0.00    +0.122 A 
ATOM      8  C   UNL     1       0.264  -2.683   0.358  0.00  0.00    +0.047 A 
ATOM      9  C   UNL     1       0.368  -4.048   0.496  0.00  0.00    +0.027 A 
ATOM     10  C   UNL     1       1.022  -4.621   1.601  0.00  0.00    +0.043 A 
ATOM     11  C   UNL     1       1.555  -3.732   2.539  0.00  0.00    +0.035 A 
ATOM     12  C   UNL     1       1.459  -2.366   2.404  0.00  0.00    +0.062 A 
ATOM     13  S   UNL     1       2.300  -4.762   3.784  0.00  0.00    -0.085 S 
ATOM     14  C   UNL     1       1.897  -6.396   3.047  0.00  0.00    +0.207 C 
ATOM     15  N   UNL     1       1.180  -5.990   1.830  0.00  0.00    -0.319 N 
ATOM     16  H   UNL     1       0.829  -6.648   1.210  0.00  0.00    +0.148 HD
BRANCH   7  17
ATOM     17  O   UNL     1       0.693  -0.477   1.160  0.00  0.00    -0.492 OA
BRANCH  17  19
ATOM     18  C   UNL     1      -0.019   1.526   0.010  0.00  0.00    +0.048 C 
ATOM     19  C   UNL     1       0.002  -0.004   0.002  0.00  0.00    +0.225 C 
ENDBRANCH  17  19
ENDBRANCH   7  17
ENDBRANCH   1  14
BRANCH   5  20
ATOM     20  C   UNL     1       6.132  -6.367   0.582  0.00  0.00    +0.217 C 
ATOM     21  O   UNL     1       5.869  -5.206   0.350  0.00  0.00    -0.275 OA
ATOM     22  N   UNL     1       7.256  -6.916   0.081  0.00  0.00    -0.315 N 
ATOM     23  H   UNL     1       7.467  -7.845   0.266  0.00  0.00    +0.149 HD
BRANCH  22  24
ATOM     24  C   UNL     1       8.160  -6.110  -0.744  0.00  0.00    +0.108 C 
BRANCH  24  25
ATOM     25  C   UNL     1       9.350  -6.966  -1.182  0.00  0.00    +0.052 C 
BRANCH  25  26
ATOM     26  C   UNL     1      10.280  -6.137  -2.031  0.00  0.00    -0.040 C 
ATOM     27  C   UNL     1      11.381  -5.470  -1.617  0.00  0.00    -0.001 A 
ATOM     28  C   UNL     1      12.018  -5.321  -0.303  0.00  0.00    +0.010 A 
ATOM     29  C   UNL     1      13.139  -4.572  -0.199  0.00  0.00    +0.001 A 
ATOM     30  C   UNL     1      13.705  -3.934  -1.311  0.00  0.00    +0.002 A 
ATOM     31  C   UNL     1      13.178  -4.024  -2.550  0.00  0.00    +0.026 A 
ATOM     32  C   UNL     1      11.999  -4.788  -2.776  0.00  0.00    +0.043 A 
ATOM     33  N   UNL     1      11.307  -5.024  -3.864  0.00  0.00    -0.380 N 
ATOM     34  C   UNL     1      10.174  -5.889  -3.519  0.00  0.00    +0.144 C 
ATOM     35  H   UNL     1      11.513  -4.686  -4.750  0.00  0.00    +0.160 HD
ENDBRANCH  25  26
ENDBRANCH  24  25
ENDBRANCH  22  24
ENDBRANCH   5  20
TORSDOF 7
