REMARK  Name = ZINC02749490
REMARK  10 active torsions:
REMARK  status: ('A' for Active; 'I' for Inactive)
REMARK    1  A    between atoms: C_1  and  C_2
REMARK    2  A    between atoms: C_5  and  C_7
REMARK    3  A    between atoms: C_9  and  C_17
REMARK    4  A    between atoms: N_19  and  C_20
REMARK    5  A    between atoms: C_21  and  C_35
REMARK    6  A    between atoms: C_22  and  C_26
REMARK    7  A    between atoms: C_23  and  C_25
REMARK    8  A    between atoms: C_29  and  C_32
REMARK    9  A    between atoms: C_32  and  C_33
REMARK   10  A    between atoms: C_32  and  C_34
REMARK                            x       y       z     vdW  Elec       q    Type
REMARK                         _______ _______ _______ _____ _____    ______ ____
ROOT
ATOM      1  C   UNL     1      -1.221   4.223  -3.486  0.00  0.00    +0.249 C 
ATOM      2  O   UNL     1      -1.225   5.420  -3.270  0.00  0.00    -0.270 OA
ATOM      3  N   UNL     1      -1.224   3.353  -2.456  0.00  0.00    -0.275 N 
ATOM      4  H   UNL     1      -1.221   2.399  -2.628  0.00  0.00    +0.156 HD
ENDROOT
BRANCH   1   7
ATOM      5  C   UNL     1      -1.094   1.938  -6.493  0.00  0.00    +0.107 A 
ATOM      6  C   UNL     1      -1.092   2.370  -5.155  0.00  0.00    +0.045 A 
ATOM      7  C   UNL     1      -1.214   3.723  -4.877  0.00  0.00    +0.048 A 
ATOM      8  C   UNL     1      -1.329   4.636  -6.015  0.00  0.00    +0.013 A 
ATOM      9  C   UNL     1      -1.450   6.018  -5.833  0.00  0.00    +0.011 A 
ATOM     10  C   UNL     1      -1.554   6.834  -6.921  0.00  0.00    +0.001 A 
ATOM     11  C   UNL     1      -1.541   6.309  -8.211  0.00  0.00    +0.002 A 
ATOM     12  C   UNL     1      -1.425   4.970  -8.423  0.00  0.00    +0.028 A 
ATOM     13  C   UNL     1      -1.315   4.096  -7.325  0.00  0.00    +0.073 A 
ATOM     14  N   UNL     1      -1.199   2.779  -7.503  0.00  0.00    -0.244 NA
BRANCH   5  19
ATOM     15  C   UNL     1      -0.621  -3.009  -5.802  0.00  0.00    +0.086 C 
ATOM     16  C   UNL     1      -0.762  -1.670  -6.480  0.00  0.00    +0.103 A 
ATOM     17  C   UNL     1      -0.816  -1.465  -7.812  0.00  0.00    +0.045 A 
ATOM     18  C   UNL     1      -0.955  -0.079  -8.011  0.00  0.00    +0.052 A 
ATOM     19  C   UNL     1      -0.969   0.495  -6.776  0.00  0.00    +0.153 A 
ATOM     20  O   UNL     1      -0.855  -0.484  -5.858  0.00  0.00    -0.458 OA
ENDBRANCH   5  19
ENDBRANCH   1   7
BRANCH   3  21
ATOM     21  C   UNL     1      -1.231   3.822  -1.153  0.00  0.00    +0.085 A 
ATOM     22  C   UNL     1      -1.234   3.088   0.025  0.00  0.00    +0.073 A 
ATOM     23  C   UNL     1      -1.235   3.842   1.264  0.00  0.00    +0.006 A 
ATOM     24  C   UNL     1      -1.238   5.195   1.155  0.00  0.00    -0.003 A 
ATOM     25  S   UNL     1      -1.239   5.464  -0.605  0.00  0.00    -0.077 S 
ATOM     26  C   UNL     1      -1.240   6.222   2.258  0.00  0.00    +0.052 C 
BRANCH  23  27
ATOM     27  C   UNL     1      -1.233   3.167   2.584  0.00  0.00    -0.016 A 
ATOM     28  C   UNL     1      -2.326   2.398   2.978  0.00  0.00    +0.009 A 
ATOM     29  C   UNL     1      -2.316   1.768   4.206  0.00  0.00    +0.004 A 
ATOM     30  C   UNL     1      -1.229   1.909   5.050  0.00  0.00    -0.045 A 
ATOM     31  C   UNL     1      -0.143   2.676   4.666  0.00  0.00    +0.004 A 
ATOM     32  C   UNL     1      -0.140   3.306   3.438  0.00  0.00    +0.009 A 
BRANCH  30  33
ATOM     33  C   UNL     1      -1.227   1.224   6.392  0.00  0.00    +0.013 C 
ATOM     34  C   UNL     1      -2.409   1.727   7.223  0.00  0.00    +0.012 C 
ATOM     35  C   UNL     1      -1.349  -0.288   6.194  0.00  0.00    +0.012 C 
ENDBRANCH  30  33
ENDBRANCH  23  27
BRANCH  22  36
ATOM     36  C   UNL     1      -1.231   1.623   0.016  0.00  0.00    +0.244 C 
ATOM     37  O   UNL     1      -2.284   1.012   0.014  0.00  0.00    -0.270 OA
ATOM     38  N   UNL     1      -0.062   0.952   0.012  0.00  0.00    -0.325 N 
ATOM     39  H   UNL     1      -0.060  -0.018   0.007  0.00  0.00    +0.145 HD
ATOM     40  H   UNL     1       0.777   1.439   0.010  0.00  0.00    +0.145 HD
ENDBRANCH  22  36
ENDBRANCH   3  21
TORSDOF 6
