REMARK  Name = ZINC20814971
REMARK  11 active torsions:
REMARK  status: ('A' for Active; 'I' for Inactive)
REMARK    1  A    between atoms: C_1  and  C_2
REMARK    2  A    between atoms: C_2  and  C_3
REMARK    3  A    between atoms: C_3  and  N_4
REMARK    4  A    between atoms: C_5  and  N_26
REMARK    5  A    between atoms: C_6  and  C_13
REMARK    6  A    between atoms: C_13  and  C_15
REMARK    7  A    between atoms: C_15  and  N_16
REMARK    8  A    between atoms: N_16  and  C_17
REMARK    9  A    between atoms: N_16  and  C_19
REMARK   10  A    between atoms: C_17  and  C_18
REMARK   11  A    between atoms: C_19  and  C_20
REMARK                            x       y       z     vdW  Elec       q    Type
REMARK                         _______ _______ _______ _____ _____    ______ ____
ROOT
ATOM      1  N   UNL     1       0.162  -0.914   0.131  0.00  0.00    -0.281 N 
ATOM      2  C   UNL     1       0.033  -1.547  -1.072  0.00  0.00    +0.116 A 
ATOM      3  C   UNL     1      -0.206  -2.933  -1.089  0.00  0.00    +0.118 A 
ATOM      4  C   UNL     1      -0.315  -3.626   0.200  0.00  0.00    +0.266 A 
ATOM      5  O   UNL     1      -0.525  -4.824   0.245  0.00  0.00    -0.267 OA
ATOM      6  N   UNL     1      -0.176  -2.908   1.334  0.00  0.00    -0.274 N 
ATOM      7  H   UNL     1      -0.253  -3.405   2.312  0.00  0.00    +0.173 HD
ATOM      8  C   UNL     1       0.056  -1.587   1.288  0.00  0.00    +0.331 A 
ATOM      9  O   UNL     1       0.174  -0.976   2.333  0.00  0.00    -0.246 OA
ENDROOT
BRANCH   2  10
ATOM     10  N   UNL     1       0.138  -0.849  -2.235  0.00  0.00    -0.344 N 
ATOM     11  H   UNL     1       0.033  -1.368  -3.200  0.00  0.00    +0.144 HD
ATOM     12  H   UNL     1       0.329   0.234  -2.212  0.00  0.00    +0.144 HD
ENDBRANCH   2  10
BRANCH   3  13
ATOM     13  C   UNL     1      -0.343  -3.633  -2.307  0.00  0.00    +0.155 C 
ATOM     14  O   UNL     1      -0.303  -3.031  -3.361  0.00  0.00    -0.294 OA
BRANCH  13  15
ATOM     15  C   UNL     1      -0.538  -5.127  -2.299  0.00  0.00    +0.003 C 
BRANCH  15  16
ATOM     16  N   UNL     1      -0.652  -5.614  -3.680  0.00  0.00    +0.387 N 
ATOM     17  H   UNL     1       0.209  -5.229  -4.246  0.00  0.00    -0.081 HD
BRANCH  16  18
ATOM     18  C   UNL     1      -1.874  -5.105  -4.318  0.00  0.00    -0.081 C 
ATOM     19  C   UNL     1      -3.094  -5.542  -3.504  0.00  0.00    -0.017 C 
ENDBRANCH  16  18
BRANCH  16  20
ATOM     20  C   UNL     1      -0.605  -7.081  -3.728  0.00  0.00    -0.035 C 
BRANCH  20  21
ATOM     21  C   UNL     1      -0.328  -7.530  -5.139  0.00  0.00    -0.026 A 
ATOM     22  C   UNL     1       0.862  -7.778  -5.737  0.00  0.00    +0.010 A 
ATOM     23  C   UNL     1       0.877  -8.185  -7.059  0.00  0.00    +0.023 A 
ATOM     24  C   UNL     1      -0.301  -8.323  -7.717  0.00  0.00    +0.055 A 
ATOM     25  S   UNL     1      -1.483  -7.879  -6.455  0.00  0.00    -0.088 S 
ATOM     26 BR   UNL     1      -0.611  -8.855  -9.505  0.00  0.00    -0.043 Br
ENDBRANCH  20  21
ENDBRANCH  16  20
ENDBRANCH  15  16
ENDBRANCH  13  15
ENDBRANCH   3  13
BRANCH   1  27
ATOM     27  C   UNL     1       0.416   0.528   0.160  0.00  0.00    +0.128 C 
BRANCH  27  29
ATOM     28  C   UNL     1       2.190   2.287   0.185  0.00  0.00    +0.005 C 
ATOM     29  C   UNL     1       1.925   0.781   0.155  0.00  0.00    +0.018 C 
ENDBRANCH  27  29
ENDBRANCH   1  27
TORSDOF 9
