REMARK  Name = ZINC58871901
REMARK  6 active torsions:
REMARK  status: ('A' for Active; 'I' for Inactive)
REMARK    1  A    between atoms: C_1  and  C_2
REMARK    2  A    between atoms: C_7  and  C_8
REMARK    3  A    between atoms: N_10  and  C_12
REMARK    4  A    between atoms: C_15  and  N_18
REMARK    5  A    between atoms: C_19  and  C_20
REMARK    6  A    between atoms: C_29  and  O_30
REMARK                            x       y       z     vdW  Elec       q    Type
REMARK                         _______ _______ _______ _____ _____    ______ ____
ROOT
ATOM      1  C   UNL     1       0.068  -5.612  -2.479  0.00  0.00    +0.030 A 
ATOM      2  C   UNL     1       0.082  -6.819  -1.789  0.00  0.00    +0.025 A 
ATOM      3  C   UNL     1       0.096  -8.010  -2.481  0.00  0.00    +0.029 A 
ATOM      4  C   UNL     1       0.095  -8.004  -3.879  0.00  0.00    +0.064 A 
ATOM      5  C   UNL     1       0.080  -6.789  -4.569  0.00  0.00    +0.029 A 
ATOM      6  C   UNL     1       0.061  -5.602  -3.869  0.00  0.00    +0.025 A 
ENDROOT
BRANCH   1  16
ATOM      7  C   UNL     1      -0.018   1.503   0.010  0.00  0.00    +0.044 C 
ATOM      8  C   UNL     1       0.002  -0.004   0.002  0.00  0.00    -0.047 A 
ATOM      9  C   UNL     1       0.006  -0.689  -1.198  0.00  0.00    +0.009 A 
ATOM     10  C   UNL     1       0.025  -2.073  -1.208  0.00  0.00    -0.025 A 
ATOM     11  C   UNL     1       0.040  -2.770  -0.016  0.00  0.00    -0.025 A 
ATOM     12  C   UNL     1       0.037  -2.084   1.186  0.00  0.00    +0.009 A 
ATOM     13  C   UNL     1       0.023  -0.702   1.195  0.00  0.00    -0.047 A 
ATOM     14  C   UNL     1       0.025   0.044   2.505  0.00  0.00    +0.044 C 
ATOM     15  C   UNL     1       0.059  -4.247  -0.316  0.00  0.00    +0.141 C 
ATOM     16  N   UNL     1       0.054  -4.407  -1.774  0.00  0.00    -0.321 N 
ATOM     17  C   UNL     1       0.033  -3.058  -2.349  0.00  0.00    +0.141 C 
ENDBRANCH   1  16
BRANCH   4  18
ATOM     18  N   UNL     1       0.108  -9.184  -4.569  0.00  0.00    -0.255 NA
ATOM     19  C   UNL     1      -0.690  -9.354  -5.589  0.00  0.00    +0.123 C 
BRANCH  19  20
ATOM     20  C   UNL     1      -0.675 -10.618  -6.329  0.00  0.00    +0.042 A 
ATOM     21  C   UNL     1      -1.558 -10.823  -7.477  0.00  0.00    -0.006 A 
ATOM     22  C   UNL     1      -2.442  -9.826  -7.906  0.00  0.00    +0.009 A 
ATOM     23  C   UNL     1      -3.248 -10.057  -8.981  0.00  0.00    +0.001 A 
ATOM     24  C   UNL     1      -3.206 -11.273  -9.659  0.00  0.00    +0.001 A 
ATOM     25  C   UNL     1      -2.358 -12.264  -9.268  0.00  0.00    +0.008 A 
ATOM     26  C   UNL     1      -1.512 -12.060  -8.164  0.00  0.00    -0.017 A 
ATOM     27  C   UNL     1      -0.623 -13.061  -7.732  0.00  0.00    +0.012 A 
ATOM     28  C   UNL     1       0.192 -12.855  -6.664  0.00  0.00    +0.046 A 
ATOM     29  C   UNL     1       0.187 -11.653  -5.957  0.00  0.00    +0.126 A 
BRANCH  29  30
ATOM     30  O   UNL     1       1.022 -11.489  -4.901  0.00  0.00    -0.506 OA
ATOM     31  H   UNL     1       0.643 -11.764  -4.054  0.00  0.00    +0.292 HD
ENDBRANCH  29  30
ENDBRANCH  19  20
ENDBRANCH   4  18
TORSDOF 4
