REMARK  Name = ZINC39668897
REMARK  6 active torsions:
REMARK  status: ('A' for Active; 'I' for Inactive)
REMARK    1  A    between atoms: C_4  and  C_7
REMARK    2  A    between atoms: C_7  and  C_8
REMARK    3  A    between atoms: C_8  and  C_9
REMARK    4  A    between atoms: C_13  and  C_22
REMARK    5  A    between atoms: N_24  and  C_25
REMARK    6  A    between atoms: C_25  and  C_26
REMARK                            x       y       z     vdW  Elec       q    Type
REMARK                         _______ _______ _______ _____ _____    ______ ____
ROOT
ATOM      1  C   UNL     1       5.312  -1.472   1.514  0.00  0.00    +0.216 C 
ATOM      2  O   UNL     1       5.770  -1.690   0.412  0.00  0.00    -0.276 OA
ATOM      3  N   UNL     1       5.973  -1.887   2.613  0.00  0.00    -0.300 N 
ATOM      4  C   UNL     1       5.573  -1.722   4.030  0.00  0.00    +0.121 C 
ATOM      5  C   UNL     1       5.966  -3.055   4.705  0.00  0.00    +0.100 C 
ATOM      6  C   UNL     1       7.078  -3.632   3.813  0.00  0.00    -0.004 C 
ATOM      7  C   UNL     1       7.262  -2.617   2.677  0.00  0.00    +0.115 C 
ATOM      8  C   UNL     1       6.651  -4.981   3.243  0.00  0.00    -0.010 C 
ATOM      9  C   UNL     1       7.795  -5.562   2.407  0.00  0.00    -0.082 C 
ATOM     10  N   UNL     1       8.988  -5.719   3.248  0.00  0.00    +0.379 N 
ATOM     11  C   UNL     1       9.446  -4.406   3.717  0.00  0.00    -0.082 C 
ATOM     12  C   UNL     1       8.372  -3.776   4.609  0.00  0.00    -0.010 C 
ATOM     13  H   UNL     1       8.763  -6.299   4.043  0.00  0.00    -0.086 HD
ATOM     14  H   UNL     1       9.721  -6.158   2.711  0.00  0.00    -0.086 HD
ENDROOT
BRANCH   5  15
ATOM     15  C   UNL     1       4.786  -3.990   4.748  0.00  0.00    +0.218 C 
ATOM     16  O   UNL     1       3.937  -3.935   3.883  0.00  0.00    -0.275 OA
ATOM     17  N   UNL     1       4.672  -4.887   5.747  0.00  0.00    -0.312 N 
ATOM     18  H   UNL     1       5.351  -4.931   6.439  0.00  0.00    +0.149 HD
BRANCH  17  19
ATOM     19  C   UNL     1       3.525  -5.797   5.788  0.00  0.00    +0.140 C 
BRANCH  19  20
ATOM     20  C   UNL     1       3.638  -6.705   7.014  0.00  0.00    +0.165 C 
ATOM     21  C   UNL     1       2.528  -7.724   6.984  0.00  0.00    -0.014 A 
ATOM     22  C   UNL     1       2.233  -8.352   5.783  0.00  0.00    +0.006 A 
ATOM     23  C   UNL     1       1.226  -9.294   5.719  0.00  0.00    +0.000 A 
ATOM     24  C   UNL     1       0.509  -9.615   6.857  0.00  0.00    +0.000 A 
ATOM     25  C   UNL     1       0.800  -8.989   8.053  0.00  0.00    +0.004 A 
ATOM     26  C   UNL     1       1.809  -8.040   8.117  0.00  0.00    -0.040 A 
ATOM     27  C   UNL     1       2.090  -7.369   9.437  0.00  0.00    +0.063 C 
ATOM     28  C   UNL     1       3.464  -6.698   9.394  0.00  0.00    +0.165 C 
ATOM     29  O   UNL     1       3.546  -5.914   8.199  0.00  0.00    -0.370 OA
ENDBRANCH  19  20
ENDBRANCH  17  19
ENDBRANCH   5  15
BRANCH   1  30
ATOM     30  C   UNL     1       4.003  -0.739   1.654  0.00  0.00    +0.100 C 
BRANCH  30  31
ATOM     31  C   UNL     1       3.466  -0.384   0.266  0.00  0.00    +0.044 C 
BRANCH  31  35
ATOM     32  C   UNL     1      -0.244   1.695   0.661  0.00  0.00    +0.000 A 
ATOM     33  C   UNL     1       0.944   2.401   0.637  0.00  0.00    +0.000 A 
ATOM     34  C   UNL     1       2.145   1.728   0.509  0.00  0.00    +0.003 A 
ATOM     35  C   UNL     1       2.157   0.350   0.406  0.00  0.00    -0.047 A 
ATOM     36  C   UNL     1       0.969  -0.356   0.431  0.00  0.00    +0.003 A 
ATOM     37  C   UNL     1      -0.232   0.317   0.557  0.00  0.00    +0.000 A 
ENDBRANCH  31  35
ENDBRANCH  30  31
ENDBRANCH   1  30
TORSDOF 6
