REMARK  Name = ZINC38660145
REMARK  17 active torsions:
REMARK  status: ('A' for Active; 'I' for Inactive)
REMARK    1  A    between atoms: C_1  and  C_2
REMARK    2  A    between atoms: C_2  and  C_3
REMARK    3  A    between atoms: C_3  and  C_4
REMARK    4  A    between atoms: C_4  and  O_5
REMARK    5  A    between atoms: O_5  and  C_6
REMARK    6  A    between atoms: C_9  and  C_14
REMARK    7  A    between atoms: C_11  and  O_12
REMARK    8  A    between atoms: O_12  and  C_13
REMARK    9  A    between atoms: C_19  and  O_28
REMARK   10  A    between atoms: C_23  and  N_27
REMARK   11  A    between atoms: C_24  and  C_25
REMARK   12  A    between atoms: O_28  and  C_29
REMARK   13  A    between atoms: C_29  and  C_31
REMARK   14  A    between atoms: C_34  and  O_37
REMARK   15  A    between atoms: O_37  and  C_38
REMARK   16  A    between atoms: C_38  and  C_39
REMARK   17  A    between atoms: C_38  and  C_40
REMARK                            x       y       z     vdW  Elec       q    Type
REMARK                         _______ _______ _______ _____ _____    ______ ____
ROOT
ATOM      1  C   UNL     1      -3.629  -8.142  -0.145  0.00  0.00    +0.098 C 
ATOM      2  C   UNL     1      -2.971  -8.716  -1.372  0.00  0.00    +0.008 A 
ATOM      3  C   UNL     1      -3.629  -8.656  -2.588  0.00  0.00    +0.012 A 
ATOM      4  C   UNL     1      -3.041  -9.178  -3.723  0.00  0.00    +0.047 A 
ATOM      5  C   UNL     1      -1.786  -9.766  -3.647  0.00  0.00    +0.135 A 
ATOM      6  C   UNL     1      -1.125  -9.828  -2.431  0.00  0.00    +0.093 A 
ATOM      7  C   UNL     1      -1.718  -9.302  -1.290  0.00  0.00    +0.138 A 
ATOM      8  O   UNL     1      -1.058  -9.370  -0.107  0.00  0.00    -0.441 OA
ATOM      9  C   UNL     1      -1.734  -9.236   1.046  0.00  0.00    +0.199 C 
ATOM     10  C   UNL     1      -2.956  -8.662   1.094  0.00  0.00    +0.098 C 
ENDROOT
BRANCH   1  14
ATOM     11  C   UNL     1      -3.317  -3.878  -0.240  0.00  0.00    +0.162 A 
ATOM     12  C   UNL     1      -2.172  -4.659  -0.231  0.00  0.00    +0.050 A 
ATOM     13  C   UNL     1      -2.277  -6.037  -0.200  0.00  0.00    +0.008 A 
ATOM     14  C   UNL     1      -3.521  -6.639  -0.178  0.00  0.00    -0.031 A 
ATOM     15  C   UNL     1      -4.667  -5.865  -0.188  0.00  0.00    +0.054 A 
ATOM     16  C   UNL     1      -4.569  -4.483  -0.212  0.00  0.00    +0.162 A 
BRANCH  16  17
ATOM     17  O   UNL     1      -5.695  -3.720  -0.216  0.00  0.00    -0.491 OA
ATOM     18  C   UNL     1      -6.946  -4.410  -0.186  0.00  0.00    +0.277 C 
ENDBRANCH  16  17
BRANCH  11  19
ATOM     19  O   UNL     1      -3.216  -2.522  -0.270  0.00  0.00    -0.488 OA
BRANCH  19  20
ATOM     20  C   UNL     1      -1.898  -1.970  -0.297  0.00  0.00    +0.229 C 
BRANCH  20  21
ATOM     21  C   UNL     1      -1.985  -0.443  -0.329  0.00  0.00    +0.041 C 
BRANCH  21  23
ATOM     22  C   UNL     1      -0.662   1.676  -0.389  0.00  0.00    +0.004 C 
ATOM     23  C   UNL     1      -0.574   0.148  -0.358  0.00  0.00    -0.000 C 
ENDBRANCH  21  23
ENDBRANCH  20  21
ENDBRANCH  19  20
ENDBRANCH  11  19
ENDBRANCH   1  14
BRANCH   9  24
ATOM     24  N   UNL     1      -1.165  -9.694   2.208  0.00  0.00    -0.328 N 
ATOM     25  H   UNL     1      -0.288 -10.108   2.189  0.00  0.00    +0.145 HD
ATOM     26  H   UNL     1      -1.641  -9.605   3.049  0.00  0.00    +0.145 HD
ENDBRANCH   9  24
BRANCH  10  27
ATOM     27  C   UNL     1      -3.623  -8.548   2.356  0.00  0.00    +0.101 C 
ATOM     28  N   UNL     1      -4.153  -8.458   3.356  0.00  0.00    -0.191 NA
ENDBRANCH  10  27
BRANCH   5  29
ATOM     29  O   UNL     1      -1.206 -10.280  -4.763  0.00  0.00    -0.422 OA
BRANCH  29  30
ATOM     30  C   UNL     1      -1.010 -11.612  -4.818  0.00  0.00    +0.344 C 
ATOM     31  O   UNL     1      -1.432 -12.326  -3.930  0.00  0.00    -0.245 OA
BRANCH  30  32
ATOM     32  C   UNL     1      -0.283 -12.204  -5.957  0.00  0.00    +0.060 A 
ATOM     33  C   UNL     1       0.208 -11.384  -6.977  0.00  0.00    +0.018 A 
ATOM     34  C   UNL     1       0.886 -11.941  -8.038  0.00  0.00    +0.046 A 
ATOM     35  C   UNL     1       1.083 -13.316  -8.095  0.00  0.00    +0.121 A 
ATOM     36  C   UNL     1       0.596 -14.135  -7.083  0.00  0.00    +0.046 A 
ATOM     37  C   UNL     1      -0.079 -13.586  -6.016  0.00  0.00    +0.018 A 
BRANCH  35  38
ATOM     38  O   UNL     1       1.752 -13.861  -9.143  0.00  0.00    -0.489 OA
BRANCH  38  39
ATOM     39  C   UNL     1       2.344 -12.955 -10.076  0.00  0.00    +0.167 C 
ATOM     40  C   UNL     1       3.641 -13.557 -10.619  0.00  0.00    +0.051 C 
ATOM     41  C   UNL     1       1.373 -12.708 -11.233  0.00  0.00    +0.051 C 
ENDBRANCH  38  39
ENDBRANCH  35  38
ENDBRANCH  30  32
ENDBRANCH  29  30
ENDBRANCH   5  29
TORSDOF 13
