REMARK  Name = ZINC35967731
REMARK  7 active torsions:
REMARK  status: ('A' for Active; 'I' for Inactive)
REMARK    1  A    between atoms: C_1  and  C_2
REMARK    2  A    between atoms: C_2  and  N_3
REMARK    3  A    between atoms: C_6  and  C_11
REMARK    4  A    between atoms: N_20  and  C_22
REMARK    5  A    between atoms: C_22  and  C_24
REMARK    6  A    between atoms: C_22  and  C_25
REMARK    7  A    between atoms: N_27  and  C_28
REMARK                            x       y       z     vdW  Elec       q    Type
REMARK                         _______ _______ _______ _____ _____    ______ ____
ROOT
ATOM      1  N   UNL     1       1.283  -1.312  -1.585  0.00  0.00    -0.257 N 
ATOM      2  C   UNL     1       0.496  -1.539  -2.678  0.00  0.00    +0.042 C 
ATOM      3  C   UNL     1       1.009  -2.060  -3.811  0.00  0.00    +0.058 C 
ATOM      4  C   UNL     1       2.489  -2.386  -3.831  0.00  0.00    +0.143 C 
ATOM      5  N   UNL     1       3.249  -2.104  -2.602  0.00  0.00    -0.288 N 
ATOM      6  C   UNL     1       2.595  -1.576  -1.549  0.00  0.00    +0.307 C 
ATOM      7  O   UNL     1       3.216  -1.335  -0.531  0.00  0.00    -0.252 OA
ATOM      8  C   UNL     1       0.001  -2.198  -4.787  0.00  0.00    +0.247 C 
ATOM      9  O   UNL     1       0.182  -2.643  -5.906  0.00  0.00    -0.270 OA
ATOM     10  N   UNL     1      -1.188  -1.773  -4.322  0.00  0.00    -0.281 N 
ATOM     11  C   UNL     1      -0.976  -1.317  -2.940  0.00  0.00    +0.160 C 
ATOM     12  H   UNL     1       4.200  -2.291  -2.553  0.00  0.00    +0.151 HD
ENDROOT
BRANCH   4  13
ATOM     13  C   UNL     1       3.121  -1.609  -4.957  0.00  0.00    -0.004 A 
ATOM     14  C   UNL     1       2.462  -0.523  -5.502  0.00  0.00    +0.007 A 
ATOM     15  C   UNL     1       3.042   0.190  -6.535  0.00  0.00    +0.000 A 
ATOM     16  C   UNL     1       4.281  -0.182  -7.022  0.00  0.00    +0.001 A 
ATOM     17  C   UNL     1       4.940  -1.268  -6.478  0.00  0.00    +0.020 A 
ATOM     18  C   UNL     1       4.363  -1.978  -5.440  0.00  0.00    +0.046 A 
ATOM     19 CL   UNL     1       5.194  -3.338  -4.751  0.00  0.00    -0.083 Cl
ENDBRANCH   4  13
BRANCH   1  21
ATOM     20  C   UNL     1       0.721   0.785  -0.458  0.00  0.00    +0.025 C 
ATOM     21  C   UNL     1       0.658  -0.742  -0.389  0.00  0.00    +0.111 C 
ENDBRANCH   1  21
BRANCH  10  22
ATOM     22  C   UNL     1      -2.456  -1.766  -5.054  0.00  0.00    +0.160 C 
ATOM     23  C   UNL     1      -2.815  -3.195  -5.468  0.00  0.00    +0.038 C 
BRANCH  22  24
ATOM     24  C   UNL     1      -2.321  -0.906  -6.285  0.00  0.00    +0.237 C 
ATOM     25  O   UNL     1      -1.268  -0.354  -6.526  0.00  0.00    -0.273 OA
ATOM     26  N   UNL     1      -3.369  -0.751  -7.117  0.00  0.00    -0.284 N 
ATOM     27  H   UNL     1      -4.229  -1.137  -6.891  0.00  0.00    +0.155 HD
BRANCH  26  28
ATOM     28  C   UNL     1      -3.216  -0.033  -8.310  0.00  0.00    +0.034 A 
ATOM     29  C   UNL     1      -3.908  -0.421  -9.449  0.00  0.00    +0.026 A 
ATOM     30  C   UNL     1      -3.755   0.289 -10.624  0.00  0.00    +0.040 A 
ATOM     31  C   UNL     1      -2.913   1.387 -10.666  0.00  0.00    +0.124 A 
ATOM     32  C   UNL     1      -2.222   1.776  -9.531  0.00  0.00    +0.040 A 
ATOM     33  C   UNL     1      -2.376   1.073  -8.352  0.00  0.00    +0.026 A 
ATOM     34  F   UNL     1      -2.764   2.079 -11.817  0.00  0.00    -0.205 F 
ENDBRANCH  26  28
ENDBRANCH  22  24
ENDBRANCH  10  22
TORSDOF 5
