REMARK  Name = ZINC59879458
REMARK  11 active torsions:
REMARK  status: ('A' for Active; 'I' for Inactive)
REMARK    1  A    between atoms: C_1  and  C_2
REMARK    2  A    between atoms: C_2  and  C_3
REMARK    3  A    between atoms: C_2  and  C_4
REMARK    4  A    between atoms: C_7  and  C_9
REMARK    5  A    between atoms: C_9  and  N_10
REMARK    6  A    between atoms: C_11  and  C_13
REMARK    7  A    between atoms: C_13  and  S_14
REMARK    8  A    between atoms: S_14  and  C_15
REMARK    9  A    between atoms: N_20  and  N_21
REMARK   10  A    between atoms: C_22  and  C_23
REMARK   11  A    between atoms: C_28  and  O_29
REMARK                            x       y       z     vdW  Elec       q    Type
REMARK                         _______ _______ _______ _____ _____    ______ ____
ROOT
ATOM      1  C   UNL     1      -0.553  -0.962  10.557  0.00  0.00    +0.211 A 
ATOM      2  N   UNL     1      -0.764  -1.245  11.847  0.00  0.00    -0.186 NA
ATOM      3  C   UNL     1      -1.157  -0.160  12.480  0.00  0.00    +0.232 A 
ATOM      4  N   UNL     1      -1.203   0.851  11.585  0.00  0.00    -0.245 N 
ATOM      5  N   UNL     1      -0.804   0.309  10.353  0.00  0.00    -0.144 NA
ATOM      6  N   UNL     1      -1.469  -0.070  13.824  0.00  0.00    -0.205 N 
ATOM      7  H   UNL     1      -1.751   0.778  14.201  0.00  0.00    +0.177 HD
ATOM      8  H   UNL     1      -1.458   1.770  11.760  0.00  0.00    +0.192 HD
ENDROOT
BRANCH   6   9
ATOM      9  N   UNL     1      -1.378  -1.204  14.641  0.00  0.00    -0.187 NA
ATOM     10  C   UNL     1      -1.671  -1.120  15.903  0.00  0.00    +0.142 C 
BRANCH  10  11
ATOM     11  C   UNL     1      -1.574  -2.313  16.763  0.00  0.00    +0.039 A 
ATOM     12  C   UNL     1      -1.894  -2.228  18.120  0.00  0.00    +0.033 A 
ATOM     13  C   UNL     1      -1.802  -3.349  18.920  0.00  0.00    +0.043 A 
ATOM     14  C   UNL     1      -1.394  -4.558  18.383  0.00  0.00    +0.043 A 
ATOM     15  C   UNL     1      -1.074  -4.655  17.041  0.00  0.00    +0.084 A 
ATOM     16  C   UNL     1      -1.167  -3.540  16.222  0.00  0.00    +0.144 A 
ATOM     17 CL   UNL     1      -0.563  -6.176  16.378  0.00  0.00    -0.080 Cl
ATOM     18 CL   UNL     1      -2.199  -3.242  20.607  0.00  0.00    -0.083 Cl
BRANCH  16  19
ATOM     19  O   UNL     1      -0.860  -3.635  14.902  0.00  0.00    -0.505 OA
ATOM     20  H   UNL     1       0.070  -3.463  14.702  0.00  0.00    +0.292 HD
ENDBRANCH  16  19
ENDBRANCH  10  11
ENDBRANCH   6   9
BRANCH   1  21
ATOM     21  S   UNL     1      -0.017  -2.110   9.332  0.00  0.00    -0.075 S 
BRANCH  21  22
ATOM     22  C   UNL     1       0.085  -1.118   7.816  0.00  0.00    +0.173 C 
BRANCH  22  24
ATOM     23  N   UNL     1       0.686  -1.465   5.442  0.00  0.00    -0.306 N 
ATOM     24  C   UNL     1       0.538  -1.991   6.675  0.00  0.00    +0.224 C 
ATOM     25  O   UNL     1       0.771  -3.166   6.865  0.00  0.00    -0.275 OA
ATOM     26  H   UNL     1       0.500  -0.525   5.290  0.00  0.00    +0.149 HD
BRANCH  23  27
ATOM     27  C   UNL     1       1.128  -2.313   4.332  0.00  0.00    +0.202 C 
BRANCH  27  31
ATOM     28  C   UNL     1       0.731  -0.503   1.223  0.00  0.00    +0.220 A 
ATOM     29  N   UNL     1       1.968  -0.245   1.542  0.00  0.00    -0.112 NA
ATOM     30  N   UNL     1       2.255  -0.836   2.648  0.00  0.00    -0.111 NA
ATOM     31  C   UNL     1       1.212  -1.490   3.073  0.00  0.00    +0.234 A 
ATOM     32  O   UNL     1       0.223  -1.291   2.186  0.00  0.00    -0.423 OA
BRANCH  28  34
ATOM     33  C   UNL     1      -0.019   1.526   0.010  0.00  0.00    +0.017 C 
ATOM     34  C   UNL     1       0.002  -0.004   0.002  0.00  0.00    +0.071 C 
ATOM     35  C   UNL     1       0.718  -0.497  -1.257  0.00  0.00    +0.017 C 
ENDBRANCH  28  34
ENDBRANCH  27  31
ENDBRANCH  23  27
ENDBRANCH  22  24
ENDBRANCH  21  22
ENDBRANCH   1  21
TORSDOF 9
