REMARK  Name = ZINC40702029
REMARK  8 active torsions:
REMARK  status: ('A' for Active; 'I' for Inactive)
REMARK    1  A    between atoms: C_1  and  C_2
REMARK    2  A    between atoms: C_2  and  N_3
REMARK    3  A    between atoms: N_3  and  C_4
REMARK    4  A    between atoms: C_15  and  N_34
REMARK    5  A    between atoms: C_16  and  N_20
REMARK    6  A    between atoms: N_20  and  C_21
REMARK    7  A    between atoms: C_21  and  C_22
REMARK    8  A    between atoms: C_21  and  C_28
REMARK                            x       y       z     vdW  Elec       q    Type
REMARK                         _______ _______ _______ _____ _____    ______ ____
ROOT
ATOM      1  N   UNL     1      -1.366  -0.527   0.013  0.00  0.00    -0.283 N 
ATOM      2  C   UNL     1      -1.921  -0.736   1.270  0.00  0.00    +0.151 A 
ATOM      3  C   UNL     1      -1.206  -0.412   2.424  0.00  0.00    +0.106 A 
ATOM      4  C   UNL     1      -1.811  -0.642   3.661  0.00  0.00    +0.145 A 
ATOM      5  N   UNL     1      -3.038  -1.157   3.693  0.00  0.00    -0.219 NA
ATOM      6  C   UNL     1      -3.679  -1.449   2.579  0.00  0.00    +0.225 A 
ATOM      7  N   UNL     1      -3.146  -1.243   1.392  0.00  0.00    -0.218 NA
ENDROOT
BRANCH   1   8
ATOM      8  C   UNL     1      -0.722  -1.572  -0.647  0.00  0.00    +0.043 A 
ATOM      9  C   UNL     1       0.628  -1.784  -0.465  0.00  0.00    +0.024 A 
ATOM     10  C   UNL     1       1.280  -2.824  -1.119  0.00  0.00    +0.002 A 
ATOM     11  C   UNL     1       0.606  -3.661  -1.956  0.00  0.00    +0.008 A 
ATOM     12  C   UNL     1      -0.771  -3.480  -2.169  0.00  0.00    -0.016 A 
ATOM     13  C   UNL     1      -1.448  -2.428  -1.504  0.00  0.00    +0.003 A 
ATOM     14  C   UNL     1      -2.824  -2.252  -1.714  0.00  0.00    +0.010 A 
ATOM     15  C   UNL     1      -3.492  -3.096  -2.548  0.00  0.00    +0.001 A 
ATOM     16  C   UNL     1      -2.829  -4.135  -3.198  0.00  0.00    +0.001 A 
ATOM     17  C   UNL     1      -1.492  -4.328  -3.027  0.00  0.00    +0.008 A 
ENDBRANCH   1   8
BRANCH   3  18
ATOM     18  N   UNL     1       0.087   0.130   2.343  0.00  0.00    -0.353 N 
ATOM     19  H   UNL     1       0.464   0.357   1.479  0.00  0.00    +0.143 HD
ATOM     20  H   UNL     1       0.603   0.277   3.151  0.00  0.00    +0.143 HD
ENDBRANCH   3  18
BRANCH   1  22
ATOM     21  C   UNL     1      -2.679   0.835  -1.537  0.00  0.00    +0.025 C 
ATOM     22  C   UNL     1      -1.457   0.792  -0.618  0.00  0.00    +0.109 C 
ENDBRANCH   1  22
BRANCH   4  23
ATOM     23  N   UNL     1      -1.143  -0.338   4.841  0.00  0.00    -0.317 N 
ATOM     24  H   UNL     1      -0.249   0.037   4.809  0.00  0.00    +0.148 HD
BRANCH  23  25
ATOM     25  C   UNL     1      -1.788  -0.584   6.133  0.00  0.00    +0.132 C 
BRANCH  25  26
ATOM     26  C   UNL     1      -1.562  -2.017   6.543  0.00  0.00    -0.023 A 
ATOM     27  C   UNL     1      -0.332  -2.610   6.329  0.00  0.00    +0.006 A 
ATOM     28  C   UNL     1      -0.124  -3.924   6.705  0.00  0.00    +0.000 A 
ATOM     29  C   UNL     1      -1.145  -4.644   7.296  0.00  0.00    +0.000 A 
ATOM     30  C   UNL     1      -2.375  -4.050   7.510  0.00  0.00    +0.000 A 
ATOM     31  C   UNL     1      -2.582  -2.735   7.138  0.00  0.00    +0.006 A 
ENDBRANCH  25  26
BRANCH  25  32
ATOM     32  C   UNL     1      -1.199   0.335   7.172  0.00  0.00    -0.023 A 
ATOM     33  C   UNL     1       0.159   0.593   7.176  0.00  0.00    +0.006 A 
ATOM     34  C   UNL     1       0.699   1.436   8.130  0.00  0.00    +0.000 A 
ATOM     35  C   UNL     1      -0.119   2.022   9.078  0.00  0.00    +0.000 A 
ATOM     36  C   UNL     1      -1.478   1.764   9.072  0.00  0.00    +0.000 A 
ATOM     37  C   UNL     1      -2.018   0.925   8.117  0.00  0.00    +0.006 A 
ENDBRANCH  25  32
ENDBRANCH  23  25
ENDBRANCH   4  23
TORSDOF 7
