REMARK  Name = ZINC06513267
REMARK  13 active torsions:
REMARK  status: ('A' for Active; 'I' for Inactive)
REMARK    1  A    between atoms: C_5  and  O_7
REMARK    2  A    between atoms: C_15  and  O_16
REMARK    3  A    between atoms: O_16  and  C_17
REMARK    4  A    between atoms: C_17  and  C_18
REMARK    5  A    between atoms: C_18  and  C_20
REMARK    6  A    between atoms: C_18  and  O_27
REMARK    7  A    between atoms: C_20  and  N_52
REMARK    8  A    between atoms: C_21  and  C_22
REMARK    9  A    between atoms: C_21  and  N_52
REMARK   10  A    between atoms: C_22  and  O_23
REMARK   11  A    between atoms: C_24  and  C_25
REMARK   12  A    between atoms: C_24  and  N_52
REMARK   13  A    between atoms: C_25  and  O_26
REMARK                            x       y       z     vdW  Elec       q    Type
REMARK                         _______ _______ _______ _____ _____    ______ ____
ROOT
ATOM      1  C   UNL     1      -3.871   6.725   1.460  0.00  0.00    +0.004 A 
ATOM      2  C   UNL     1      -3.828   5.459   0.898  0.00  0.00    +0.012 A 
ATOM      3  C   UNL     1      -2.614   4.926   0.479  0.00  0.00    +0.037 A 
ATOM      4  C   UNL     1      -1.432   5.678   0.629  0.00  0.00    +0.075 A 
ATOM      5  C   UNL     1      -1.490   6.952   1.197  0.00  0.00    +0.128 A 
ATOM      6  C   UNL     1      -2.717   7.466   1.610  0.00  0.00    +0.046 A 
ATOM      7  C   UNL     1      -0.144   5.111   0.184  0.00  0.00    +0.202 C 
ATOM      8  O   UNL     1       0.835   5.824   0.073  0.00  0.00    -0.286 OA
ATOM      9  C   UNL     1      -0.057   3.671  -0.124  0.00  0.00    +0.075 A 
ATOM     10  C   UNL     1      -1.237   2.916  -0.273  0.00  0.00    +0.037 A 
ATOM     11  C   UNL     1      -1.157   1.560  -0.567  0.00  0.00    +0.012 A 
ATOM     12  C   UNL     1       0.083   0.953  -0.701  0.00  0.00    +0.004 A 
ATOM     13  C   UNL     1       1.242   1.686  -0.557  0.00  0.00    +0.046 A 
ATOM     14  C   UNL     1       1.184   3.048  -0.268  0.00  0.00    +0.132 A 
ATOM     15  C   UNL     1      -2.552   3.576  -0.121  0.00  0.00    +0.195 C 
ATOM     16  O   UNL     1      -3.567   3.017  -0.484  0.00  0.00    -0.287 OA
ENDROOT
BRANCH   5  17
ATOM     17  O   UNL     1      -0.359   7.684   1.347  0.00  0.00    -0.506 OA
ATOM     18  H   UNL     1      -0.152   8.248   0.590  0.00  0.00    +0.292 HD
ENDBRANCH   5  17
BRANCH  14  19
ATOM     19  O   UNL     1       2.327   3.764  -0.128  0.00  0.00    -0.489 OA
BRANCH  19  20
ATOM     20  C   UNL     1       3.559   3.059  -0.289  0.00  0.00    +0.258 C 
BRANCH  20  21
ATOM     21  C   UNL     1       4.729   4.025  -0.096  0.00  0.00    +0.135 C 
BRANCH  21  22
ATOM     22  O   UNL     1       4.715   5.005  -1.137  0.00  0.00    -0.390 OA
ATOM     23  H   UNL     1       4.794   4.634  -2.027  0.00  0.00    +0.210 HD
ENDBRANCH  21  22
BRANCH  21  24
ATOM     24  C   UNL     1       6.046   3.248  -0.146  0.00  0.00    -0.044 C 
BRANCH  24  25
ATOM     25  N   UNL     1       7.151   4.162   0.213  0.00  0.00    +0.384 N 
ATOM     26  H   UNL     1       6.880   4.703   1.043  0.00  0.00    -0.082 HD
BRANCH  25  27
ATOM     27  C   UNL     1       8.369   3.385   0.524  0.00  0.00    -0.050 C 
BRANCH  27  28
ATOM     28  C   UNL     1       9.387   4.312   1.192  0.00  0.00    +0.137 C 
BRANCH  28  29
ATOM     29  O   UNL     1       8.865   4.770   2.441  0.00  0.00    -0.397 OA
ATOM     30  H   UNL     1       9.459   5.363   2.921  0.00  0.00    +0.209 HD
ENDBRANCH  28  29
ENDBRANCH  27  28
ENDBRANCH  25  27
BRANCH  25  31
ATOM     31  C   UNL     1       7.417   5.095  -0.902  0.00  0.00    -0.050 C 
BRANCH  31  32
ATOM     32  C   UNL     1       7.929   4.334  -2.127  0.00  0.00    +0.137 C 
BRANCH  32  33
ATOM     33  O   UNL     1       6.865   3.562  -2.688  0.00  0.00    -0.397 OA
ATOM     34  H   UNL     1       7.136   2.994  -3.422  0.00  0.00    +0.209 HD
ENDBRANCH  32  33
ENDBRANCH  31  32
ENDBRANCH  25  31
ENDBRANCH  24  25
ENDBRANCH  21  24
ENDBRANCH  20  21
ENDBRANCH  19  20
ENDBRANCH  14  19
TORSDOF 13
