REMARK  Name = ZINC12711070
REMARK  7 active torsions:
REMARK  status: ('A' for Active; 'I' for Inactive)
REMARK    1  A    between atoms: C_1  and  C_2
REMARK    2  A    between atoms: C_2  and  N_3
REMARK    3  A    between atoms: C_7  and  C_9
REMARK    4  A    between atoms: C_9  and  N_10
REMARK    5  A    between atoms: N_10  and  C_11
REMARK    6  A    between atoms: C_11  and  C_12
REMARK    7  A    between atoms: N_29  and  C_30
REMARK                            x       y       z     vdW  Elec       q    Type
REMARK                         _______ _______ _______ _____ _____    ______ ____
ROOT
ATOM      1  N   UNL     1       4.825  -0.969  -3.539  0.00  0.00    -0.283 N 
ATOM      2  C   UNL     1       4.175  -0.521  -2.447  0.00  0.00    +0.303 C 
ATOM      3  O   UNL     1       4.801  -0.208  -1.453  0.00  0.00    -0.253 OA
ATOM      4  N   UNL     1       2.831  -0.422  -2.457  0.00  0.00    -0.296 N 
ATOM      5  H   UNL     1       2.265  -0.706  -3.356  0.00  0.00    +0.151 HD
ENDROOT
BRANCH   4   6
ATOM      6  C   UNL     1       2.124   0.064  -1.269  0.00  0.00    +0.074 C 
ATOM      7  C   UNL     1       0.693  -0.477  -1.271  0.00  0.00    +0.022 C 
ATOM      8  C   UNL     1      -0.046   0.030  -0.030  0.00  0.00    +0.002 C 
ATOM      9  C   UNL     1      -0.079   1.560  -0.047  0.00  0.00    +0.000 C 
ATOM     10  C   UNL     1       1.352   2.101  -0.045  0.00  0.00    +0.002 C 
ATOM     11  C   UNL     1       2.091   1.594  -1.286  0.00  0.00    +0.022 C 
ENDBRANCH   4   6
BRANCH   1  12
ATOM     12  C   UNL     1       4.071  -1.346  -4.737  0.00  0.00    +0.094 C 
BRANCH  12  17
ATOM     13  N   UNL     1       3.260   0.980  -4.913  0.00  0.00    +0.382 N 
ATOM     14  C   UNL     1       2.357   1.689  -5.839  0.00  0.00    -0.078 C 
ATOM     15  C   UNL     1       2.442   0.968  -7.201  0.00  0.00    -0.020 C 
ATOM     16  C   UNL     1       2.953  -0.447  -6.819  0.00  0.00    -0.016 C 
ATOM     17  C   UNL     1       3.913  -0.125  -5.646  0.00  0.00    -0.051 C 
ATOM     18  H   UNL     1       2.681   0.578  -4.069  0.00  0.00    -0.081 HD
BRANCH  13  20
ATOM     19  C   UNL     1       5.012   2.595  -5.479  0.00  0.00    -0.017 C 
ATOM     20  C   UNL     1       4.258   1.897  -4.346  0.00  0.00    -0.082 C 
ENDBRANCH  13  20
ENDBRANCH  12  17
ENDBRANCH   1  12
BRANCH   1  21
ATOM     21  C   UNL     1       6.286  -1.077  -3.529  0.00  0.00    +0.149 C 
BRANCH  21  22
ATOM     22  C   UNL     1       6.685  -2.446  -3.041  0.00  0.00    +0.035 A 
ATOM     23  C   UNL     1       6.936  -3.436  -3.935  0.00  0.00    +0.020 A 
ATOM     24  C   UNL     1       7.327  -4.751  -3.431  0.00  0.00    +0.003 A 
ATOM     25  C   UNL     1       7.603  -5.808  -4.308  0.00  0.00    +0.059 A 
ATOM     26  C   UNL     1       7.967  -7.037  -3.803  0.00  0.00    +0.167 A 
ATOM     27  C   UNL     1       8.060  -7.232  -2.419  0.00  0.00    +0.168 A 
ATOM     28  C   UNL     1       7.788  -6.194  -1.546  0.00  0.00    +0.075 A 
ATOM     29  C   UNL     1       7.420  -4.949  -2.039  0.00  0.00    +0.053 A 
ATOM     30  N   UNL     1       7.145  -3.902  -1.183  0.00  0.00    -0.322 N 
ATOM     31  H   UNL     1       7.213  -4.048  -0.095  0.00  0.00    +0.169 HD
ATOM     32  C   UNL     1       6.791  -2.695  -1.658  0.00  0.00    +0.254 A 
ATOM     33  O   UNL     1       6.555  -1.793  -0.872  0.00  0.00    -0.268 OA
ATOM     34  O   UNL     1       8.435  -8.523  -2.188  0.00  0.00    -0.453 OA
ATOM     35  C   UNL     1       8.968  -8.999  -3.438  0.00  0.00    +0.466 C 
ATOM     36  O   UNL     1       8.284  -8.209  -4.428  0.00  0.00    -0.453 OA
ENDBRANCH  21  22
ENDBRANCH   1  21
TORSDOF 6
