REMARK  Name = ZINC59112343
REMARK  18 active torsions:
REMARK  status: ('A' for Active; 'I' for Inactive)
REMARK    1  A    between atoms: C_1  and  C_2
REMARK    2  A    between atoms: C_2  and  C_3
REMARK    3  A    between atoms: C_7  and  C_37
REMARK    4  A    between atoms: C_8  and  N_9
REMARK    5  A    between atoms: N_9  and  C_10
REMARK    6  A    between atoms: C_10  and  N_12
REMARK    7  A    between atoms: N_12  and  C_13
REMARK    8  A    between atoms: C_13  and  C_14
REMARK    9  A    between atoms: C_14  and  C_36
REMARK   10  A    between atoms: C_16  and  N_23
REMARK   11  A    between atoms: C_19  and  C_21
REMARK   12  A    between atoms: C_19  and  C_22
REMARK   13  A    between atoms: N_23  and  C_24
REMARK   14  A    between atoms: C_24  and  N_26
REMARK   15  A    between atoms: N_26  and  C_27
REMARK   16  A    between atoms: C_28  and  C_35
REMARK   17  A    between atoms: C_32  and  C_33
REMARK   18  A    between atoms: C_33  and  C_34
REMARK                            x       y       z     vdW  Elec       q    Type
REMARK                         _______ _______ _______ _____ _____    ______ ____
ROOT
ATOM      1  C   UNL     1      17.800   0.358  13.012  0.00  0.00    -0.014 C 
ATOM      2  C   UNL     1      16.513   0.622  12.237  0.00  0.00    +0.030 C 
ATOM      3  C   UNL     1      15.655   1.665  12.950  0.00  0.00    +0.073 C 
ATOM      4  C   UNL     1      16.434   2.976  13.025  0.00  0.00    +0.028 C 
ATOM      5  C   UNL     1      17.718   2.799  13.827  0.00  0.00    -0.033 C 
ATOM      6  C   UNL     1      18.557   1.633  13.336  0.00  0.00    +0.014 C 
ATOM      7  C   UNL     1      17.391   2.655  15.316  0.00  0.00    +0.011 C 
ATOM      8  C   UNL     1      18.554   4.088  13.662  0.00  0.00    +0.011 C 
ATOM      9  C   UNL     1      17.492  -0.440  14.282  0.00  0.00    +0.013 C 
ENDROOT
BRANCH   3  10
ATOM     10  N   UNL     1      14.423   1.881  12.181  0.00  0.00    -0.323 N 
ATOM     11  H   UNL     1      14.407   1.698  11.228  0.00  0.00    +0.148 HD
BRANCH  10  12
ATOM     12  C   UNL     1      13.313   2.332  12.799  0.00  0.00    +0.135 C 
ATOM     13  S   UNL     1      13.341   2.655  14.480  0.00  0.00    -0.019 S 
BRANCH  12  14
ATOM     14  N   UNL     1      12.182   2.530  12.093  0.00  0.00    -0.296 N 
ATOM     15  H   UNL     1      12.161   2.328  11.145  0.00  0.00    +0.154 HD
BRANCH  14  16
ATOM     16  C   UNL     1      11.040   3.028  12.728  0.00  0.00    +0.039 A 
ATOM     17  C   UNL     1       9.856   2.302  12.700  0.00  0.00    -0.029 A 
ATOM     18  C   UNL     1       8.730   2.796  13.329  0.00  0.00    +0.005 A 
ATOM     19  C   UNL     1       8.780   4.012  13.985  0.00  0.00    +0.001 A 
ATOM     20  C   UNL     1       9.956   4.737  14.015  0.00  0.00    +0.005 A 
ATOM     21  C   UNL     1      11.088   4.246  13.393  0.00  0.00    -0.026 A 
ATOM     22  C   UNL     1       9.800   0.977  11.984  0.00  0.00    +0.045 C 
BRANCH  21  23
ATOM     23  C   UNL     1      12.372   5.035  13.431  0.00  0.00    +0.033 C 
ATOM     24  C   UNL     1      12.484   5.888  12.166  0.00  0.00    +0.009 C 
ENDBRANCH  21  23
ENDBRANCH  14  16
ENDBRANCH  12  14
ENDBRANCH  10  12
ENDBRANCH   3  10
BRANCH   1  25
ATOM     25  C   UNL     1      18.708  -0.522  12.124  0.00  0.00    +0.110 C 
BRANCH  25  26
ATOM     26  N   UNL     1      18.007  -1.765  11.790  0.00  0.00    -0.326 N 
ATOM     27  H   UNL     1      17.110  -1.920  12.124  0.00  0.00    +0.148 HD
BRANCH  26  28
ATOM     28  C   UNL     1      18.610  -2.692  11.020  0.00  0.00    +0.135 C 
ATOM     29  S   UNL     1      20.194  -2.417  10.431  0.00  0.00    -0.019 S 
BRANCH  28  30
ATOM     30  N   UNL     1      17.966  -3.835  10.712  0.00  0.00    -0.296 N 
ATOM     31  H   UNL     1      17.141  -4.065  11.169  0.00  0.00    +0.154 HD
BRANCH  30  37
ATOM     32  C   UNL     1      17.773  -4.926   8.566  0.00  0.00    -0.026 A 
ATOM     33  C   UNL     1      18.292  -5.766   7.600  0.00  0.00    +0.005 A 
ATOM     34  C   UNL     1      19.517  -6.375   7.798  0.00  0.00    +0.001 A 
ATOM     35  C   UNL     1      20.227  -6.146   8.963  0.00  0.00    +0.005 A 
ATOM     36  C   UNL     1      19.713  -5.308   9.932  0.00  0.00    -0.029 A 
ATOM     37  C   UNL     1      18.486  -4.689   9.735  0.00  0.00    +0.039 A 
ATOM     38  C   UNL     1      20.488  -5.059  11.201  0.00  0.00    +0.045 C 
BRANCH  32  40
ATOM     39  C   UNL     1      16.651  -2.865   7.763  0.00  0.00    +0.009 C 
ATOM     40  C   UNL     1      16.437  -4.262   8.350  0.00  0.00    +0.033 C 
ENDBRANCH  32  40
ENDBRANCH  30  37
ENDBRANCH  28  30
ENDBRANCH  26  28
ENDBRANCH  25  26
ENDBRANCH   1  25
TORSDOF 11
