REMARK  Name = ZINC40072509
REMARK  4 active torsions:
REMARK  status: ('A' for Active; 'I' for Inactive)
REMARK    1  A    between atoms: C_4  and  N_11
REMARK    2  A    between atoms: C_5  and  C_7
REMARK    3  A    between atoms: C_13  and  C_16
REMARK    4  A    between atoms: N_18  and  N_19
REMARK                            x       y       z     vdW  Elec       q    Type
REMARK                         _______ _______ _______ _____ _____    ______ ____
ROOT
ATOM      1  C   UNL     1       7.221  -0.994  -0.067  0.00  0.00    +0.282 C 
ATOM      2  O   UNL     1       7.730   0.111  -0.061  0.00  0.00    -0.267 OA
ATOM      3  N   UNL     1       7.999  -2.094  -0.084  0.00  0.00    -0.218 N 
ATOM      4  H   UNL     1       7.593  -2.975  -0.089  0.00  0.00    +0.174 HD
ENDROOT
BRANCH   3   5
ATOM      5  N   UNL     1       9.394  -1.966  -0.093  0.00  0.00    -0.137 N 
ATOM      6  C   UNL     1      10.167  -2.168  -1.181  0.00  0.00    +0.263 C 
ATOM      7  O   UNL     1       9.801  -2.484  -2.293  0.00  0.00    -0.271 OA
ATOM      8  C   UNL     1      11.585  -1.918  -0.721  0.00  0.00    +0.114 C 
ATOM      9  C   UNL     1      12.198  -0.757  -1.496  0.00  0.00    +0.035 C 
ATOM     10  C   UNL     1      13.622  -0.501  -0.994  0.00  0.00    +0.003 C 
ATOM     11  C   UNL     1      14.463  -1.765  -1.184  0.00  0.00    +0.000 C 
ATOM     12  C   UNL     1      13.849  -2.914  -0.382  0.00  0.00    +0.003 C 
ATOM     13  C   UNL     1      12.426  -3.180  -0.882  0.00  0.00    +0.035 C 
ATOM     14  N   UNL     1      11.443  -1.572   0.699  0.00  0.00    -0.284 N 
ATOM     15  C   UNL     1      10.125  -1.621   0.974  0.00  0.00    +0.326 C 
ATOM     16  O   UNL     1       9.653  -1.383   2.068  0.00  0.00    -0.251 OA
ATOM     17  H   UNL     1      12.157  -1.348   1.317  0.00  0.00    +0.151 HD
ENDBRANCH   3   5
BRANCH   1  20
ATOM     18  N   UNL     1       3.624  -0.653  -0.037  0.00  0.00    -0.219 N 
ATOM     19  C   UNL     1       4.856  -0.098  -0.040  0.00  0.00    +0.149 A 
ATOM     20  C   UNL     1       5.752  -1.129  -0.057  0.00  0.00    +0.169 A 
ATOM     21  N   UNL     1       5.070  -2.287  -0.063  0.00  0.00    -0.124 NA
ATOM     22  N   UNL     1       3.806  -2.043  -0.045  0.00  0.00    -0.060 NA
BRANCH  18  26
ATOM     23  C   UNL     1      -0.017   1.378   0.010  0.00  0.00    +0.001 A 
ATOM     24  C   UNL     1       1.170   2.089   0.002  0.00  0.00    +0.002 A 
ATOM     25  C   UNL     1       2.377   1.419  -0.013  0.00  0.00    +0.028 A 
ATOM     26  C   UNL     1       2.399   0.030  -0.021  0.00  0.00    +0.079 A 
ATOM     27  C   UNL     1       1.207  -0.680  -0.013  0.00  0.00    +0.080 A 
ATOM     28  C   UNL     1       0.002  -0.004   0.002  0.00  0.00    +0.014 A 
BRANCH  27  29
ATOM     29  C   UNL     1       1.226  -2.187  -0.022  0.00  0.00    +0.419 C 
ATOM     30  F   UNL     1      -0.086  -2.670  -0.012  0.00  0.00    -0.166 F 
ATOM     31  F   UNL     1       1.881  -2.638  -1.173  0.00  0.00    -0.166 F 
ATOM     32  F   UNL     1       1.903  -2.651   1.111  0.00  0.00    -0.166 F 
ENDBRANCH  27  29
ENDBRANCH  18  26
ENDBRANCH   1  20
TORSDOF 4
