REMARK  Name = ZINC22277876
REMARK  4 active torsions:
REMARK  status: ('A' for Active; 'I' for Inactive)
REMARK    1  A    between atoms: C_4  and  C_7
REMARK    2  A    between atoms: N_14  and  C_17
REMARK    3  A    between atoms: C_17  and  C_18
REMARK    4  A    between atoms: C_31  and  C_33
REMARK                            x       y       z     vdW  Elec       q    Type
REMARK                         _______ _______ _______ _____ _____    ______ ____
ROOT
ATOM      1  C   UNL     1      -4.711   5.748  -3.196  0.00  0.00    +0.240 C 
ATOM      2  O   UNL     1      -4.933   6.005  -2.032  0.00  0.00    -0.273 OA
ATOM      3  N   UNL     1      -5.703   5.291  -3.986  0.00  0.00    -0.256 N 
ATOM      4  C   UNL     1      -5.461   4.990  -5.334  0.00  0.00    +0.058 A 
ATOM      5  C   UNL     1      -5.250   6.001  -6.257  0.00  0.00    +0.025 A 
ATOM      6  C   UNL     1      -5.036   5.686  -7.586  0.00  0.00    +0.002 A 
ATOM      7  C   UNL     1      -5.034   4.365  -7.997  0.00  0.00    +0.002 A 
ATOM      8  C   UNL     1      -5.234   3.350  -7.081  0.00  0.00    +0.025 A 
ATOM      9  C   UNL     1      -5.439   3.657  -5.746  0.00  0.00    +0.055 A 
ATOM     10  N   UNL     1      -5.589   2.644  -4.791  0.00  0.00    -0.284 N 
ATOM     11  C   UNL     1      -6.597   2.694  -3.893  0.00  0.00    +0.219 C 
ATOM     12  O   UNL     1      -6.668   1.855  -3.021  0.00  0.00    -0.275 OA
ATOM     13  C   UNL     1      -7.634   3.783  -3.970  0.00  0.00    +0.128 C 
ATOM     14  C   UNL     1      -7.051   5.094  -3.451  0.00  0.00    +0.194 C 
ATOM     15  H   UNL     1      -4.883   1.801  -4.768  0.00  0.00    +0.155 HD
ENDROOT
BRANCH  14  16
ATOM     16  C   UNL     1      -7.948   6.253  -3.892  0.00  0.00    +0.409 C 
ATOM     17  F   UNL     1      -8.002   6.295  -5.289  0.00  0.00    -0.169 F 
ATOM     18  F   UNL     1      -9.236   6.066  -3.381  0.00  0.00    -0.169 F 
ATOM     19  F   UNL     1      -7.425   7.457  -3.409  0.00  0.00    -0.169 F 
ENDBRANCH  14  16
BRANCH   1  20
ATOM     20  C   UNL     1      -3.327   5.940  -3.760  0.00  0.00    +0.222 C 
BRANCH  20  28
ATOM     21  C   UNL     1      -0.070   5.326   0.031  0.00  0.00    +0.004 A 
ATOM     22  C   UNL     1       0.674   6.022   0.924  0.00  0.00    +0.056 A 
ATOM     23  S   UNL     1       0.312   7.722   0.528  0.00  0.00    -0.076 S 
ATOM     24  C   UNL     1      -0.826   7.462  -0.807  0.00  0.00    +0.116 A 
ATOM     25  C   UNL     1      -0.896   6.063  -0.918  0.00  0.00    +0.080 A 
ATOM     26  C   UNL     1      -1.763   5.565  -1.942  0.00  0.00    +0.263 A 
ATOM     27  O   UNL     1      -1.890   4.365  -2.116  0.00  0.00    -0.267 OA
ATOM     28  N   UNL     1      -2.437   6.441  -2.710  0.00  0.00    -0.290 N 
ATOM     29  C   UNL     1      -2.308   7.781  -2.531  0.00  0.00    +0.203 A 
ATOM     30  N   UNL     1      -1.525   8.266  -1.605  0.00  0.00    -0.230 NA
BRANCH  21  34
ATOM     31  C   UNL     1      -0.013   1.076   0.008  0.00  0.00    +0.000 A 
ATOM     32  C   UNL     1      -1.221   1.748   0.017  0.00  0.00    +0.001 A 
ATOM     33  C   UNL     1      -1.246   3.128   0.031  0.00  0.00    +0.008 A 
ATOM     34  C   UNL     1      -0.050   3.844   0.023  0.00  0.00    -0.017 A 
ATOM     35  C   UNL     1       1.165   3.161   0.007  0.00  0.00    +0.008 A 
ATOM     36  C   UNL     1       1.177   1.781   0.000  0.00  0.00    +0.001 A 
ENDBRANCH  21  34
ENDBRANCH  20  28
ENDBRANCH   1  20
TORSDOF 4
