REMARK  Name = ZINC65494574
REMARK  9 active torsions:
REMARK  status: ('A' for Active; 'I' for Inactive)
REMARK    1  A    between atoms: C_1  and  C_2
REMARK    2  A    between atoms: N_5  and  C_7
REMARK    3  A    between atoms: C_7  and  C_8
REMARK    4  A    between atoms: C_15  and  C_17
REMARK    5  A    between atoms: C_20  and  C_22
REMARK    6  A    between atoms: C_23  and  C_24
REMARK    7  A    between atoms: C_24  and  C_25
REMARK    8  A    between atoms: C_24  and  C_26
REMARK    9  A    between atoms: C_24  and  O_27
REMARK                            x       y       z     vdW  Elec       q    Type
REMARK                         _______ _______ _______ _____ _____    ______ ____
ROOT
ATOM      1  C   UNL     1      -0.018   1.503   0.010  0.00  0.00    +0.068 C 
ATOM      2  C   UNL     1       0.002  -0.004   0.002  0.00  0.00    +0.066 A 
ATOM      3  C   UNL     1       0.008  -0.812  -1.125  0.00  0.00    +0.023 A 
ATOM      4  C   UNL     1       0.033  -2.117  -0.710  0.00  0.00    +0.128 A 
ATOM      5  N   UNL     1       0.033  -2.117   0.631  0.00  0.00    -0.239 N 
ATOM      6  N   UNL     1       0.023  -0.780   1.060  0.00  0.00    -0.174 NA
ATOM      7  N   UNL     1       0.065  -3.178  -1.615  0.00  0.00    -0.270 N 
ATOM      8  C   UNL     1       0.275  -2.895  -2.918  0.00  0.00    +0.219 C 
ATOM      9  O   UNL     1       0.120  -3.772  -3.741  0.00  0.00    -0.275 OA
ATOM     10  C   UNL     1       0.695  -1.529  -3.381  0.00  0.00    +0.109 C 
ATOM     11  C   UNL     1      -0.014  -0.430  -2.583  0.00  0.00    +0.070 C 
ATOM     12  H   UNL     1      -0.060  -4.092  -1.316  0.00  0.00    +0.156 HD
ENDROOT
BRANCH  11  13
ATOM     13  C   UNL     1      -1.440  -0.301  -3.053  0.00  0.00    -0.001 A 
ATOM     14  C   UNL     1      -2.072   0.781  -3.576  0.00  0.00    +0.013 A 
ATOM     15  C   UNL     1      -3.395   0.674  -3.943  0.00  0.00    +0.025 A 
ATOM     16  C   UNL     1      -4.032  -0.528  -3.766  0.00  0.00    +0.062 A 
ATOM     17  S   UNL     1      -2.731  -1.535  -3.072  0.00  0.00    -0.084 S 
BRANCH  16  18
ATOM     18  C   UNL     1      -5.386  -0.885  -4.066  0.00  0.00    -0.056 C 
ATOM     19  C   UNL     1      -6.496  -1.177  -4.312  0.00  0.00    -0.062 C 
BRANCH  19  20
ATOM     20  C   UNL     1      -7.888  -1.544  -4.620  0.00  0.00    +0.121 C 
ATOM     21  C   UNL     1      -8.126  -3.007  -4.242  0.00  0.00    +0.055 C 
ATOM     22  C   UNL     1      -8.839  -0.650  -3.821  0.00  0.00    +0.055 C 
BRANCH  20  23
ATOM     23  O   UNL     1      -8.129  -1.367  -6.017  0.00  0.00    -0.377 OA
ATOM     24  H   UNL     1      -9.029  -1.590  -6.292  0.00  0.00    +0.211 HD
ENDBRANCH  20  23
ENDBRANCH  19  20
ENDBRANCH  16  18
ENDBRANCH  11  13
BRANCH   5  25
ATOM     25  C   UNL     1       0.046  -3.301   1.494  0.00  0.00    +0.270 C 
BRANCH  25  26
ATOM     26  C   UNL     1       1.471  -3.692   1.790  0.00  0.00    +0.377 C 
ATOM     27  O   UNL     1       2.391  -3.042   1.323  0.00  0.00    -0.244 OA
ATOM     28  O   UNL     1       1.705  -4.658   2.496  0.00  0.00    -0.244 OA
ENDBRANCH  25  26
ENDBRANCH   5  25
TORSDOF 6
