REMARK  Name = ZINC03123175
REMARK  13 active torsions:
REMARK  status: ('A' for Active; 'I' for Inactive)
REMARK    1  A    between atoms: C_1  and  C_2
REMARK    2  A    between atoms: C_5  and  S_8
REMARK    3  A    between atoms: S_8  and  N_11
REMARK    4  A    between atoms: N_11  and  C_12
REMARK    5  A    between atoms: N_11  and  C_22
REMARK    6  A    between atoms: C_12  and  C_13
REMARK    7  A    between atoms: C_13  and  O_14
REMARK    8  A    between atoms: O_14  and  C_15
REMARK    9  A    between atoms: C_20  and  N_21
REMARK   10  A    between atoms: C_22  and  C_23
REMARK   11  A    between atoms: C_23  and  O_24
REMARK   12  A    between atoms: O_24  and  C_25
REMARK   13  A    between atoms: C_30  and  N_31
REMARK                            x       y       z     vdW  Elec       q    Type
REMARK                         _______ _______ _______ _____ _____    ______ ____
ROOT
ATOM      1  N   UNL     1       4.740   0.506  -1.072  0.00  0.00    -0.170 NA
ENDROOT
BRANCH   1   2
ATOM      2  S   UNL     1       5.736   1.070  -2.268  0.00  0.00    +0.061 S 
ATOM      3  O   UNL     1       5.167   0.651  -3.502  0.00  0.00    -0.153 OA
ATOM      4  O   UNL     1       5.993   2.436  -1.973  0.00  0.00    -0.153 OA
BRANCH   2   9
ATOM      5  C   UNL     1      10.998  -1.832  -1.725  0.00  0.00    +0.044 C 
ATOM      6  C   UNL     1       9.684  -1.107  -1.861  0.00  0.00    -0.050 A 
ATOM      7  C   UNL     1       8.684  -1.633  -2.657  0.00  0.00    +0.005 A 
ATOM      8  C   UNL     1       7.478  -0.968  -2.782  0.00  0.00    +0.029 A 
ATOM      9  C   UNL     1       7.273   0.222  -2.110  0.00  0.00    +0.105 A 
ATOM     10  C   UNL     1       8.275   0.750  -1.317  0.00  0.00    +0.029 A 
ATOM     11  C   UNL     1       9.479   0.083  -1.189  0.00  0.00    +0.005 A 
ENDBRANCH   2   9
ENDBRANCH   1   2
BRANCH   1  12
ATOM     12  C   UNL     1       4.619   1.243   0.189  0.00  0.00    +0.150 C 
BRANCH  12  13
ATOM     13  C   UNL     1       3.190   1.768   0.337  0.00  0.00    +0.246 C 
BRANCH  13  14
ATOM     14  O   UNL     1       2.323   0.693   0.704  0.00  0.00    -0.489 OA
BRANCH  14  15
ATOM     15  C   UNL     1       1.007   0.992   0.877  0.00  0.00    +0.141 A 
ATOM     16  C   UNL     1       0.561   2.291   0.698  0.00  0.00    +0.047 A 
ATOM     17  C   UNL     1      -0.776   2.594   0.873  0.00  0.00    +0.004 A 
ATOM     18  C   UNL     1      -1.673   1.603   1.228  0.00  0.00    +0.002 A 
ATOM     19  C   UNL     1      -1.236   0.303   1.404  0.00  0.00    +0.026 A 
ATOM     20  C   UNL     1       0.105  -0.007   1.234  0.00  0.00    +0.067 A 
BRANCH  20  21
ATOM     21  N   UNL     1       0.550  -1.321   1.417  0.00  0.00    -0.355 N 
ATOM     22  H   UNL     1       1.488  -1.538   1.294  0.00  0.00    +0.142 HD
ATOM     23  H   UNL     1      -0.079  -2.017   1.666  0.00  0.00    +0.142 HD
ENDBRANCH  20  21
ENDBRANCH  14  15
ENDBRANCH  13  14
ENDBRANCH  12  13
ENDBRANCH   1  12
BRANCH   1  24
ATOM     24  C   UNL     1       3.979  -0.730  -1.274  0.00  0.00    +0.150 C 
BRANCH  24  25
ATOM     25  C   UNL     1       2.602  -0.393  -1.849  0.00  0.00    +0.246 C 
BRANCH  25  26
ATOM     26  O   UNL     1       2.753   0.129  -3.171  0.00  0.00    -0.489 OA
BRANCH  26  27
ATOM     27  C   UNL     1       1.617   0.481  -3.829  0.00  0.00    +0.141 A 
ATOM     28  C   UNL     1       0.383   0.322  -3.219  0.00  0.00    +0.047 A 
ATOM     29  C   UNL     1      -0.771   0.686  -3.888  0.00  0.00    +0.004 A 
ATOM     30  C   UNL     1      -0.700   1.198  -5.170  0.00  0.00    +0.002 A 
ATOM     31  C   UNL     1       0.526   1.355  -5.788  0.00  0.00    +0.026 A 
ATOM     32  C   UNL     1       1.689   0.998  -5.121  0.00  0.00    +0.067 A 
BRANCH  32  33
ATOM     33  N   UNL     1       2.932   1.155  -5.745  0.00  0.00    -0.355 N 
ATOM     34  H   UNL     1       3.745   0.904  -5.278  0.00  0.00    +0.142 HD
ATOM     35  H   UNL     1       2.982   1.514  -6.645  0.00  0.00    +0.142 HD
ENDBRANCH  32  33
ENDBRANCH  26  27
ENDBRANCH  25  26
ENDBRANCH  24  25
ENDBRANCH   1  24
TORSDOF 12
