REMARK  Name = ZINC01380949
REMARK  9 active torsions:
REMARK  status: ('A' for Active; 'I' for Inactive)
REMARK    1  A    between atoms: C_1  and  C_2
REMARK    2  A    between atoms: C_9  and  C_11
REMARK    3  A    between atoms: N_13  and  C_14
REMARK    4  A    between atoms: C_14  and  C_15
REMARK    5  A    between atoms: N_22  and  C_35
REMARK    6  A    between atoms: C_23  and  C_25
REMARK    7  A    between atoms: N_27  and  C_28
REMARK    8  A    between atoms: C_28  and  C_29
REMARK    9  A    between atoms: C_35  and  C_36
REMARK                            x       y       z     vdW  Elec       q    Type
REMARK                         _______ _______ _______ _____ _____    ______ ____
ROOT
ATOM      1  C   UNL     1      -0.019   1.526   0.010  0.00  0.00    +0.047 C 
ATOM      2  C   UNL     1       0.002  -0.004   0.002  0.00  0.00    +0.098 C 
ATOM      3  C   UNL     1       0.775  -0.646  -1.155  0.00  0.00    +0.007 C 
ATOM      4  C   UNL     1       1.138  -1.873  -0.759  0.00  0.00    +0.009 C 
ATOM      5  C   UNL     1       0.558  -1.989   0.604  0.00  0.00    +0.128 C 
ATOM      6  O   UNL     1       0.664  -0.647   1.151  0.00  0.00    -0.355 OA
ATOM      7  C   UNL     1      -0.998  -2.151   0.437  0.00  0.00    +0.128 C 
ATOM      8  C   UNL     1      -1.397  -0.696   0.075  0.00  0.00    +0.125 C 
ATOM      9  C   UNL     1      -1.390  -2.591   1.819  0.00  0.00    +0.224 C 
ATOM     10  O   UNL     1      -2.482  -2.433   2.323  0.00  0.00    -0.275 OA
ATOM     11  N   UNL     1      -0.329  -3.193   2.415  0.00  0.00    -0.282 N 
ATOM     12  C   UNL     1       0.878  -3.082   1.576  0.00  0.00    +0.199 C 
ENDROOT
BRANCH   8  13
ATOM     13  C   UNL     1      -2.090  -0.655  -1.262  0.00  0.00    +0.220 C 
ATOM     14  O   UNL     1      -2.375  -1.688  -1.830  0.00  0.00    -0.275 OA
ATOM     15  N   UNL     1      -2.393   0.530  -1.828  0.00  0.00    -0.310 N 
ATOM     16  H   UNL     1      -2.166   1.357  -1.374  0.00  0.00    +0.149 HD
BRANCH  15  17
ATOM     17  C   UNL     1      -3.067   0.571  -3.128  0.00  0.00    +0.146 C 
BRANCH  17  18
ATOM     18  C   UNL     1      -3.290   2.005  -3.534  0.00  0.00    +0.007 A 
ATOM     19  C   UNL     1      -2.484   2.824  -4.253  0.00  0.00    +0.013 A 
ATOM     20  C   UNL     1      -2.898   4.117  -4.509  0.00  0.00    +0.008 A 
ATOM     21  C   UNL     1      -4.099   4.528  -4.033  0.00  0.00    +0.045 A 
ATOM     22  S   UNL     1      -4.688   3.063  -3.200  0.00  0.00    -0.100 S 
ENDBRANCH  17  18
ENDBRANCH  15  17
ENDBRANCH   8  13
BRANCH  12  23
ATOM     23  C   UNL     1       1.113  -4.382   0.851  0.00  0.00    +0.237 C 
ATOM     24  O   UNL     1       0.232  -5.214   0.797  0.00  0.00    -0.274 OA
ATOM     25  N   UNL     1       2.302  -4.620   0.262  0.00  0.00    -0.310 N 
ATOM     26  H   UNL     1       3.006  -3.955   0.305  0.00  0.00    +0.149 HD
BRANCH  25  27
ATOM     27  C   UNL     1       2.530  -5.884  -0.443  0.00  0.00    +0.139 C 
BRANCH  27  28
ATOM     28  C   UNL     1       3.927  -5.899  -1.006  0.00  0.00    -0.030 A 
ATOM     29  C   UNL     1       4.166  -5.409  -2.276  0.00  0.00    +0.005 A 
ATOM     30  C   UNL     1       5.448  -5.423  -2.793  0.00  0.00    +0.000 A 
ATOM     31  C   UNL     1       6.491  -5.928  -2.040  0.00  0.00    +0.000 A 
ATOM     32  C   UNL     1       6.253  -6.418  -0.770  0.00  0.00    +0.000 A 
ATOM     33  C   UNL     1       4.972  -6.399  -0.251  0.00  0.00    +0.005 A 
ENDBRANCH  27  28
ENDBRANCH  25  27
ENDBRANCH  12  23
BRANCH  11  34
ATOM     34  C   UNL     1      -0.374  -3.853   3.722  0.00  0.00    +0.143 C 
BRANCH  34  35
ATOM     35  C   UNL     1      -0.730  -5.306   3.539  0.00  0.00    -0.030 A 
ATOM     36  C   UNL     1      -2.056  -5.699   3.547  0.00  0.00    +0.006 A 
ATOM     37  C   UNL     1      -2.383  -7.031   3.379  0.00  0.00    +0.020 A 
ATOM     38  C   UNL     1      -1.384  -7.972   3.203  0.00  0.00    +0.041 A 
ATOM     39  C   UNL     1      -0.057  -7.578   3.194  0.00  0.00    +0.020 A 
ATOM     40  C   UNL     1       0.268  -6.245   3.357  0.00  0.00    +0.006 A 
ATOM     41 CL   UNL     1      -1.794  -9.646   2.992  0.00  0.00    -0.084 Cl
ENDBRANCH  34  35
ENDBRANCH  11  34
TORSDOF 8
