REMARK  Name = ZINC09456884
REMARK  9 active torsions:
REMARK  status: ('A' for Active; 'I' for Inactive)
REMARK    1  A    between atoms: C_1  and  C_2
REMARK    2  A    between atoms: C_5  and  N_8
REMARK    3  A    between atoms: C_12  and  C_13
REMARK    4  A    between atoms: C_16  and  C_19
REMARK    5  A    between atoms: C_19  and  C_20
REMARK    6  A    between atoms: C_19  and  C_21
REMARK    7  A    between atoms: C_23  and  S_24
REMARK    8  A    between atoms: S_24  and  C_25
REMARK    9  A    between atoms: C_25  and  C_26
REMARK                            x       y       z     vdW  Elec       q    Type
REMARK                         _______ _______ _______ _____ _____    ______ ____
ROOT
ATOM      1  N   UNL     1      -5.285   1.429   0.086  0.00  0.00    -0.214 N 
ATOM      2  C   UNL     1      -6.137   2.476   0.041  0.00  0.00    +0.275 C 
ATOM      3  O   UNL     1      -7.352   2.435  -0.018  0.00  0.00    -0.268 OA
ATOM      4  C   UNL     1      -5.284   3.680   0.078  0.00  0.00    +0.129 C 
ATOM      5  C   UNL     1      -5.696   4.981   0.054  0.00  0.00    +0.041 C 
ATOM      6  N   UNL     1      -3.997   3.225   0.146  0.00  0.00    -0.220 NA
ATOM      7  C   UNL     1      -4.002   1.918   0.146  0.00  0.00    +0.169 C 
ENDROOT
BRANCH   1  12
ATOM      8  C   UNL     1      -6.752  -4.054   0.038  0.00  0.00    +0.044 C 
ATOM      9  C   UNL     1      -6.363  -2.598   0.051  0.00  0.00    -0.050 A 
ATOM     10  C   UNL     1      -6.716  -1.798   1.122  0.00  0.00    +0.005 A 
ATOM     11  C   UNL     1      -6.360  -0.464   1.137  0.00  0.00    +0.024 A 
ATOM     12  C   UNL     1      -5.647   0.075   0.074  0.00  0.00    +0.044 A 
ATOM     13  C   UNL     1      -5.299  -0.729  -1.003  0.00  0.00    +0.024 A 
ATOM     14  C   UNL     1      -5.653  -2.064  -1.009  0.00  0.00    +0.005 A 
ENDBRANCH   1  12
BRANCH   5  15
ATOM     15  C   UNL     1      -4.708   6.062  -0.048  0.00  0.00    -0.023 A 
ATOM     16  C   UNL     1      -3.355   5.763  -0.252  0.00  0.00    +0.008 A 
ATOM     17  C   UNL     1      -2.435   6.784  -0.352  0.00  0.00    +0.004 A 
ATOM     18  C   UNL     1      -2.843   8.102  -0.240  0.00  0.00    -0.045 A 
ATOM     19  C   UNL     1      -4.178   8.407  -0.034  0.00  0.00    +0.004 A 
ATOM     20  C   UNL     1      -5.112   7.398   0.063  0.00  0.00    +0.008 A 
BRANCH  18  21
ATOM     21  C   UNL     1      -1.829   9.212  -0.344  0.00  0.00    +0.013 C 
ATOM     22  C   UNL     1      -0.782   9.052   0.760  0.00  0.00    +0.012 C 
ATOM     23  C   UNL     1      -1.143   9.149  -1.710  0.00  0.00    +0.012 C 
ENDBRANCH  18  21
ENDBRANCH   5  15
BRANCH   7  24
ATOM     24  S   UNL     1      -2.555   0.915   0.220  0.00  0.00    -0.080 S 
BRANCH  24  25
ATOM     25  C   UNL     1      -1.284   2.202   0.276  0.00  0.00    +0.173 C 
BRANCH  25  26
ATOM     26  C   UNL     1       0.078   1.560   0.345  0.00  0.00    +0.231 C 
ATOM     27  O   UNL     1       0.179   0.352   0.355  0.00  0.00    -0.274 OA
ATOM     28  N   UNL     1       1.184   2.329   0.389  0.00  0.00    -0.240 N 
ATOM     29  C   UNL     1       2.402   1.755   0.445  0.00  0.00    +0.303 C 
ATOM     30  O   UNL     1       2.503   0.544   0.455  0.00  0.00    -0.253 OA
ATOM     31  N   UNL     1       3.508   2.524   0.490  0.00  0.00    -0.313 N 
ATOM     32  H   UNL     1       1.104   3.296   0.381  0.00  0.00    +0.159 HD
ATOM     33  H   UNL     1       3.428   3.490   0.482  0.00  0.00    +0.146 HD
ATOM     34  H   UNL     1       4.385   2.111   0.530  0.00  0.00    +0.146 HD
ENDBRANCH  25  26
ENDBRANCH  24  25
ENDBRANCH   7  24
TORSDOF 6
