REMARK  Name = ZINC22023416
REMARK  8 active torsions:
REMARK  status: ('A' for Active; 'I' for Inactive)
REMARK    1  A    between atoms: C_1  and  N_2
REMARK    2  A    between atoms: N_2  and  C_3
REMARK    3  A    between atoms: N_2  and  S_4
REMARK    4  A    between atoms: S_4  and  C_7
REMARK    5  A    between atoms: C_10  and  S_13
REMARK    6  A    between atoms: S_13  and  N_16
REMARK    7  A    between atoms: C_23  and  S_25
REMARK    8  A    between atoms: S_25  and  N_28
REMARK                            x       y       z     vdW  Elec       q    Type
REMARK                         _______ _______ _______ _____ _____    ______ ____
ROOT
ATOM      1  S   UNL     1       0.280  -3.233  -0.020  0.00  0.00    +0.075 S 
ATOM      2  O   UNL     1       0.874  -4.407   0.518  0.00  0.00    -0.150 OA
ATOM      3  O   UNL     1      -0.880  -2.639   0.545  0.00  0.00    -0.150 OA
ENDROOT
BRANCH   1   4
ATOM      4  N   UNL     1       1.455  -2.067  -0.024  0.00  0.00    -0.202 N 
ATOM      5  C   UNL     1       2.897  -2.328  -0.040  0.00  0.00    +0.136 C 
ATOM      6  C   UNL     1       3.558  -0.940  -0.038  0.00  0.00    +0.058 C 
ATOM      7  C   UNL     1       2.400   0.032  -0.021  0.00  0.00    -0.021 A 
ATOM      8  C   UNL     1       1.217  -0.692  -0.014  0.00  0.00    +0.055 A 
ATOM      9  C   UNL     1       0.002  -0.004   0.002  0.00  0.00    +0.027 A 
ATOM     10  C   UNL     1      -0.017   1.375   0.010  0.00  0.00    +0.030 A 
ATOM     11  C   UNL     1       1.168   2.087   0.002  0.00  0.00    +0.105 A 
ATOM     12  C   UNL     1       2.376   1.413  -0.013  0.00  0.00    +0.034 A 
BRANCH  11  13
ATOM     13  S   UNL     1       1.140   3.849   0.011  0.00  0.00    +0.056 S 
ATOM     14  O   UNL     1       2.373   4.278  -0.549  0.00  0.00    -0.153 OA
ATOM     15  O   UNL     1      -0.117   4.237  -0.526  0.00  0.00    -0.153 OA
BRANCH  13  16
ATOM     16  N   UNL     1       1.147   4.330   1.596  0.00  0.00    -0.204 NA
ATOM     17  H   UNL     1       1.129   5.429   1.645  0.00  0.00    +0.144 HD
ATOM     18  H   UNL     1       2.056   3.955   2.089  0.00  0.00    +0.144 HD
ENDBRANCH  13  16
ENDBRANCH  11  13
ENDBRANCH   1   4
BRANCH   1  22
ATOM     19  C   UNL     1      -0.711  -4.150  -4.341  0.00  0.00    +0.106 A 
ATOM     20  C   UNL     1       0.284  -4.859  -3.694  0.00  0.00    +0.030 A 
ATOM     21  C   UNL     1       0.586  -4.580  -2.375  0.00  0.00    +0.031 A 
ATOM     22  C   UNL     1      -0.106  -3.590  -1.702  0.00  0.00    +0.109 A 
ATOM     23  C   UNL     1      -1.104  -2.884  -2.347  0.00  0.00    +0.031 A 
ATOM     24  C   UNL     1      -1.404  -3.161  -3.667  0.00  0.00    +0.030 A 
BRANCH  19  25
ATOM     25  S   UNL     1      -1.096  -4.506  -6.023  0.00  0.00    +0.060 S 
ATOM     26  O   UNL     1      -1.691  -3.333  -6.560  0.00  0.00    -0.153 OA
ATOM     27  O   UNL     1       0.065  -5.099  -6.588  0.00  0.00    -0.153 OA
BRANCH  25  29
ATOM     28  C   UNL     1      -3.684  -5.290  -6.005  0.00  0.00    +0.131 C 
ATOM     29  N   UNL     1      -2.271  -5.673  -6.020  0.00  0.00    -0.183 NA
ATOM     30  C   UNL     1      -1.896  -7.089  -6.033  0.00  0.00    +0.131 C 
ENDBRANCH  25  29
ENDBRANCH  19  25
ENDBRANCH   1  22
TORSDOF 6
