REMARK  Name = ZINC24505344
REMARK  12 active torsions:
REMARK  status: ('A' for Active; 'I' for Inactive)
REMARK    1  A    between atoms: C_1  and  C_2
REMARK    2  A    between atoms: C_5  and  N_9
REMARK    3  A    between atoms: C_7  and  C_8
REMARK    4  A    between atoms: C_13  and  C_15
REMARK    5  A    between atoms: C_15  and  S_16
REMARK    6  A    between atoms: S_16  and  C_17
REMARK    7  A    between atoms: C_20  and  C_29
REMARK    8  A    between atoms: N_21  and  C_22
REMARK    9  A    between atoms: C_29  and  C_31
REMARK   10  A    between atoms: C_29  and  N_32
REMARK   11  A    between atoms: N_32  and  C_33
REMARK   12  A    between atoms: N_32  and  C_34
REMARK                            x       y       z     vdW  Elec       q    Type
REMARK                         _______ _______ _______ _____ _____    ______ ____
ROOT
ATOM      1  S   UNL     1       5.960   2.851  -0.455  0.00  0.00    -0.076 S 
ENDROOT
BRANCH   1   2
ATOM      2  C   UNL     1       7.462   1.945  -0.285  0.00  0.00    +0.197 A 
ATOM      3  N   UNL     1       7.576   0.664  -0.021  0.00  0.00    -0.122 NA
ATOM      4  N   UNL     1       8.817   0.337   0.032  0.00  0.00    -0.135 NA
ATOM      5  C   UNL     1       9.566   1.379  -0.194  0.00  0.00    +0.125 A 
ATOM      6  N   UNL     1       8.730   2.442  -0.409  0.00  0.00    -0.275 N 
BRANCH   6   7
ATOM      7  C   UNL     1       9.098   3.766  -0.694  0.00  0.00    +0.050 A 
ATOM      8  C   UNL     1       9.759   4.064  -1.878  0.00  0.00    +0.029 A 
ATOM      9  C   UNL     1      10.115   5.368  -2.160  0.00  0.00    +0.040 A 
ATOM     10  C   UNL     1       9.824   6.377  -1.257  0.00  0.00    +0.124 A 
ATOM     11  C   UNL     1       9.170   6.081  -0.073  0.00  0.00    +0.040 A 
ATOM     12  C   UNL     1       8.807   4.778   0.209  0.00  0.00    +0.029 A 
ATOM     13  F   UNL     1      10.178   7.651  -1.532  0.00  0.00    -0.205 F 
ENDBRANCH   6   7
BRANCH   5  14
ATOM     14  C   UNL     1      11.073   1.408  -0.218  0.00  0.00    -0.003 C 
ATOM     15  C   UNL     1      11.608   1.335   1.213  0.00  0.00    -0.005 C 
BRANCH  14  16
ATOM     16  N   UNL     1      11.572   0.259  -0.986  0.00  0.00    +0.382 N 
ATOM     17  C   UNL     1      11.003   0.244  -2.341  0.00  0.00    -0.096 C 
ATOM     18  C   UNL     1      13.040   0.255  -1.032  0.00  0.00    -0.096 C 
ATOM     19  H   UNL     1      11.247  -0.658  -0.473  0.00  0.00    -0.082 HD
ENDBRANCH  14  16
ENDBRANCH   5  14
ENDBRANCH   1   2
BRANCH   1  20
ATOM     20  C   UNL     1       4.760   1.527  -0.166  0.00  0.00    +0.173 C 
BRANCH  20  25
ATOM     21  N   UNL     1      -0.011   0.966   0.007  0.00  0.00    -0.269 N 
ATOM     22  C   UNL     1       1.052   1.775  -0.173  0.00  0.00    +0.310 C 
ATOM     23  O   UNL     1       0.884   2.954  -0.416  0.00  0.00    -0.252 OA
ATOM     24  N   UNL     1       2.301   1.276  -0.085  0.00  0.00    -0.239 N 
ATOM     25  C   UNL     1       3.364   2.085  -0.265  0.00  0.00    +0.231 C 
ATOM     26  O   UNL     1       3.196   3.261  -0.507  0.00  0.00    -0.274 OA
ATOM     27  H   UNL     1       0.138  -0.116   0.144  0.00  0.00    +0.156 HD
ATOM     28  H   UNL     1       2.453   0.209   0.135  0.00  0.00    +0.159 HD
BRANCH  21  33
ATOM     29  C   UNL     1      -5.252   3.138   0.066  0.00  0.00    +0.044 C 
ATOM     30  C   UNL     1      -3.860   2.561   0.050  0.00  0.00    -0.047 A 
ATOM     31  C   UNL     1      -2.800   3.301   0.543  0.00  0.00    +0.005 A 
ATOM     32  C   UNL     1      -1.524   2.773   0.536  0.00  0.00    +0.023 A 
ATOM     33  C   UNL     1      -1.304   1.502   0.022  0.00  0.00    +0.035 A 
ATOM     34  C   UNL     1      -2.369   0.761  -0.473  0.00  0.00    +0.027 A 
ATOM     35  C   UNL     1      -3.644   1.293  -0.457  0.00  0.00    -0.046 A 
ATOM     36  C   UNL     1      -4.801   0.490  -0.993  0.00  0.00    +0.044 C 
ENDBRANCH  21  33
ENDBRANCH  20  25
ENDBRANCH   1  20
TORSDOF 7
