REMARK  Name = ZINC02110612
REMARK  6 active torsions:
REMARK  status: ('A' for Active; 'I' for Inactive)
REMARK    1  A    between atoms: C_1  and  N_70
REMARK    2  A    between atoms: C_8  and  O_28
REMARK    3  A    between atoms: C_10  and  C_12
REMARK    4  A    between atoms: C_12  and  C_13
REMARK    5  A    between atoms: C_13  and  C_15
REMARK    6  A    between atoms: O_28  and  C_29
REMARK                            x       y       z     vdW  Elec       q    Type
REMARK                         _______ _______ _______ _____ _____    ______ ____
ROOT
ATOM      1  C   UNL     1       4.006   4.825   1.202  0.00  0.00    -0.095 C 
ATOM      2  C   UNL     1       4.560   2.466   1.248  0.00  0.00    -0.074 C 
ATOM      3  C   UNL     1       4.139   1.129   0.637  0.00  0.00    +0.017 C 
ATOM      4  C   UNL     1       4.378   1.146  -0.851  0.00  0.00    -0.040 A 
ATOM      5  C   UNL     1       4.398  -0.064  -1.529  0.00  0.00    +0.053 A 
ATOM      6  C   UNL     1       4.606  -0.099  -2.898  0.00  0.00    +0.170 A 
ATOM      7  C   UNL     1       4.797   1.088  -3.597  0.00  0.00    +0.208 A 
ATOM      8  C   UNL     1       4.779   2.296  -2.915  0.00  0.00    +0.167 A 
ATOM      9  C   UNL     1       4.569   2.325  -1.540  0.00  0.00    -0.012 A 
ATOM     10  C   UNL     1       4.562   3.661  -0.845  0.00  0.00    -0.027 C 
ATOM     11  O   UNL     1       4.979   0.793  -4.918  0.00  0.00    -0.449 OA
ATOM     12  C   UNL     1       5.304  -0.610  -4.957  0.00  0.00    +0.467 C 
ATOM     13  O   UNL     1       4.668  -1.140  -3.779  0.00  0.00    -0.452 OA
ATOM     14  N   UNL     1       3.911   3.541   0.471  0.00  0.00    +0.383 N 
ATOM     15  H   UNL     1       2.921   3.307   0.335  0.00  0.00    -0.081 HD
ENDROOT
BRANCH   8  16
ATOM     16  O   UNL     1       4.965   3.459  -3.595  0.00  0.00    -0.491 OA
ATOM     17  C   UNL     1       6.309   3.925  -3.727  0.00  0.00    +0.277 C 
ENDBRANCH   8  16
BRANCH  10  18
ATOM     18  C   UNL     1       3.780   4.667  -1.693  0.00  0.00    +0.064 C 
BRANCH  18  19
ATOM     19  C   UNL     1       2.391   4.140  -1.944  0.00  0.00    +0.135 C 
ATOM     20  O   UNL     1       2.074   3.051  -1.530  0.00  0.00    -0.297 OA
BRANCH  19  21
ATOM     21  C   UNL     1       1.396   4.973  -2.711  0.00  0.00    +0.055 C 
ATOM     22  C   UNL     1       0.952   4.212  -3.962  0.00  0.00    +0.011 C 
ATOM     23  C   UNL     1       1.786   2.938  -4.107  0.00  0.00    +0.001 C 
ATOM     24  C   UNL     1       0.855   1.732  -4.246  0.00  0.00    +0.000 C 
ATOM     25  C   UNL     1       1.228   0.677  -3.203  0.00  0.00    +0.000 C 
ATOM     26  C   UNL     1      -0.015   0.295  -2.396  0.00  0.00    +0.000 C 
ATOM     27  C   UNL     1       0.280   0.450  -0.903  0.00  0.00    -0.000 C 
ATOM     28  C   UNL     1      -0.787   1.339  -0.262  0.00  0.00    +0.000 C 
ATOM     29  C   UNL     1      -0.110   2.485   0.494  0.00  0.00    +0.000 C 
ATOM     30  C   UNL     1      -0.690   3.820   0.022  0.00  0.00    +0.000 C 
ATOM     31  C   UNL     1       0.448   4.746  -0.410  0.00  0.00    +0.001 C 
ATOM     32  C   UNL     1       0.179   5.256  -1.828  0.00  0.00    +0.011 C 
ENDBRANCH  19  21
ENDBRANCH  18  19
ENDBRANCH  10  18
TORSDOF 4
