REMARK  Name = ZINC20291317
REMARK  9 active torsions:
REMARK  status: ('A' for Active; 'I' for Inactive)
REMARK    1  A    between atoms: C_1  and  C_2
REMARK    2  A    between atoms: C_2  and  C_3
REMARK    3  A    between atoms: C_3  and  C_5
REMARK    4  A    between atoms: C_3  and  C_6
REMARK    5  A    between atoms: C_9  and  N_12
REMARK    6  A    between atoms: C_13  and  C_38
REMARK    7  A    between atoms: C_15  and  C_18
REMARK    8  A    between atoms: C_16  and  C_17
REMARK    9  A    between atoms: C_30  and  C_31
REMARK                            x       y       z     vdW  Elec       q    Type
REMARK                         _______ _______ _______ _____ _____    ______ ____
ROOT
ATOM      1  C   UNL     1      -0.283  -9.351   2.004  0.00  0.00    +0.026 C 
ATOM      2  C   UNL     1      -0.198 -10.590   1.403  0.00  0.00    +0.085 A 
ATOM      3  C   UNL     1      -0.463 -10.778  -0.051  0.00  0.00    +0.160 A 
ATOM      4  N   UNL     1      -0.179  -9.879  -0.955  0.00  0.00    -0.281 NA
ATOM      5  N   UNL     1      -1.050 -12.024  -0.354  0.00  0.00    -0.212 N 
ATOM      6  C   UNL     1      -0.834 -13.064   0.530  0.00  0.00    +0.199 A 
ATOM      7  N   UNL     1      -0.247 -13.004   1.693  0.00  0.00    -0.182 NA
ATOM      8  C   UNL     1       0.169 -11.806   2.167  0.00  0.00    +0.283 A 
ATOM      9  O   UNL     1       0.822 -11.727   3.195  0.00  0.00    -0.265 OA
ATOM     10  S   UNL     1      -1.550 -14.456  -0.304  0.00  0.00    -0.031 S 
ATOM     11  C   UNL     1      -2.207 -13.587  -1.720  0.00  0.00    +0.101 A 
ATOM     12  N   UNL     1      -1.818 -12.290  -1.469  0.00  0.00    -0.283 N 
ATOM     13  C   UNL     1      -2.911 -14.082  -2.779  0.00  0.00    +0.102 C 
ATOM     14  H   UNL     1      -0.382 -10.049  -1.889  0.00  0.00    +0.188 HD
ATOM     15  H   UNL     1      -2.081 -11.573  -2.067  0.00  0.00    +0.188 HD
ENDROOT
BRANCH   1  19
ATOM     16  N   UNL     1      -1.384  -6.205   0.670  0.00  0.00    -0.317 N 
ATOM     17  C   UNL     1      -1.991  -7.047  -0.220  0.00  0.00    +0.022 A 
ATOM     18  C   UNL     1      -1.701  -8.318   0.105  0.00  0.00    +0.031 A 
ATOM     19  C   UNL     1      -0.842  -8.256   1.296  0.00  0.00    -0.003 A 
ATOM     20  C   UNL     1      -0.686  -6.910   1.583  0.00  0.00    +0.028 A 
ATOM     21  C   UNL     1       0.119  -6.334   2.719  0.00  0.00    +0.064 C 
ATOM     22  C   UNL     1      -2.851  -6.618  -1.381  0.00  0.00    +0.064 C 
BRANCH  16  26
ATOM     23  C   UNL     1      -1.641  -2.046   0.564  0.00  0.00    -0.044 A 
ATOM     24  C   UNL     1      -1.020  -2.725  -0.468  0.00  0.00    +0.006 A 
ATOM     25  C   UNL     1      -0.933  -4.103  -0.435  0.00  0.00    +0.026 A 
ATOM     26  C   UNL     1      -1.470  -4.807   0.635  0.00  0.00    +0.047 A 
ATOM     27  C   UNL     1      -2.094  -4.122   1.669  0.00  0.00    +0.026 A 
ATOM     28  C   UNL     1      -2.173  -2.743   1.634  0.00  0.00    +0.006 A 
BRANCH  23  29
ATOM     29  C   UNL     1      -1.734  -0.542   0.526  0.00  0.00    +0.016 C 
ATOM     30  C   UNL     1      -2.514  -0.111  -0.717  0.00  0.00    +0.012 C 
BRANCH  29  32
ATOM     31  C   UNL     1      -0.415   1.579   0.564  0.00  0.00    +0.004 C 
ATOM     32  C   UNL     1      -0.326   0.054   0.477  0.00  0.00    +0.004 C 
ENDBRANCH  29  32
ENDBRANCH  23  29
ENDBRANCH  16  26
ENDBRANCH   1  19
BRANCH  13  33
ATOM     33  C   UNL     1      -3.341 -13.220  -3.801  0.00  0.00    +0.242 C 
ATOM     34  O   UNL     1      -3.084 -12.030  -3.742  0.00  0.00    -0.271 OA
ATOM     35  N   UNL     1      -4.036 -13.708  -4.846  0.00  0.00    -0.298 N 
ATOM     36  C   UNL     1      -4.419 -15.115  -5.039  0.00  0.00    +0.108 C 
ATOM     37  C   UNL     1      -5.177 -15.204  -6.381  0.00  0.00    +0.020 C 
ATOM     38  C   UNL     1      -4.687 -13.943  -7.141  0.00  0.00    +0.020 C 
ATOM     39  C   UNL     1      -4.546 -12.920  -5.983  0.00  0.00    +0.108 C 
ENDBRANCH  13  33
TORSDOF 5
