REMARK  Name = ZINC34929926
REMARK  6 active torsions:
REMARK  status: ('A' for Active; 'I' for Inactive)
REMARK    1  A    between atoms: C_4  and  C_7
REMARK    2  A    between atoms: C_7  and  C_8
REMARK    3  A    between atoms: C_8  and  C_10
REMARK    4  A    between atoms: C_8  and  N_22
REMARK    5  A    between atoms: N_12  and  C_13
REMARK    6  A    between atoms: N_25  and  C_26
REMARK                            x       y       z     vdW  Elec       q    Type
REMARK                         _______ _______ _______ _____ _____    ______ ____
ROOT
ATOM      1  C   UNL     1       4.171  -0.963   1.399  0.00  0.00    +0.165 C 
ENDROOT
BRANCH   1   2
ATOM      2  N   UNL     1       4.451   0.315   2.057  0.00  0.00    -0.288 N 
ATOM      3  C   UNL     1       3.451   1.007   2.638  0.00  0.00    +0.301 C 
ATOM      4  O   UNL     1       2.317   0.570   2.616  0.00  0.00    -0.253 OA
ATOM      5  N   UNL     1       3.708   2.183   3.244  0.00  0.00    -0.294 N 
ATOM      6  H   UNL     1       5.356   0.664   2.075  0.00  0.00    +0.151 HD
ATOM      7  H   UNL     1       4.613   2.532   3.262  0.00  0.00    +0.151 HD
BRANCH   5   8
ATOM      8  C   UNL     1       2.621   2.935   3.876  0.00  0.00    +0.037 C 
ATOM      9  C   UNL     1       1.565   3.284   2.825  0.00  0.00    +0.029 C 
ATOM     10  C   UNL     1       0.429   4.069   3.484  0.00  0.00    -0.008 C 
ATOM     11  C   UNL     1       0.987   5.357   4.094  0.00  0.00    +0.007 C 
ATOM     12  C   UNL     1       2.043   5.008   5.144  0.00  0.00    -0.008 C 
ATOM     13  C   UNL     1       3.179   4.223   4.485  0.00  0.00    +0.029 C 
ATOM     14  C   UNL     1       1.407   4.157   6.245  0.00  0.00    +0.007 C 
ATOM     15  C   UNL     1       0.849   2.870   5.635  0.00  0.00    -0.008 C 
ATOM     16  C   UNL     1      -0.207   3.218   4.585  0.00  0.00    +0.007 C 
ATOM     17  C   UNL     1       1.984   2.084   4.976  0.00  0.00    +0.029 C 
ENDBRANCH   5   8
ENDBRANCH   1   2
BRANCH   1  18
ATOM     18  C   UNL     1       5.422  -1.804   1.383  0.00  0.00    +0.234 C 
ATOM     19  O   UNL     1       6.446  -1.378   1.874  0.00  0.00    -0.274 OA
ATOM     20  N   UNL     1       5.402  -3.031   0.824  0.00  0.00    -0.302 N 
ATOM     21  H   UNL     1       4.583  -3.372   0.432  0.00  0.00    +0.150 HD
BRANCH  20  22
ATOM     22  C   UNL     1       6.617  -3.849   0.809  0.00  0.00    +0.159 C 
ATOM     23  C   UNL     1       6.240  -5.329   0.713  0.00  0.00    +0.032 C 
ATOM     24  C   UNL     1       7.342  -6.203   1.284  0.00  0.00    +0.004 C 
ATOM     25  C   UNL     1       8.627  -6.173   0.477  0.00  0.00    +0.019 C 
ATOM     26  C   UNL     1       9.284  -4.794   0.548  0.00  0.00    +0.104 C 
ATOM     27  N   UNL     1       8.708  -3.942  -0.505  0.00  0.00    -0.314 N 
ATOM     28  C   UNL     1       7.461  -3.484  -0.394  0.00  0.00    +0.233 C 
ATOM     29  O   UNL     1       6.999  -2.776  -1.264  0.00  0.00    -0.274 OA
ATOM     30  H   UNL     1       9.240  -3.710  -1.282  0.00  0.00    +0.149 HD
ENDBRANCH  20  22
ENDBRANCH   1  18
BRANCH   1  31
ATOM     31  C   UNL     1       3.711  -0.707  -0.038  0.00  0.00    +0.067 C 
BRANCH  31  35
ATOM     32  C   UNL     1      -0.017   1.378   0.010  0.00  0.00    +0.000 A 
ATOM     33  C   UNL     1       1.171   2.086   0.002  0.00  0.00    +0.000 A 
ATOM     34  C   UNL     1       2.377   1.411  -0.013  0.00  0.00    +0.004 A 
ATOM     35  C   UNL     1       2.396   0.029  -0.020  0.00  0.00    -0.045 A 
ATOM     36  C   UNL     1       1.208  -0.679  -0.012  0.00  0.00    +0.004 A 
ATOM     37  C   UNL     1       0.002  -0.004   0.002  0.00  0.00    +0.000 A 
ENDBRANCH  31  35
ENDBRANCH   1  31
TORSDOF 6
