REMARK  Name = ZINC03623083
REMARK  4 active torsions:
REMARK  status: ('A' for Active; 'I' for Inactive)
REMARK    1  A    between atoms: C_5  and  C_7
REMARK    2  A    between atoms: N_9  and  C_10
REMARK    3  A    between atoms: C_10  and  C_30
REMARK    4  A    between atoms: N_18  and  C_23
REMARK                            x       y       z     vdW  Elec       q    Type
REMARK                         _______ _______ _______ _____ _____    ______ ____
ROOT
ATOM      1  C   UNL     1      -1.045   2.169   0.067  0.00  0.00    +0.240 C 
ATOM      2  C   UNL     1       0.112   1.198   0.102  0.00  0.00    +0.097 A 
ATOM      3  C   UNL     1       0.192  -0.199   0.050  0.00  0.00    +0.262 A 
ATOM      4  O   UNL     1      -0.821  -0.871  -0.037  0.00  0.00    -0.267 OA
ATOM      5  N   UNL     1       1.403  -0.794   0.097  0.00  0.00    -0.274 N 
ATOM      6  H   UNL     1       1.470  -1.791   0.061  0.00  0.00    +0.173 HD
ATOM      7  C   UNL     1       2.518  -0.048   0.192  0.00  0.00    +0.335 A 
ATOM      8  O   UNL     1       3.601  -0.600   0.233  0.00  0.00    -0.246 OA
ATOM      9  N   UNL     1       2.462   1.294   0.243  0.00  0.00    -0.249 N 
ATOM     10  C   UNL     1       1.247   1.948   0.199  0.00  0.00    +0.125 A 
ATOM     11  N   UNL     1       0.949   3.288   0.235  0.00  0.00    -0.269 N 
ATOM     12  C   UNL     1      -0.374   3.524   0.168  0.00  0.00    +0.256 C 
ATOM     13  O   UNL     1      -0.920   4.606   0.179  0.00  0.00    -0.272 OA
ATOM     14  H   UNL     1       1.618   3.987   0.303  0.00  0.00    +0.156 HD
ENDROOT
BRANCH   9  15
ATOM     15  C   UNL     1       3.647   2.036   0.343  0.00  0.00    +0.053 A 
ATOM     16  C   UNL     1       4.422   1.957   1.492  0.00  0.00    +0.028 A 
ATOM     17  C   UNL     1       5.592   2.686   1.585  0.00  0.00    +0.022 A 
ATOM     18  C   UNL     1       5.985   3.502   0.540  0.00  0.00    +0.041 A 
ATOM     19  C   UNL     1       5.211   3.587  -0.604  0.00  0.00    +0.022 A 
ATOM     20  C   UNL     1       4.044   2.856  -0.705  0.00  0.00    +0.028 A 
ATOM     21 CL   UNL     1       7.453   4.421   0.663  0.00  0.00    -0.084 Cl
ENDBRANCH   9  15
BRANCH   1  24
ATOM     22  C   UNL     1      -1.134   2.181  -2.368  0.00  0.00    +0.247 C 
ATOM     23  O   UNL     1       0.039   2.500  -2.382  0.00  0.00    -0.270 OA
ATOM     24  N   UNL     1      -1.782   2.049  -1.193  0.00  0.00    -0.287 N 
ATOM     25  H   UNL     1      -2.736   1.873  -1.183  0.00  0.00    +0.151 HD
BRANCH  22  30
ATOM     26  C   UNL     1      -3.858   1.349  -4.814  0.00  0.00    +0.001 A 
ATOM     27  C   UNL     1      -3.191   1.485  -6.019  0.00  0.00    +0.001 A 
ATOM     28  C   UNL     1      -1.857   1.848  -6.040  0.00  0.00    +0.021 A 
ATOM     29  C   UNL     1      -1.181   2.076  -4.857  0.00  0.00    +0.053 A 
ATOM     30  C   UNL     1      -1.849   1.939  -3.638  0.00  0.00    +0.055 A 
ATOM     31  C   UNL     1      -3.195   1.567  -3.625  0.00  0.00    +0.014 A 
ATOM     32 CL   UNL     1       0.494   2.531  -4.885  0.00  0.00    -0.083 Cl
ENDBRANCH  22  30
ENDBRANCH   1  24
BRANCH   1  33
ATOM     33  C   UNL     1      -1.976   1.941   1.260  0.00  0.00    +0.424 C 
ATOM     34  F   UNL     1      -1.286   2.209   2.447  0.00  0.00    -0.167 F 
ATOM     35  F   UNL     1      -3.080   2.793   1.160  0.00  0.00    -0.167 F 
ATOM     36  F   UNL     1      -2.411   0.612   1.264  0.00  0.00    -0.167 F 
ENDBRANCH   1  33
TORSDOF 4
