REMARK  Name = ZINC16162397
REMARK  9 active torsions:
REMARK  status: ('A' for Active; 'I' for Inactive)
REMARK    1  A    between atoms: C_1  and  C_2
REMARK    2  A    between atoms: C_2  and  C_3
REMARK    3  A    between atoms: C_8  and  N_9
REMARK    4  A    between atoms: N_9  and  C_10
REMARK    5  A    between atoms: N_9  and  S_25
REMARK    6  A    between atoms: C_10  and  C_11
REMARK    7  A    between atoms: N_13  and  N_14
REMARK    8  A    between atoms: S_25  and  C_28
REMARK    9  A    between atoms: C_31  and  C_34
REMARK                            x       y       z     vdW  Elec       q    Type
REMARK                         _______ _______ _______ _____ _____    ______ ____
ROOT
ATOM      1  N   UNL     1      -1.840  -0.100  -2.097  0.00  0.00    -0.194 N 
ENDROOT
BRANCH   1   7
ATOM      2  C   UNL     1      -0.944   0.575   0.039  0.00  0.00    -0.025 A 
ATOM      3  C   UNL     1      -0.204   1.459   0.801  0.00  0.00    +0.005 A 
ATOM      4  C   UNL     1       0.376   2.566   0.209  0.00  0.00    +0.000 A 
ATOM      5  C   UNL     1       0.220   2.791  -1.147  0.00  0.00    +0.002 A 
ATOM      6  C   UNL     1      -0.517   1.911  -1.914  0.00  0.00    +0.025 A 
ATOM      7  C   UNL     1      -1.098   0.795  -1.323  0.00  0.00    +0.055 A 
BRANCH   2   9
ATOM      8  C   UNL     1      -1.203  -0.670   2.168  0.00  0.00    +0.009 C 
ATOM      9  C   UNL     1      -1.577  -0.630   0.685  0.00  0.00    +0.033 C 
ENDBRANCH   2   9
ENDBRANCH   1   7
BRANCH   1  10
ATOM     10  S   UNL     1      -1.078  -1.061  -3.210  0.00  0.00    +0.075 S 
ATOM     11  O   UNL     1      -0.052  -0.271  -3.795  0.00  0.00    -0.150 OA
ATOM     12  O   UNL     1      -0.812  -2.298  -2.564  0.00  0.00    -0.150 OA
BRANCH  10  13
ATOM     13  C   UNL     1      -2.242  -1.402  -4.488  0.00  0.00    +0.109 A 
ATOM     14  C   UNL     1      -3.026  -2.539  -4.425  0.00  0.00    +0.029 A 
ATOM     15  C   UNL     1      -3.939  -2.806  -5.428  0.00  0.00    +0.005 A 
ATOM     16  C   UNL     1      -4.069  -1.935  -6.494  0.00  0.00    -0.050 A 
ATOM     17  C   UNL     1      -3.286  -0.798  -6.556  0.00  0.00    +0.005 A 
ATOM     18  C   UNL     1      -2.376  -0.528  -5.551  0.00  0.00    +0.029 A 
ATOM     19  C   UNL     1      -5.064  -2.227  -7.587  0.00  0.00    +0.044 C 
ENDBRANCH  10  13
ENDBRANCH   1  10
BRANCH   1  20
ATOM     20  C   UNL     1      -3.292  -0.189  -1.925  0.00  0.00    +0.228 C 
BRANCH  20  21
ATOM     21  C   UNL     1      -3.963   0.870  -2.761  0.00  0.00    +0.251 C 
ATOM     22  O   UNL     1      -3.308   1.540  -3.531  0.00  0.00    -0.272 OA
ATOM     23  N   UNL     1      -5.291   1.073  -2.653  0.00  0.00    -0.205 N 
ATOM     24  H   UNL     1      -5.815   0.537  -2.037  0.00  0.00    +0.177 HD
BRANCH  23  25
ATOM     25  N   UNL     1      -5.915   2.057  -3.431  0.00  0.00    -0.174 NA
ATOM     26  C   UNL     1      -7.206   2.254  -3.326  0.00  0.00    +0.152 C 
ATOM     27  C   UNL     1      -8.032   3.237  -4.066  0.00  0.00    +0.028 A 
ATOM     28  C   UNL     1      -7.737   4.193  -5.031  0.00  0.00    +0.012 A 
ATOM     29  C   UNL     1      -8.748   4.981  -5.546  0.00  0.00    +0.001 A 
ATOM     30  C   UNL     1     -10.049   4.818  -5.101  0.00  0.00    +0.002 A 
ATOM     31  C   UNL     1     -10.351   3.872  -4.142  0.00  0.00    +0.024 A 
ATOM     32  C   UNL     1      -9.347   3.069  -3.613  0.00  0.00    +0.043 A 
ATOM     33  N   UNL     1      -9.379   2.061  -2.656  0.00  0.00    -0.280 N 
ATOM     34  C   UNL     1      -8.157   1.540  -2.450  0.00  0.00    +0.269 C 
ATOM     35  O   UNL     1      -7.882   0.642  -1.676  0.00  0.00    -0.268 OA
ATOM     36  H   UNL     1     -10.182   1.767  -2.199  0.00  0.00    +0.155 HD
ENDBRANCH  23  25
ENDBRANCH  20  21
ENDBRANCH   1  20
TORSDOF 7
