REMARK  Name = ZINC18405413
REMARK  7 active torsions:
REMARK  status: ('A' for Active; 'I' for Inactive)
REMARK    1  A    between atoms: C_1  and  C_2
REMARK    2  A    between atoms: C_2  and  C_4
REMARK    3  A    between atoms: C_2  and  O_23
REMARK    4  A    between atoms: N_6  and  C_7
REMARK    5  A    between atoms: O_23  and  C_24
REMARK    6  A    between atoms: C_24  and  C_26
REMARK    7  A    between atoms: C_31  and  N_32
REMARK                            x       y       z     vdW  Elec       q    Type
REMARK                         _______ _______ _______ _____ _____    ______ ____
ROOT
ATOM      1  C   UNL     1       3.596  -2.034   0.102  0.00  0.00    +0.258 C 
ATOM      2  O   UNL     1       2.549  -2.646   0.116  0.00  0.00    -0.271 OA
ATOM      3  N   UNL     1       3.590  -0.689   0.013  0.00  0.00    -0.282 N 
ATOM      4  H   UNL     1       4.426  -0.204  -0.062  0.00  0.00    +0.155 HD
ENDROOT
BRANCH   3   5
ATOM      5  C   UNL     1       2.384   0.003   0.028  0.00  0.00    +0.045 A 
ATOM      6  C   UNL     1       1.251  -0.547  -0.571  0.00  0.00    +0.024 A 
ATOM      7  C   UNL     1       0.053   0.136  -0.558  0.00  0.00    +0.003 A 
ATOM      8  C   UNL     1      -0.044   1.378   0.052  0.00  0.00    +0.012 A 
ATOM      9  C   UNL     1       1.071   1.945   0.655  0.00  0.00    +0.035 A 
ATOM     10  C   UNL     1       2.299   1.255   0.645  0.00  0.00    +0.054 A 
ATOM     11  C   UNL     1       3.483   1.859   1.286  0.00  0.00    +0.196 C 
ATOM     12  O   UNL     1       4.471   1.187   1.508  0.00  0.00    -0.287 OA
ATOM     13  C   UNL     1       3.453   3.291   1.655  0.00  0.00    +0.033 A 
ATOM     14  C   UNL     1       4.625   3.960   1.990  0.00  0.00    +0.012 A 
ATOM     15  C   UNL     1       4.578   5.301   2.332  0.00  0.00    +0.001 A 
ATOM     16  C   UNL     1       3.374   5.980   2.343  0.00  0.00    +0.001 A 
ATOM     17  C   UNL     1       2.198   5.329   2.012  0.00  0.00    +0.012 A 
ATOM     18  C   UNL     1       2.227   3.982   1.666  0.00  0.00    +0.033 A 
ATOM     19  C   UNL     1       0.982   3.270   1.307  0.00  0.00    +0.195 C 
ATOM     20  O   UNL     1      -0.102   3.766   1.546  0.00  0.00    -0.287 OA
ENDBRANCH   3   5
BRANCH   1  22
ATOM     21  C   UNL     1       5.737  -2.486  -1.064  0.00  0.00    +0.062 C 
ATOM     22  C   UNL     1       4.904  -2.777   0.186  0.00  0.00    +0.259 C 
BRANCH  22  23
ATOM     23  O   UNL     1       4.645  -4.204   0.274  0.00  0.00    -0.449 OA
BRANCH  23  24
ATOM     24  C   UNL     1       5.544  -4.948   0.949  0.00  0.00    +0.342 C 
ATOM     25  O   UNL     1       6.516  -4.419   1.450  0.00  0.00    -0.245 OA
BRANCH  24  26
ATOM     26  C   UNL     1       5.346  -6.402   1.079  0.00  0.00    +0.081 A 
ATOM     27  C   UNL     1       4.292  -7.031   0.411  0.00  0.00    +0.017 A 
ATOM     28  C   UNL     1       4.112  -8.391   0.536  0.00  0.00    +0.002 A 
ATOM     29  C   UNL     1       4.973  -9.142   1.322  0.00  0.00    +0.022 A 
ATOM     30  C   UNL     1       6.019  -8.536   1.988  0.00  0.00    +0.062 A 
ATOM     31  C   UNL     1       6.220  -7.165   1.870  0.00  0.00    +0.057 A 
ATOM     32 CL   UNL     1       7.090  -9.488   2.968  0.00  0.00    -0.082 Cl
BRANCH  31  33
ATOM     33  N   UNL     1       7.275  -6.553   2.534  0.00  0.00    -0.356 N 
ATOM     34  H   UNL     1       7.456  -5.611   2.393  0.00  0.00    +0.142 HD
ATOM     35  H   UNL     1       7.830  -7.069   3.140  0.00  0.00    +0.142 HD
ENDBRANCH  31  33
ENDBRANCH  24  26
ENDBRANCH  23  24
ENDBRANCH  22  23
ENDBRANCH   1  22
TORSDOF 6
