REMARK  Name = ZINC59170525
REMARK  6 active torsions:
REMARK  status: ('A' for Active; 'I' for Inactive)
REMARK    1  A    between atoms: C_1  and  C_2
REMARK    2  A    between atoms: C_9  and  C_23
REMARK    3  A    between atoms: N_11  and  C_12
REMARK    4  A    between atoms: C_15  and  S_18
REMARK    5  A    between atoms: S_18  and  N_21
REMARK    6  A    between atoms: N_25  and  C_26
REMARK                            x       y       z     vdW  Elec       q    Type
REMARK                         _______ _______ _______ _____ _____    ______ ____
ROOT
ATOM      1  C   UNL     1      -1.188   1.317  -0.002  0.00  0.00    +0.044 C 
ATOM      2  C   UNL     1      -0.661  -0.094  -0.062  0.00  0.00    -0.050 A 
ATOM      3  C   UNL     1       0.214  -0.459  -1.075  0.00  0.00    +0.007 A 
ATOM      4  C   UNL     1       0.707  -1.747  -1.149  0.00  0.00    +0.047 A 
ATOM      5  C   UNL     1       0.326  -2.686  -0.202  0.00  0.00    +0.137 A 
ATOM      6  C   UNL     1      -0.558  -2.312   0.828  0.00  0.00    +0.018 A 
ATOM      7  C   UNL     1      -1.044  -1.001   0.886  0.00  0.00    +0.015 A 
ATOM      8  C   UNL     1      -0.951  -3.304   1.832  0.00  0.00    +0.030 A 
ATOM      9  C   UNL     1      -0.225  -4.486   1.880  0.00  0.00    +0.098 A 
ATOM     10  C   UNL     1       0.879  -4.637   0.911  0.00  0.00    +0.212 A 
ATOM     11  N   UNL     1       1.912  -5.407   1.175  0.00  0.00    -0.325 N 
ATOM     12  O   UNL     1       0.796  -3.956  -0.260  0.00  0.00    -0.439 OA
ATOM     13  H   UNL     1       2.049  -5.744   2.074  0.00  0.00    +0.169 HD
ENDROOT
BRANCH  11  14
ATOM     14  C   UNL     1       2.793  -5.734   0.181  0.00  0.00    +0.042 A 
ATOM     15  C   UNL     1       2.321  -6.126  -1.074  0.00  0.00    +0.027 A 
ATOM     16  C   UNL     1       3.216  -6.453  -2.071  0.00  0.00    +0.030 A 
ATOM     17  C   UNL     1       4.577  -6.394  -1.831  0.00  0.00    +0.105 A 
ATOM     18  C   UNL     1       5.052  -6.007  -0.590  0.00  0.00    +0.030 A 
ATOM     19  C   UNL     1       4.169  -5.671   0.415  0.00  0.00    +0.027 A 
BRANCH  17  20
ATOM     20  S   UNL     1       5.713  -6.816  -3.111  0.00  0.00    +0.056 S 
ATOM     21  O   UNL     1       6.920  -7.206  -2.471  0.00  0.00    -0.153 OA
ATOM     22  O   UNL     1       5.015  -7.669  -4.008  0.00  0.00    -0.153 OA
BRANCH  20  23
ATOM     23  N   UNL     1       6.048  -5.425  -3.946  0.00  0.00    -0.204 NA
ATOM     24  H   UNL     1       5.632  -4.589  -3.682  0.00  0.00    +0.144 HD
ATOM     25  H   UNL     1       6.660  -5.446  -4.698  0.00  0.00    +0.144 HD
ENDBRANCH  20  23
ENDBRANCH  17  20
ENDBRANCH  11  14
BRANCH   9  26
ATOM     26  C   UNL     1      -0.541  -5.543   2.855  0.00  0.00    +0.253 C 
ATOM     27  O   UNL     1      -1.377  -5.346   3.716  0.00  0.00    -0.270 OA
ATOM     28  N   UNL     1       0.096  -6.730   2.793  0.00  0.00    -0.281 N 
ATOM     29  H   UNL     1       0.786  -6.875   2.127  0.00  0.00    +0.155 HD
BRANCH  28  30
ATOM     30  C   UNL     1      -0.239  -7.751   3.688  0.00  0.00    +0.034 A 
ATOM     31  C   UNL     1      -0.692  -7.437   4.963  0.00  0.00    +0.025 A 
ATOM     32  C   UNL     1      -1.022  -8.447   5.846  0.00  0.00    +0.022 A 
ATOM     33  C   UNL     1      -0.902  -9.771   5.460  0.00  0.00    +0.041 A 
ATOM     34  C   UNL     1      -0.451 -10.086   4.190  0.00  0.00    +0.022 A 
ATOM     35  C   UNL     1      -0.124  -9.080   3.303  0.00  0.00    +0.025 A 
ATOM     36 CL   UNL     1      -1.317 -11.038   6.572  0.00  0.00    -0.084 Cl
ENDBRANCH  28  30
ENDBRANCH   9  26
TORSDOF 5
