REMARK  Name = ZINC20623604
REMARK  9 active torsions:
REMARK  status: ('A' for Active; 'I' for Inactive)
REMARK    1  A    between atoms: C_1  and  C_2
REMARK    2  A    between atoms: C_3  and  O_29
REMARK    3  A    between atoms: C_4  and  C_17
REMARK    4  A    between atoms: C_17  and  N_18
REMARK    5  A    between atoms: N_18  and  C_19
REMARK    6  A    between atoms: C_21  and  C_27
REMARK    7  A    between atoms: C_21  and  C_28
REMARK    8  A    between atoms: C_23  and  C_25
REMARK    9  A    between atoms: C_23  and  C_26
REMARK                            x       y       z     vdW  Elec       q    Type
REMARK                         _______ _______ _______ _____ _____    ______ ____
ROOT
ATOM      1  C   UNL     1      -0.297   1.206  -0.001  0.00  0.00    +0.051 C 
ATOM      2  C   UNL     1      -0.192  -0.297   0.034  0.00  0.00    +0.034 A 
ATOM      3  C   UNL     1      -0.186  -1.022  -1.147  0.00  0.00    +0.128 A 
ATOM      4  C   UNL     1      -0.089  -2.411  -1.125  0.00  0.00    +0.009 A 
ATOM      5  C   UNL     1       0.002  -3.080   0.061  0.00  0.00    +0.020 A 
ATOM      6  C   UNL     1      -0.001  -2.363   1.264  0.00  0.00    +0.022 A 
ATOM      7  C   UNL     1      -0.094  -0.961   1.247  0.00  0.00    +0.146 A 
ATOM      8  O   UNL     1      -0.093  -0.278   2.412  0.00  0.00    -0.422 OA
ATOM      9  C   UNL     1       0.012  -0.909   3.589  0.00  0.00    +0.341 A 
ATOM     10  O   UNL     1       0.020  -0.249   4.613  0.00  0.00    -0.245 OA
ATOM     11  C   UNL     1       0.115  -2.320   3.682  0.00  0.00    +0.041 A 
ATOM     12  C   UNL     1       0.095  -3.061   2.553  0.00  0.00    -0.027 A 
ATOM     13  C   UNL     1       0.179  -4.562   2.552  0.00  0.00    +0.036 C 
ATOM     14  C   UNL     1       0.697  -5.073   3.895  0.00  0.00    +0.005 C 
ATOM     15  C   UNL     1      -0.130  -4.421   5.010  0.00  0.00    +0.005 C 
ATOM     16  C   UNL     1       0.235  -2.931   5.052  0.00  0.00    +0.042 C 
ENDROOT
BRANCH   3  17
ATOM     17  O   UNL     1      -0.277  -0.372  -2.336  0.00  0.00    -0.506 OA
ATOM     18  H   UNL     1       0.577  -0.122  -2.714  0.00  0.00    +0.292 HD
ENDBRANCH   3  17
BRANCH   4  19
ATOM     19  C   UNL     1      -0.085  -3.182  -2.421  0.00  0.00    +0.120 C 
BRANCH  19  20
ATOM     20  N   UNL     1       1.257  -3.132  -3.016  0.00  0.00    -0.309 NA
ATOM     21  H   UNL     1       1.560  -2.178  -3.146  0.00  0.00    +0.123 HD
BRANCH  20  22
ATOM     22  C   UNL     1       1.299  -3.876  -4.286  0.00  0.00    +0.051 C 
ATOM     23  C   UNL     1       1.596  -5.348  -3.996  0.00  0.00    +0.006 C 
ATOM     24  C   UNL     1       1.655  -6.133  -5.306  0.00  0.00    -0.072 C 
ATOM     25  N   UNL     1       2.595  -5.550  -6.252  0.00  0.00    +0.386 N 
ATOM     26  C   UNL     1       2.542  -4.111  -6.457  0.00  0.00    -0.072 C 
ATOM     27  C   UNL     1       2.426  -3.322  -5.157  0.00  0.00    +0.006 C 
ATOM     28  C   UNL     1       1.411  -3.716  -7.411  0.00  0.00    -0.010 C 
ATOM     29  C   UNL     1       3.869  -3.689  -7.132  0.00  0.00    -0.010 C 
ATOM     30  C   UNL     1       0.254  -6.276  -5.900  0.00  0.00    -0.010 C 
ATOM     31  C   UNL     1       2.156  -7.556  -4.966  0.00  0.00    -0.010 C 
ATOM     32  H   UNL     1       3.543  -5.798  -5.957  0.00  0.00    -0.084 HD
ATOM     33  H   UNL     1       2.467  -6.010  -7.157  0.00  0.00    -0.084 HD
ENDBRANCH  20  22
ENDBRANCH  19  20
ENDBRANCH   4  19
TORSDOF 4
