REMARK  Name = ZINC43216360
REMARK  7 active torsions:
REMARK  status: ('A' for Active; 'I' for Inactive)
REMARK    1  A    between atoms: C_3  and  S_24
REMARK    2  A    between atoms: C_6  and  C_7
REMARK    3  A    between atoms: C_7  and  C_8
REMARK    4  A    between atoms: C_8  and  N_9
REMARK    5  A    between atoms: C_10  and  C_12
REMARK    6  A    between atoms: C_15  and  C_17
REMARK    7  A    between atoms: S_24  and  N_27
REMARK                            x       y       z     vdW  Elec       q    Type
REMARK                         _______ _______ _______ _____ _____    ______ ____
ROOT
ATOM      1  N   UNL     1      -3.004  -1.778  -1.420  0.00  0.00    -0.310 N 
ATOM      2  C   UNL     1      -3.594  -2.117  -2.584  0.00  0.00    +0.266 C 
ATOM      3  O   UNL     1      -3.082  -1.800  -3.640  0.00  0.00    -0.268 OA
ATOM      4  H   UNL     1      -3.412  -2.031  -0.578  0.00  0.00    +0.149 HD
ENDROOT
BRANCH   2   5
ATOM      5  C   UNL     1      -4.861  -2.871  -2.575  0.00  0.00    +0.163 A 
ATOM      6  C   UNL     1      -5.563  -3.284  -3.665  0.00  0.00    +0.230 A 
ATOM      7  O   UNL     1      -6.647  -3.933  -3.210  0.00  0.00    -0.447 OA
ATOM      8  C   UNL     1      -6.611  -3.919  -1.870  0.00  0.00    +0.197 A 
ATOM      9  N   UNL     1      -5.544  -3.291  -1.476  0.00  0.00    -0.208 NA
BRANCH   8  10
ATOM     10  C   UNL     1      -7.644  -4.538  -0.963  0.00  0.00    +0.058 C 
ATOM     11  C   UNL     1      -9.008  -3.896  -1.228  0.00  0.00    +0.009 C 
ATOM     12  C   UNL     1     -10.064  -4.586  -0.359  0.00  0.00    -0.018 C 
ATOM     13  C   UNL     1     -10.061  -6.087  -0.658  0.00  0.00    -0.083 C 
ATOM     14  N   UNL     1      -8.737  -6.647  -0.360  0.00  0.00    +0.380 N 
ATOM     15  C   UNL     1      -7.730  -6.041  -1.239  0.00  0.00    -0.070 C 
ATOM     16  H   UNL     1      -8.501  -6.454   0.602  0.00  0.00    -0.086 HD
ATOM     17  H   UNL     1      -8.754  -7.645  -0.506  0.00  0.00    -0.086 HD
ENDBRANCH   8  10
ENDBRANCH   2   5
BRANCH   1  18
ATOM     18  C   UNL     1      -1.745  -1.028  -1.429  0.00  0.00    +0.109 C 
BRANCH  18  19
ATOM     19  C   UNL     1      -1.293  -0.775   0.011  0.00  0.00    +0.054 C 
BRANCH  19  25
ATOM     20  C   UNL     1      -0.017   1.378   0.010  0.00  0.00    +0.005 A 
ATOM     21  C   UNL     1       1.171   2.086   0.002  0.00  0.00    +0.029 A 
ATOM     22  C   UNL     1       2.377   1.411  -0.013  0.00  0.00    +0.105 A 
ATOM     23  C   UNL     1       2.396   0.029  -0.020  0.00  0.00    +0.029 A 
ATOM     24  C   UNL     1       1.208  -0.679  -0.012  0.00  0.00    +0.005 A 
ATOM     25  C   UNL     1       0.002  -0.004   0.002  0.00  0.00    -0.046 A 
BRANCH  22  26
ATOM     26  S   UNL     1       3.891   2.312  -0.024  0.00  0.00    +0.056 S 
ATOM     27  O   UNL     1       4.872   1.453  -0.588  0.00  0.00    -0.153 OA
ATOM     28  O   UNL     1       3.597   3.593  -0.566  0.00  0.00    -0.153 OA
BRANCH  26  29
ATOM     29  N   UNL     1       4.327   2.556   1.555  0.00  0.00    -0.204 NA
ATOM     30  H   UNL     1       3.768   2.215   2.271  0.00  0.00    +0.144 HD
ATOM     31  H   UNL     1       5.142   3.039   1.764  0.00  0.00    +0.144 HD
ENDBRANCH  26  29
ENDBRANCH  22  26
ENDBRANCH  19  25
ENDBRANCH  18  19
ENDBRANCH   1  18
TORSDOF 7
