REMARK  Name = ZINC10041339
REMARK  9 active torsions:
REMARK  status: ('A' for Active; 'I' for Inactive)
REMARK    1  A    between atoms: C_1  and  C_2
REMARK    2  A    between atoms: C_2  and  C_3
REMARK    3  A    between atoms: C_2  and  C_4
REMARK    4  A    between atoms: C_4  and  C_6
REMARK    5  A    between atoms: C_4  and  N_18
REMARK    6  A    between atoms: N_8  and  N_9
REMARK    7  A    between atoms: C_10  and  C_11
REMARK    8  A    between atoms: C_14  and  O_17
REMARK    9  A    between atoms: C_19  and  C_21
REMARK                            x       y       z     vdW  Elec       q    Type
REMARK                         _______ _______ _______ _____ _____    ______ ____
ROOT
ATOM      1  C   UNL     1       1.220   2.053   0.127  0.00  0.00    +0.163 C 
ENDROOT
BRANCH   1   2
ATOM      2  C   UNL     1      -0.233   1.665   0.214  0.00  0.00    +0.253 C 
ATOM      3  O   UNL     1      -0.552   0.495   0.179  0.00  0.00    -0.272 OA
ATOM      4  N   UNL     1      -1.180   2.618   0.324  0.00  0.00    -0.205 N 
ATOM      5  H   UNL     1      -0.933   3.554   0.278  0.00  0.00    +0.177 HD
BRANCH   4   6
ATOM      6  N   UNL     1      -2.521   2.255   0.505  0.00  0.00    -0.188 NA
ATOM      7  C   UNL     1      -3.433   3.173   0.611  0.00  0.00    +0.138 C 
BRANCH   7   8
ATOM      8  C   UNL     1      -4.844   2.792   0.801  0.00  0.00    -0.005 A 
ATOM      9  C   UNL     1      -5.203   1.443   0.862  0.00  0.00    +0.013 A 
ATOM     10  C   UNL     1      -6.523   1.091   1.045  0.00  0.00    +0.046 A 
ATOM     11  C   UNL     1      -7.497   2.075   1.159  0.00  0.00    +0.117 A 
ATOM     12  C   UNL     1      -7.145   3.417   1.094  0.00  0.00    +0.046 A 
ATOM     13  C   UNL     1      -5.827   3.778   0.916  0.00  0.00    +0.013 A 
BRANCH  11  14
ATOM     14  O   UNL     1      -8.797   1.723   1.333  0.00  0.00    -0.507 OA
ATOM     15  H   UNL     1      -9.288   1.609   0.508  0.00  0.00    +0.292 HD
ENDBRANCH  11  14
ENDBRANCH   7   8
ENDBRANCH   4   6
ENDBRANCH   1   2
BRANCH   1  16
ATOM     16  N   UNL     1       2.056   0.892   0.445  0.00  0.00    -0.300 N 
ATOM     17  C   UNL     1       3.303   1.071   0.922  0.00  0.00    +0.246 C 
ATOM     18  O   UNL     1       3.736   2.195   1.089  0.00  0.00    -0.270 OA
ATOM     19  H   UNL     1       1.711  -0.005   0.313  0.00  0.00    +0.150 HD
BRANCH  17  20
ATOM     20  C   UNL     1       4.146  -0.100   1.244  0.00  0.00    +0.055 A 
ATOM     21  C   UNL     1       3.652  -1.392   1.054  0.00  0.00    +0.016 A 
ATOM     22  C   UNL     1       4.442  -2.481   1.355  0.00  0.00    +0.021 A 
ATOM     23  C   UNL     1       5.725  -2.295   1.846  0.00  0.00    +0.042 A 
ATOM     24  C   UNL     1       6.221  -1.017   2.037  0.00  0.00    +0.040 A 
ATOM     25  C   UNL     1       5.442   0.082   1.733  0.00  0.00    +0.054 A 
ATOM     26 CL   UNL     1       6.068   1.684   1.965  0.00  0.00    -0.083 Cl
ATOM     27 CL   UNL     1       6.714  -3.671   2.223  0.00  0.00    -0.083 Cl
ENDBRANCH  17  20
ENDBRANCH   1  16
BRANCH   1  29
ATOM     28  C   UNL     1       2.978   3.043  -1.347  0.00  0.00    +0.009 C 
ATOM     29  C   UNL     1       1.536   2.535  -1.290  0.00  0.00    +0.012 C 
ATOM     30  C   UNL     1       1.365   1.375  -2.273  0.00  0.00    +0.009 C 
ENDBRANCH   1  29
TORSDOF 7
