REMARK  Name = ZINC35615955
REMARK  7 active torsions:
REMARK  status: ('A' for Active; 'I' for Inactive)
REMARK    1  A    between atoms: C_1  and  C_2
REMARK    2  A    between atoms: C_9  and  C_19
REMARK    3  A    between atoms: C_10  and  N_11
REMARK    4  A    between atoms: N_11  and  C_12
REMARK    5  A    between atoms: C_22  and  O_27
REMARK    6  A    between atoms: C_23  and  O_25
REMARK    7  A    between atoms: O_25  and  C_26
REMARK                            x       y       z     vdW  Elec       q    Type
REMARK                         _______ _______ _______ _____ _____    ______ ____
ROOT
ATOM      1  C   UNL     1      -3.156   0.444   1.033  0.00  0.00    +0.044 C 
ATOM      2  C   UNL     1      -2.333  -0.789   0.759  0.00  0.00    -0.046 A 
ATOM      3  C   UNL     1      -2.642  -1.615  -0.336  0.00  0.00    +0.021 A 
ATOM      4  C   UNL     1      -1.909  -2.719  -0.585  0.00  0.00    +0.094 A 
ATOM      5  N   UNL     1      -0.856  -3.052   0.222  0.00  0.00    -0.289 N 
ATOM      6  C   UNL     1      -0.529  -2.263   1.301  0.00  0.00    +0.117 A 
ATOM      7  C   UNL     1      -1.286  -1.103   1.568  0.00  0.00    +0.048 A 
ATOM      8  N   UNL     1       0.516  -2.798   1.913  0.00  0.00    -0.338 N 
ATOM      9  C   UNL     1       0.885  -3.917   1.265  0.00  0.00    +0.087 A 
ATOM     10  C   UNL     1       0.032  -4.093   0.196  0.00  0.00    +0.133 A 
ATOM     11  H   UNL     1       0.947  -2.439   2.704  0.00  0.00    +0.167 HD
ENDROOT
BRANCH   9  12
ATOM     12  C   UNL     1       2.012  -4.806   1.635  0.00  0.00    +0.005 A 
ATOM     13  C   UNL     1       2.889  -5.267   0.654  0.00  0.00    +0.014 A 
ATOM     14  C   UNL     1       3.938  -6.094   0.999  0.00  0.00    +0.050 A 
ATOM     15  C   UNL     1       4.123  -6.468   2.321  0.00  0.00    +0.158 A 
ATOM     16  C   UNL     1       3.251  -6.011   3.306  0.00  0.00    +0.162 A 
ATOM     17  C   UNL     1       2.201  -5.177   2.966  0.00  0.00    +0.059 A 
BRANCH  16  18
ATOM     18  O   UNL     1       3.434  -6.380   4.602  0.00  0.00    -0.491 OA
ATOM     19  C   UNL     1       2.501  -5.874   5.559  0.00  0.00    +0.277 C 
ENDBRANCH  16  18
BRANCH  15  20
ATOM     20  O   UNL     1       5.158  -7.284   2.658  0.00  0.00    -0.503 OA
ATOM     21  H   UNL     1       5.973  -6.814   2.883  0.00  0.00    +0.292 HD
ENDBRANCH  15  20
ENDBRANCH   9  12
BRANCH  10  22
ATOM     22  N   UNL     1       0.066  -5.134  -0.733  0.00  0.00    -0.299 N 
ATOM     23  H   UNL     1      -0.259  -6.014  -0.488  0.00  0.00    +0.154 HD
BRANCH  22  24
ATOM     24  C   UNL     1       0.568  -4.907  -2.017  0.00  0.00    +0.032 A 
ATOM     25  C   UNL     1       1.159  -3.689  -2.329  0.00  0.00    +0.024 A 
ATOM     26  C   UNL     1       1.654  -3.469  -3.599  0.00  0.00    +0.017 A 
ATOM     27  C   UNL     1       1.562  -4.459  -4.560  0.00  0.00    +0.018 A 
ATOM     28  C   UNL     1       0.974  -5.673  -4.253  0.00  0.00    +0.017 A 
ATOM     29  C   UNL     1       0.482  -5.902  -2.983  0.00  0.00    +0.024 A 
ATOM     30 BR   UNL     1       2.242  -4.153  -6.298  0.00  0.00    -0.050 Br
ENDBRANCH  22  24
ENDBRANCH  10  22
TORSDOF 5
