REMARK  Name = ZINC36394309
REMARK  10 active torsions:
REMARK  status: ('A' for Active; 'I' for Inactive)
REMARK    1  A    between atoms: C_1  and  C_2
REMARK    2  A    between atoms: C_2  and  O_3
REMARK    3  A    between atoms: O_3  and  C_4
REMARK    4  A    between atoms: C_4  and  C_6
REMARK    5  A    between atoms: C_7  and  C_19
REMARK    6  A    between atoms: C_12  and  C_14
REMARK    7  A    between atoms: C_19  and  N_20
REMARK    8  A    between atoms: C_26  and  C_28
REMARK    9  A    between atoms: C_31  and  O_34
REMARK   10  A    between atoms: O_34  and  C_35
REMARK                            x       y       z     vdW  Elec       q    Type
REMARK                         _______ _______ _______ _____ _____    ______ ____
ROOT
ATOM      1  C   UNL     1      -0.677  -5.404   4.168  0.00  0.00    +0.079 C 
ATOM      2  C   UNL     1       0.441  -5.329   3.414  0.00  0.00    +0.008 C 
ATOM      3  N   UNL     1       1.618  -4.878   3.941  0.00  0.00    -0.274 N 
ATOM      4  C   UNL     1       1.758  -4.483   5.213  0.00  0.00    +0.304 C 
ATOM      5  O   UNL     1       2.847  -4.096   5.591  0.00  0.00    -0.252 OA
ATOM      6  N   UNL     1       0.733  -4.500   6.087  0.00  0.00    -0.285 N 
ATOM      7  C   UNL     1      -0.583  -4.964   5.615  0.00  0.00    +0.179 C 
ATOM      8  H   UNL     1       2.395  -4.842   3.362  0.00  0.00    +0.156 HD
ATOM      9  H   UNL     1       0.857  -4.209   7.004  0.00  0.00    +0.151 HD
ENDROOT
BRANCH   7  10
ATOM     10  C   UNL     1      -1.577  -3.853   5.829  0.00  0.00    +0.130 A 
ATOM     11  C   UNL     1      -2.791  -3.981   6.394  0.00  0.00    +0.047 A 
ATOM     12  C   UNL     1      -3.382  -2.697   6.393  0.00  0.00    +0.041 A 
ATOM     13  C   UNL     1      -2.494  -1.860   5.826  0.00  0.00    +0.195 A 
ATOM     14  O   UNL     1      -1.401  -2.565   5.491  0.00  0.00    -0.466 OA
ENDBRANCH   7  10
BRANCH   1  15
ATOM     15  C   UNL     1      -1.896  -5.871   3.623  0.00  0.00    +0.339 C 
ATOM     16  O   UNL     1      -1.984  -6.093   2.430  0.00  0.00    -0.245 OA
BRANCH  15  17
ATOM     17  O   UNL     1      -2.962  -6.070   4.427  0.00  0.00    -0.462 OA
BRANCH  17  19
ATOM     18  C   UNL     1      -5.250  -6.707   4.871  0.00  0.00    +0.048 C 
ATOM     19  C   UNL     1      -4.160  -6.542   3.809  0.00  0.00    +0.229 C 
ENDBRANCH  17  19
ENDBRANCH  15  17
ENDBRANCH   1  15
BRANCH   2  20
ATOM     20  C   UNL     1       0.391  -5.752   1.969  0.00  0.00    -0.026 C 
BRANCH  20  21
ATOM     21  N   UNL     1       1.739  -6.121   1.519  0.00  0.00    +0.388 N 
ATOM     22  C   UNL     1       2.226  -7.253   2.337  0.00  0.00    -0.077 C 
ATOM     23  C   UNL     1       3.413  -8.002   1.706  0.00  0.00    -0.019 C 
ATOM     24  C   UNL     1       4.448  -7.090   1.103  0.00  0.00    -0.002 C 
ATOM     25  C   UNL     1       4.105  -6.862  -0.390  0.00  0.00    -0.001 C 
ATOM     26  C   UNL     1       2.986  -5.939  -0.535  0.00  0.00    -0.011 C 
ATOM     27  C   UNL     1       1.692  -6.453   0.115  0.00  0.00    -0.037 C 
ATOM     28  H   UNL     1       2.356  -5.334   1.649  0.00  0.00    -0.080 HD
BRANCH  27  29
ATOM     29  C   UNL     1       0.500  -5.789  -0.526  0.00  0.00    -0.061 A 
ATOM     30  C   UNL     1       0.447  -4.410  -0.619  0.00  0.00    +0.005 A 
ATOM     31  C   UNL     1      -0.644  -3.799  -1.206  0.00  0.00    +0.046 A 
ATOM     32  C   UNL     1      -1.686  -4.569  -1.702  0.00  0.00    +0.120 A 
ATOM     33  C   UNL     1      -1.630  -5.952  -1.607  0.00  0.00    +0.046 A 
ATOM     34  C   UNL     1      -0.534  -6.559  -1.024  0.00  0.00    +0.005 A 
BRANCH  32  35
ATOM     35  O   UNL     1      -2.761  -3.970  -2.279  0.00  0.00    -0.495 OA
ATOM     36  C   UNL     1      -3.796  -4.825  -2.767  0.00  0.00    +0.277 C 
ENDBRANCH  32  35
ENDBRANCH  27  29
ENDBRANCH  20  21
ENDBRANCH   2  20
TORSDOF 8
