REMARK  Name = ZINC59564945
REMARK  12 active torsions:
REMARK  status: ('A' for Active; 'I' for Inactive)
REMARK    1  A    between atoms: C_1  and  C_2
REMARK    2  A    between atoms: C_2  and  C_3
REMARK    3  A    between atoms: C_3  and  C_32
REMARK    4  A    between atoms: N_5  and  C_26
REMARK    5  A    between atoms: C_6  and  S_8
REMARK    6  A    between atoms: S_8  and  C_9
REMARK    7  A    between atoms: C_9  and  C_10
REMARK    8  A    between atoms: N_12  and  C_13
REMARK    9  A    between atoms: C_14  and  C_21
REMARK   10  A    between atoms: C_21  and  O_23
REMARK   11  A    between atoms: O_23  and  C_24
REMARK   12  A    between atoms: C_24  and  C_25
REMARK                            x       y       z     vdW  Elec       q    Type
REMARK                         _______ _______ _______ _____ _____    ______ ____
ROOT
ATOM      1  C   UNL     1      -2.142   0.548   4.252  0.00  0.00    +0.173 C 
ENDROOT
BRANCH   1   2
ATOM      2  C   UNL     1      -2.334   0.685   5.741  0.00  0.00    +0.228 C 
ATOM      3  O   UNL     1      -2.555  -0.298   6.416  0.00  0.00    -0.275 OA
ATOM      4  N   UNL     1      -2.261   1.899   6.321  0.00  0.00    -0.279 N 
ATOM      5  H   UNL     1      -2.084   2.685   5.780  0.00  0.00    +0.155 HD
BRANCH   4   6
ATOM      6  C   UNL     1      -2.437   2.025   7.690  0.00  0.00    +0.086 A 
ATOM      7  C   UNL     1      -2.402   3.180   8.450  0.00  0.00    +0.091 A 
ATOM      8  C   UNL     1      -2.621   3.042   9.889  0.00  0.00    -0.021 A 
ATOM      9  C   UNL     1      -2.832   1.776  10.293  0.00  0.00    -0.004 A 
ATOM     10  S   UNL     1      -2.751   0.812   8.805  0.00  0.00    -0.077 S 
ATOM     11  C   UNL     1      -3.047   1.690  11.780  0.00  0.00    +0.043 C 
ATOM     12  C   UNL     1      -2.517   3.034  12.329  0.00  0.00    +0.010 C 
ATOM     13  C   UNL     1      -2.683   3.961  11.107  0.00  0.00    +0.037 C 
BRANCH   7  14
ATOM     14  C   UNL     1      -2.155   4.488   7.838  0.00  0.00    +0.342 C 
ATOM     15  O   UNL     1      -3.088   5.158   7.439  0.00  0.00    -0.245 OA
BRANCH  14  16
ATOM     16  O   UNL     1      -0.893   4.948   7.718  0.00  0.00    -0.461 OA
BRANCH  16  17
ATOM     17  C   UNL     1      -0.727   6.232   7.112  0.00  0.00    +0.229 C 
ATOM     18  C   UNL     1       0.762   6.583   7.062  0.00  0.00    +0.048 C 
ENDBRANCH  16  17
ENDBRANCH  14  16
ENDBRANCH   7  14
ENDBRANCH   4   6
ENDBRANCH   1   2
BRANCH   1  19
ATOM     19  S   UNL     1      -2.299  -1.197   3.780  0.00  0.00    -0.082 S 
BRANCH  19  23
ATOM     20  C   UNL     1      -1.671  -0.520  -0.068  0.00  0.00    +0.104 C 
ATOM     21  N   UNL     1      -1.860  -1.985  -0.055  0.00  0.00    -0.209 NA
ATOM     22  N   UNL     1      -2.086  -2.314   1.253  0.00  0.00    -0.213 N 
ATOM     23  C   UNL     1      -2.052  -1.190   2.035  0.00  0.00    +0.151 C 
ATOM     24  N   UNL     1      -1.817  -0.117   1.339  0.00  0.00    -0.348 N 
ATOM     25  C   UNL     1      -2.742   0.151  -0.929  0.00  0.00    +0.053 C 
ATOM     26  H   UNL     1      -2.640  -2.254  -0.635  0.00  0.00    +0.147 HD
ATOM     27  H   UNL     1      -1.751   0.786   1.685  0.00  0.00    +0.163 HD
BRANCH  22  28
ATOM     28  C   UNL     1      -2.318  -3.610   1.724  0.00  0.00    +0.052 A 
ATOM     29  C   UNL     1      -3.383  -3.859   2.580  0.00  0.00    +0.025 A 
ATOM     30  C   UNL     1      -3.610  -5.141   3.043  0.00  0.00    +0.002 A 
ATOM     31  C   UNL     1      -2.778  -6.175   2.655  0.00  0.00    +0.000 A 
ATOM     32  C   UNL     1      -1.717  -5.930   1.803  0.00  0.00    +0.002 A 
ATOM     33  C   UNL     1      -1.488  -4.652   1.331  0.00  0.00    +0.025 A 
ENDBRANCH  22  28
BRANCH  20  35
ATOM     34  C   UNL     1      -0.071   1.348  -0.505  0.00  0.00    +0.007 C 
ATOM     35  C   UNL     1      -0.274  -0.167  -0.582  0.00  0.00    +0.042 C 
ENDBRANCH  20  35
ENDBRANCH  19  23
ENDBRANCH   1  19
TORSDOF 9
