REMARK  Name = ZINC16611390
REMARK  10 active torsions:
REMARK  status: ('A' for Active; 'I' for Inactive)
REMARK    1  A    between atoms: C_1  and  C_2
REMARK    2  A    between atoms: C_2  and  CA_3
REMARK    3  A    between atoms: CA_3  and  C_5
REMARK    4  A    between atoms: CA_3  and  N_43
REMARK    5  A    between atoms: C_5  and  O_6
REMARK    6  A    between atoms: C_7  and  C_8
REMARK    7  A    between atoms: C_7  and  N_43
REMARK    8  A    between atoms: C_13  and  O_14
REMARK    9  A    between atoms: O_14  and  C_15
REMARK   10  A    between atoms: C_15  and  C_16
REMARK                            x       y       z     vdW  Elec       q    Type
REMARK                         _______ _______ _______ _____ _____    ______ ____
ROOT
ATOM      1  C   UNL     1      -0.815   1.633  -3.525  0.00  0.00    -0.022 A 
ATOM      2  C   UNL     1      -0.295   1.274  -4.754  0.00  0.00    +0.020 A 
ATOM      3  C   UNL     1       0.844   0.492  -4.822  0.00  0.00    +0.018 A 
ATOM      4  C   UNL     1       1.465   0.067  -3.661  0.00  0.00    +0.019 A 
ATOM      5  C   UNL     1       0.951   0.428  -2.431  0.00  0.00    +0.047 A 
ATOM      6  C   UNL     1      -0.194   1.208  -2.360  0.00  0.00    +0.122 A 
ATOM      7 BR   UNL     1       1.553   0.002  -6.505  0.00  0.00    -0.050 Br
ENDROOT
BRANCH   1   8
ATOM      8  C   UNL     1      -2.056   2.484  -3.451  0.00  0.00    -0.043 C 
BRANCH   8   9
ATOM      9  N   UNL     1      -1.667   3.883  -3.186  0.00  0.00    +0.385 N 
ATOM     10  H1  UNL     1      -1.158   3.930  -2.296  0.00  0.00    -0.085 HD
ATOM     11  H2  UNL     1      -1.061   4.215  -3.946  0.00  0.00    -0.085 HD
BRANCH   9  12
ATOM     12  CA  UNL     1      -2.864   4.741  -3.108  0.00  0.00    -0.046 C 
BRANCH  12  14
ATOM     13  C   UNL     1      -2.022   6.245  -4.917  0.00  0.00    +0.002 C 
ATOM     14  C   UNL     1      -2.474   6.179  -3.457  0.00  0.00    -0.017 C 
ENDBRANCH  12  14
BRANCH  12  15
ATOM     15  C   UNL     1      -3.433   4.696  -1.689  0.00  0.00    +0.140 C 
BRANCH  15  16
ATOM     16  O   UNL     1      -2.490   5.267  -0.780  0.00  0.00    -0.397 OA
ATOM     17  H   UNL     1      -2.785   5.272   0.141  0.00  0.00    +0.209 HD
ENDBRANCH  15  16
ENDBRANCH  12  15
ENDBRANCH   9  12
ENDBRANCH   8   9
ENDBRANCH   1   8
BRANCH   6  18
ATOM     18  O   UNL     1      -0.704   1.559  -1.150  0.00  0.00    -0.487 OA
BRANCH  18  19
ATOM     19  C   UNL     1      -0.013   1.086   0.008  0.00  0.00    +0.266 C 
BRANCH  19  20
ATOM     20  C   UNL     1      -0.718   1.572   1.248  0.00  0.00    +0.008 A 
ATOM     21  C   UNL     1      -1.854   2.352   1.136  0.00  0.00    +0.010 A 
ATOM     22  C   UNL     1      -2.502   2.798   2.272  0.00  0.00    +0.020 A 
ATOM     23  C   UNL     1      -2.013   2.463   3.523  0.00  0.00    +0.042 A 
ATOM     24  C   UNL     1      -0.877   1.683   3.636  0.00  0.00    +0.040 A 
ATOM     25  C   UNL     1      -0.232   1.232   2.498  0.00  0.00    +0.049 A 
ATOM     26 CL   UNL     1       1.190   0.247   2.638  0.00  0.00    -0.083 Cl
ATOM     27 CL   UNL     1      -2.827   3.024   4.951  0.00  0.00    -0.083 Cl
ENDBRANCH  19  20
ENDBRANCH  18  19
ENDBRANCH   6  18
TORSDOF 9
