REMARK  Name = ZINC39653505
REMARK  10 active torsions:
REMARK  status: ('A' for Active; 'I' for Inactive)
REMARK    1  A    between atoms: C_1  and  C_2
REMARK    2  A    between atoms: C_2  and  O_3
REMARK    3  A    between atoms: O_3  and  C_4
REMARK    4  A    between atoms: C_6  and  C_12
REMARK    5  A    between atoms: C_9  and  O_10
REMARK    6  A    between atoms: O_10  and  C_11
REMARK    7  A    between atoms: C_12  and  C_13
REMARK    8  A    between atoms: C_13  and  N_14
REMARK    9  A    between atoms: C_15  and  C_17
REMARK   10  A    between atoms: C_28  and  C_30
REMARK                            x       y       z     vdW  Elec       q    Type
REMARK                         _______ _______ _______ _____ _____    ______ ____
ROOT
ATOM      1  C   UNL     1       4.549  -7.331   2.543  0.00  0.00    +0.100 C 
ATOM      2  C   UNL     1       3.980  -8.651   1.976  0.00  0.00    +0.121 C 
ATOM      3  N   UNL     1       4.585  -9.711   2.815  0.00  0.00    -0.296 N 
ATOM      4  C   UNL     1       4.577  -9.147   4.186  0.00  0.00    +0.115 C 
ATOM      5  C   UNL     1       4.939  -7.661   3.994  0.00  0.00    -0.004 C 
ATOM      6  C   UNL     1       6.437  -7.453   4.199  0.00  0.00    -0.010 C 
ATOM      7  C   UNL     1       6.791  -7.732   5.662  0.00  0.00    -0.082 C 
ATOM      8  N   UNL     1       6.027  -6.830   6.533  0.00  0.00    +0.379 N 
ATOM      9  C   UNL     1       4.591  -7.101   6.398  0.00  0.00    -0.082 C 
ATOM     10  C   UNL     1       4.144  -6.795   4.966  0.00  0.00    -0.010 C 
ATOM     11  C   UNL     1       5.041 -10.917   2.421  0.00  0.00    +0.248 C 
ATOM     12  O   UNL     1       5.428 -11.721   3.248  0.00  0.00    -0.270 OA
ATOM     13  H   UNL     1       6.306  -6.974   7.492  0.00  0.00    -0.086 HD
ATOM     14  H   UNL     1       6.214  -5.874   6.271  0.00  0.00    -0.086 HD
ENDROOT
BRANCH  11  15
ATOM     15  C   UNL     1       5.070 -11.260   0.994  0.00  0.00    +0.052 A 
ATOM     16  C   UNL     1       4.112 -10.805   0.144  0.00  0.00    +0.059 A 
ATOM     17  S   UNL     1       4.521 -11.423  -1.361  0.00  0.00    -0.096 S 
ATOM     18  C   UNL     1       5.990 -12.320  -0.943  0.00  0.00    +0.020 A 
ATOM     19  C   UNL     1       6.136 -12.098   0.440  0.00  0.00    +0.001 A 
ATOM     20  C   UNL     1       7.242 -12.693   1.076  0.00  0.00    +0.010 A 
ATOM     21  C   UNL     1       8.132 -13.451   0.356  0.00  0.00    +0.001 A 
ATOM     22  C   UNL     1       7.969 -13.650  -1.007  0.00  0.00    +0.001 A 
ATOM     23  C   UNL     1       6.887 -13.087  -1.655  0.00  0.00    +0.015 A 
ENDBRANCH  11  15
BRANCH   1  25
ATOM     24  N   UNL     1       3.864  -4.959   2.395  0.00  0.00    -0.315 N 
ATOM     25  C   UNL     1       3.499  -6.251   2.515  0.00  0.00    +0.218 C 
ATOM     26  O   UNL     1       2.325  -6.544   2.601  0.00  0.00    -0.275 OA
ATOM     27  H   UNL     1       4.802  -4.725   2.327  0.00  0.00    +0.149 HD
BRANCH  24  28
ATOM     28  C   UNL     1       2.842  -3.909   2.368  0.00  0.00    +0.109 C 
BRANCH  28  29
ATOM     29  C   UNL     1       3.518  -2.544   2.226  0.00  0.00    +0.054 C 
BRANCH  29  32
ATOM     30  C   UNL     1       1.085   0.117   3.353  0.00  0.00    +0.162 A 
ATOM     31  C   UNL     1       2.050  -0.876   3.377  0.00  0.00    +0.053 A 
ATOM     32  C   UNL     1       2.468  -1.464   2.198  0.00  0.00    -0.042 A 
ATOM     33  C   UNL     1       1.924  -1.062   0.992  0.00  0.00    +0.007 A 
ATOM     34  C   UNL     1       0.960  -0.071   0.961  0.00  0.00    +0.049 A 
ATOM     35  C   UNL     1       0.533   0.517   2.140  0.00  0.00    +0.162 A 
BRANCH  35  36
ATOM     36  O   UNL     1      -0.419   1.488   2.112  0.00  0.00    -0.491 OA
ATOM     37  C   UNL     1      -0.941   1.848   0.831  0.00  0.00    +0.277 C 
ENDBRANCH  35  36
BRANCH  30  38
ATOM     38  O   UNL     1       0.673   0.695   4.513  0.00  0.00    -0.489 OA
BRANCH  38  40
ATOM     39  C   UNL     1       0.697   0.995   6.911  0.00  0.00    +0.048 C 
ATOM     40  C   UNL     1       1.283   0.234   5.721  0.00  0.00    +0.226 C 
ENDBRANCH  38  40
ENDBRANCH  30  38
ENDBRANCH  29  32
ENDBRANCH  28  29
ENDBRANCH  24  28
ENDBRANCH   1  25
TORSDOF 8
