REMARK  Name = ZINC39638527
REMARK  7 active torsions:
REMARK  status: ('A' for Active; 'I' for Inactive)
REMARK    1  A    between atoms: C_1  and  C_2
REMARK    2  A    between atoms: C_2  and  O_3
REMARK    3  A    between atoms: O_3  and  C_4
REMARK    4  A    between atoms: C_9  and  C_10
REMARK    5  A    between atoms: C_10  and  N_11
REMARK    6  A    between atoms: C_12  and  C_14
REMARK    7  A    between atoms: C_25  and  C_27
REMARK                            x       y       z     vdW  Elec       q    Type
REMARK                         _______ _______ _______ _____ _____    ______ ____
ROOT
ATOM      1  C   UNL     1       4.761   0.888  -3.290  0.00  0.00    +0.100 C 
ATOM      2  C   UNL     1       4.881   1.661  -1.957  0.00  0.00    +0.121 C 
ATOM      3  N   UNL     1       5.940   2.668  -2.203  0.00  0.00    -0.296 N 
ATOM      4  C   UNL     1       5.693   3.132  -3.589  0.00  0.00    +0.115 C 
ATOM      5  C   UNL     1       5.293   1.857  -4.358  0.00  0.00    -0.004 C 
ATOM      6  C   UNL     1       4.201   2.175  -5.375  0.00  0.00    -0.010 C 
ATOM      7  C   UNL     1       4.771   3.093  -6.460  0.00  0.00    -0.082 C 
ATOM      8  N   UNL     1       5.904   2.431  -7.119  0.00  0.00    +0.379 N 
ATOM      9  C   UNL     1       6.987   2.213  -6.153  0.00  0.00    -0.082 C 
ATOM     10  C   UNL     1       6.511   1.257  -5.055  0.00  0.00    -0.010 C 
ATOM     11  C   UNL     1       6.910   3.070  -1.358  0.00  0.00    +0.247 C 
ATOM     12  O   UNL     1       7.064   2.502  -0.294  0.00  0.00    -0.270 OA
ATOM     13  H   UNL     1       5.602   1.543  -7.490  0.00  0.00    -0.086 HD
ATOM     14  H   UNL     1       6.239   3.012  -7.873  0.00  0.00    -0.086 HD
ENDROOT
BRANCH  11  15
ATOM     15  C   UNL     1       7.786   4.202  -1.724  0.00  0.00    +0.038 A 
ATOM     16  C   UNL     1       7.377   5.121  -2.693  0.00  0.00    +0.014 A 
ATOM     17  C   UNL     1       8.198   6.176  -3.031  0.00  0.00    +0.022 A 
ATOM     18  C   UNL     1       9.428   6.325  -2.412  0.00  0.00    +0.059 A 
ATOM     19  C   UNL     1       9.841   5.417  -1.450  0.00  0.00    +0.060 A 
ATOM     20  C   UNL     1       9.024   4.361  -1.099  0.00  0.00    +0.034 A 
ATOM     21 CL   UNL     1      11.384   5.612  -0.679  0.00  0.00    -0.082 Cl
ATOM     22 CL   UNL     1      10.457   7.655  -2.844  0.00  0.00    -0.082 Cl
ENDBRANCH  11  15
BRANCH   1  24
ATOM     23  N   UNL     1       3.017  -0.571  -4.265  0.00  0.00    -0.311 N 
ATOM     24  C   UNL     1       3.320   0.541  -3.567  0.00  0.00    +0.218 C 
ATOM     25  O   UNL     1       2.434   1.263  -3.162  0.00  0.00    -0.275 OA
ATOM     26  H   UNL     1       3.726  -1.149  -4.589  0.00  0.00    +0.149 HD
BRANCH  23  27
ATOM     27  C   UNL     1       1.617  -0.908  -4.534  0.00  0.00    +0.143 C 
BRANCH  27  33
ATOM     28  C   UNL     1       1.685  -3.410  -4.681  0.00  0.00    +0.125 A 
ATOM     29  C   UNL     1       1.619  -4.588  -5.412  0.00  0.00    +0.046 A 
ATOM     30  C   UNL     1       1.427  -4.542  -6.779  0.00  0.00    +0.004 A 
ATOM     31  C   UNL     1       1.299  -3.323  -7.419  0.00  0.00    +0.001 A 
ATOM     32  C   UNL     1       1.365  -2.148  -6.694  0.00  0.00    +0.009 A 
ATOM     33  C   UNL     1       1.552  -2.189  -5.325  0.00  0.00    +0.011 A 
BRANCH  28  34
ATOM     34  O   UNL     1       1.875  -3.453  -3.336  0.00  0.00    -0.492 OA
BRANCH  34  36
ATOM     35  C   UNL     1       2.209  -4.593  -1.232  0.00  0.00    +0.048 C 
ATOM     36  C   UNL     1       2.004  -4.746  -2.740  0.00  0.00    +0.225 C 
ENDBRANCH  34  36
ENDBRANCH  28  34
ENDBRANCH  27  33
ENDBRANCH  23  27
ENDBRANCH   1  24
TORSDOF 6
