REMARK  Name = ZINC36610088
REMARK  10 active torsions:
REMARK  status: ('A' for Active; 'I' for Inactive)
REMARK    1  A    between atoms: C_1  and  C_2
REMARK    2  A    between atoms: C_2  and  C_4
REMARK    3  A    between atoms: C_2  and  C_10
REMARK    4  A    between atoms: C_10  and  C_12
REMARK    5  A    between atoms: C_10  and  N_21
REMARK    6  A    between atoms: N_14  and  C_15
REMARK    7  A    between atoms: N_21  and  C_22
REMARK    8  A    between atoms: C_28  and  C_30
REMARK    9  A    between atoms: C_31  and  O_37
REMARK   10  A    between atoms: C_35  and  O_36
REMARK                            x       y       z     vdW  Elec       q    Type
REMARK                         _______ _______ _______ _____ _____    ______ ____
ROOT
ATOM      1  C   UNL     1      -1.029  -0.296   0.418  0.00  0.00    +0.174 C 
ENDROOT
BRANCH   1   2
ATOM      2  C   UNL     1      -1.534  -0.000  -0.971  0.00  0.00    +0.235 C 
ATOM      3  O   UNL     1      -1.655  -0.899  -1.776  0.00  0.00    -0.274 OA
ATOM      4  N   UNL     1      -1.851   1.263  -1.317  0.00  0.00    -0.311 N 
ATOM      5  H   UNL     1      -1.690   1.991  -0.697  0.00  0.00    +0.149 HD
BRANCH   4   6
ATOM      6  C   UNL     1      -2.441   1.536  -2.630  0.00  0.00    +0.073 C 
ATOM      7  C   UNL     1      -1.326   1.688  -3.668  0.00  0.00    +0.022 C 
ATOM      8  C   UNL     1      -1.942   1.973  -5.039  0.00  0.00    +0.002 C 
ATOM      9  C   UNL     1      -2.756   3.266  -4.973  0.00  0.00    +0.000 C 
ATOM     10  C   UNL     1      -3.871   3.115  -3.936  0.00  0.00    +0.002 C 
ATOM     11  C   UNL     1      -3.255   2.830  -2.564  0.00  0.00    +0.022 C 
ENDBRANCH   4   6
ENDBRANCH   1   2
BRANCH   1  12
ATOM     12  N   UNL     1      -1.193  -1.724   0.703  0.00  0.00    -0.255 N 
ATOM     13  C   UNL     1      -1.873  -2.119   1.798  0.00  0.00    +0.259 C 
ATOM     14  O   UNL     1      -2.406  -1.292   2.514  0.00  0.00    -0.269 OA
BRANCH  12  15
ATOM     15  C   UNL     1      -0.644  -2.677  -0.160  0.00  0.00    +0.037 A 
ATOM     16  C   UNL     1      -1.469  -3.412  -1.002  0.00  0.00    +0.023 A 
ATOM     17  C   UNL     1      -0.924  -4.352  -1.853  0.00  0.00    +0.002 A 
ATOM     18  C   UNL     1       0.443  -4.563  -1.869  0.00  0.00    +0.000 A 
ATOM     19  C   UNL     1       1.268  -3.834  -1.032  0.00  0.00    +0.002 A 
ATOM     20  C   UNL     1       0.729  -2.887  -0.182  0.00  0.00    +0.023 A 
ENDBRANCH  12  15
BRANCH  13  21
ATOM     21  C   UNL     1      -1.970  -3.550   2.127  0.00  0.00    +0.120 A 
ATOM     22  C   UNL     1      -0.944  -4.181   2.845  0.00  0.00    +0.133 A 
ATOM     23  C   UNL     1      -1.046  -5.529   3.150  0.00  0.00    +0.046 A 
ATOM     24  C   UNL     1      -2.155  -6.251   2.750  0.00  0.00    +0.007 A 
ATOM     25  C   UNL     1      -3.172  -5.639   2.042  0.00  0.00    +0.046 A 
ATOM     26  C   UNL     1      -3.093  -4.291   1.731  0.00  0.00    +0.133 A 
BRANCH  26  27
ATOM     27  O   UNL     1      -4.096  -3.692   1.041  0.00  0.00    -0.506 OA
ATOM     28  H   UNL     1      -4.041  -3.814   0.083  0.00  0.00    +0.292 HD
ENDBRANCH  26  27
BRANCH  22  29
ATOM     29  O   UNL     1       0.145  -3.475   3.239  0.00  0.00    -0.506 OA
ATOM     30  H   UNL     1       0.056  -3.067   4.111  0.00  0.00    +0.292 HD
ENDBRANCH  22  29
ENDBRANCH  13  21
ENDBRANCH   1  12
BRANCH   1  32
ATOM     31  C   UNL     1       0.638   1.538   0.101  0.00  0.00    +0.015 C 
ATOM     32  C   UNL     1       0.452   0.076   0.512  0.00  0.00    +0.046 C 
BRANCH  32  33
ATOM     33  C   UNL     1       0.929  -0.112   1.929  0.00  0.00    -0.042 A 
ATOM     34  C   UNL     1       0.248   0.487   2.972  0.00  0.00    +0.004 A 
ATOM     35  C   UNL     1       0.684   0.315   4.272  0.00  0.00    +0.000 A 
ATOM     36  C   UNL     1       1.802  -0.457   4.529  0.00  0.00    +0.000 A 
ATOM     37  C   UNL     1       2.483  -1.057   3.486  0.00  0.00    +0.000 A 
ATOM     38  C   UNL     1       2.043  -0.888   2.187  0.00  0.00    +0.004 A 
ENDBRANCH  32  33
ENDBRANCH   1  32
TORSDOF 9
