REMARK  Name = ZINC17877683
REMARK  14 active torsions:
REMARK  status: ('A' for Active; 'I' for Inactive)
REMARK    1  A    between atoms: C_1  and  C_2
REMARK    2  A    between atoms: C_2  and  N_3
REMARK    3  A    between atoms: C_2  and  C_39
REMARK    4  A    between atoms: N_7  and  N_8
REMARK    5  A    between atoms: C_9  and  C_11
REMARK    6  A    between atoms: C_11  and  C_12
REMARK    7  A    between atoms: C_12  and  C_13
REMARK    8  A    between atoms: C_13  and  C_14
REMARK    9  A    between atoms: C_14  and  C_15
REMARK   10  A    between atoms: C_15  and  C_16
REMARK   11  A    between atoms: N_18  and  N_19
REMARK   12  A    between atoms: N_23  and  C_30
REMARK   13  A    between atoms: C_30  and  C_31
REMARK   14  A    between atoms: C_30  and  C_32
REMARK                            x       y       z     vdW  Elec       q    Type
REMARK                         _______ _______ _______ _____ _____    ______ ____
ROOT
ATOM      1  C   UNL     1       3.542  -3.881   9.712  0.00  0.00    +0.001 C 
ENDROOT
BRANCH   1   2
ATOM      2  C   UNL     1       2.584  -2.987   8.922  0.00  0.00    +0.009 C 
BRANCH   2   3
ATOM      3  C   UNL     1       2.733  -3.278   7.427  0.00  0.00    +0.097 C 
BRANCH   3   5
ATOM      4  N   UNL     1       1.746  -2.480   5.304  0.00  0.00    -0.206 N 
ATOM      5  C   UNL     1       1.789  -2.397   6.648  0.00  0.00    +0.232 C 
ATOM      6  O   UNL     1       1.069  -1.615   7.231  0.00  0.00    -0.274 OA
ATOM      7  H   UNL     1       2.322  -3.105   4.837  0.00  0.00    +0.177 HD
BRANCH   4  12
ATOM      8  N   UNL     1       0.104  -1.508   1.117  0.00  0.00    -0.263 N 
ATOM      9  C   UNL     1      -0.031  -0.983   2.346  0.00  0.00    +0.272 C 
ATOM     10  O   UNL     1      -0.675   0.009   2.635  0.00  0.00    -0.268 OA
ATOM     11  C   UNL     1       0.738  -1.824   3.286  0.00  0.00    +0.153 C 
ATOM     12  N   UNL     1       0.869  -1.661   4.580  0.00  0.00    -0.175 NA
ATOM     13  C   UNL     1       1.330  -2.892   2.446  0.00  0.00    +0.028 A 
ATOM     14  C   UNL     1       0.902  -2.647   1.135  0.00  0.00    +0.046 A 
ATOM     15  C   UNL     1       1.306  -3.507   0.121  0.00  0.00    +0.024 A 
ATOM     16  C   UNL     1       2.114  -4.588   0.410  0.00  0.00    +0.002 A 
ATOM     17  C   UNL     1       2.531  -4.829   1.708  0.00  0.00    +0.001 A 
ATOM     18  C   UNL     1       2.148  -3.980   2.727  0.00  0.00    +0.012 A 
BRANCH   8  20
ATOM     19  C   UNL     1      -0.010   0.475  -0.311  0.00  0.00    +0.028 C 
ATOM     20  C   UNL     1      -0.514  -0.953  -0.090  0.00  0.00    +0.076 C 
ATOM     21  C   UNL     1      -2.035  -0.936   0.078  0.00  0.00    +0.028 C 
ENDBRANCH   8  20
ENDBRANCH   4  12
ENDBRANCH   3   5
ENDBRANCH   2   3
ENDBRANCH   1   2
BRANCH   1  22
ATOM     22  C   UNL     1       3.393  -3.591  11.207  0.00  0.00    +0.009 C 
BRANCH  22  23
ATOM     23  C   UNL     1       4.351  -4.484  11.998  0.00  0.00    +0.097 C 
BRANCH  23  24
ATOM     24  C   UNL     1       4.205  -4.199  13.470  0.00  0.00    +0.232 C 
ATOM     25  O   UNL     1       3.413  -3.363  13.850  0.00  0.00    -0.274 OA
ATOM     26  N   UNL     1       4.955  -4.872  14.365  0.00  0.00    -0.206 N 
ATOM     27  H   UNL     1       5.589  -5.541  14.061  0.00  0.00    +0.177 HD
BRANCH  26  28
ATOM     28  N   UNL     1       4.819  -4.607  15.734  0.00  0.00    -0.175 NA
ATOM     29  C   UNL     1       5.630  -5.172  16.595  0.00  0.00    +0.153 C 
ATOM     30  C   UNL     1       5.555  -5.120  18.069  0.00  0.00    +0.272 C 
ATOM     31  O   UNL     1       4.713  -4.532  18.723  0.00  0.00    -0.268 OA
ATOM     32  N   UNL     1       6.581  -5.835  18.560  0.00  0.00    -0.263 N 
ATOM     33  C   UNL     1       7.357  -6.377  17.541  0.00  0.00    +0.046 A 
ATOM     34  C   UNL     1       6.817  -6.008  16.302  0.00  0.00    +0.028 A 
ATOM     35  C   UNL     1       7.413  -6.434  15.120  0.00  0.00    +0.012 A 
ATOM     36  C   UNL     1       8.542  -7.227  15.170  0.00  0.00    +0.001 A 
ATOM     37  C   UNL     1       9.077  -7.596  16.392  0.00  0.00    +0.002 A 
ATOM     38  C   UNL     1       8.497  -7.172  17.571  0.00  0.00    +0.024 A 
BRANCH  32  39
ATOM     39  C   UNL     1       6.849  -6.021  19.988  0.00  0.00    +0.076 C 
ATOM     40  C   UNL     1       7.080  -4.659  20.645  0.00  0.00    +0.028 C 
ATOM     41  C   UNL     1       5.651  -6.708  20.646  0.00  0.00    +0.028 C 
ENDBRANCH  32  39
ENDBRANCH  26  28
ENDBRANCH  23  24
ENDBRANCH  22  23
ENDBRANCH   1  22
TORSDOF 10
