REMARK  Name = ZINC66906102
REMARK  8 active torsions:
REMARK  status: ('A' for Active; 'I' for Inactive)
REMARK    1  A    between atoms: C_1  and  N_2
REMARK    2  A    between atoms: C_4  and  C_16
REMARK    3  A    between atoms: C_5  and  C_7
REMARK    4  A    between atoms: C_10  and  N_13
REMARK    5  A    between atoms: C_16  and  N_17
REMARK    6  A    between atoms: N_17  and  C_18
REMARK    7  A    between atoms: C_18  and  C_19
REMARK    8  A    between atoms: C_19  and  O_29
REMARK                            x       y       z     vdW  Elec       q    Type
REMARK                         _______ _______ _______ _____ _____    ______ ____
ROOT
ATOM      1  C   UNL     1      -0.501  -3.301  -1.502  0.00  0.00    -0.043 C 
ENDROOT
BRANCH   1   5
ATOM      2  C   UNL     1       0.800   0.366   1.657  0.00  0.00    +0.172 C 
ATOM      3  N   UNL     1       0.272  -0.343   0.489  0.00  0.00    -0.274 N 
ATOM      4  C   UNL     1       0.278  -1.680   0.304  0.00  0.00    +0.110 A 
ATOM      5  C   UNL     1      -0.297  -1.938  -0.891  0.00  0.00    -0.019 A 
ATOM      6  C   UNL     1      -0.671  -0.708  -1.465  0.00  0.00    +0.094 A 
ATOM      7  N   UNL     1      -0.332   0.249  -0.627  0.00  0.00    -0.171 NA
BRANCH   6   8
ATOM      8  C   UNL     1      -1.337  -0.523  -2.779  0.00  0.00    +0.002 A 
ATOM      9  C   UNL     1      -0.929  -1.272  -3.880  0.00  0.00    +0.012 A 
ATOM     10  C   UNL     1      -1.552  -1.097  -5.100  0.00  0.00    +0.033 A 
ATOM     11  C   UNL     1      -2.578  -0.179  -5.229  0.00  0.00    +0.126 A 
ATOM     12  C   UNL     1      -2.987   0.567  -4.138  0.00  0.00    +0.033 A 
ATOM     13  C   UNL     1      -2.376   0.395  -2.913  0.00  0.00    +0.012 A 
BRANCH  11  14
ATOM     14  N   UNL     1      -3.241   0.006  -6.539  0.00  0.00    +0.056 N 
ATOM     15  O   UNL     1      -2.885  -0.645  -7.494  0.00  0.00    -0.126 OA
ATOM     16  O   UNL     1      -4.139   0.807  -6.655  0.00  0.00    -0.126 OA
ENDBRANCH  11  14
ENDBRANCH   6   8
ENDBRANCH   1   5
BRANCH   1  17
ATOM     17  N   UNL     1      -1.918  -3.675  -1.403  0.00  0.00    +0.384 N 
ATOM     18  H   UNL     1      -2.211  -3.628  -0.439  0.00  0.00    -0.085 HD
ATOM     19  H   UNL     1      -2.473  -3.039  -1.955  0.00  0.00    -0.085 HD
BRANCH  17  20
ATOM     20  C   UNL     1      -2.099  -5.044  -1.903  0.00  0.00    -0.042 C 
BRANCH  20  21
ATOM     21  C   UNL     1      -3.550  -5.478  -1.687  0.00  0.00    +0.076 C 
ATOM     22  C   UNL     1      -4.481  -4.483  -2.377  0.00  0.00    +0.038 C 
ATOM     23  C   UNL     1      -5.907  -5.047  -2.337  0.00  0.00    +0.008 C 
ATOM     24  C   UNL     1      -5.974  -6.251  -3.274  0.00  0.00    +0.035 C 
ATOM     25  C   UNL     1      -4.859  -7.218  -2.975  0.00  0.00    -0.042 A 
ATOM     26  C   UNL     1      -3.744  -6.862  -2.250  0.00  0.00    -0.015 A 
ATOM     27  C   UNL     1      -2.747  -7.801  -2.015  0.00  0.00    +0.006 A 
ATOM     28  C   UNL     1      -2.868  -9.087  -2.500  0.00  0.00    +0.000 A 
ATOM     29  C   UNL     1      -3.989  -9.445  -3.225  0.00  0.00    +0.000 A 
ATOM     30  C   UNL     1      -4.979  -8.514  -3.461  0.00  0.00    +0.004 A 
BRANCH  21  31
ATOM     31  O   UNL     1      -3.833  -5.495  -0.287  0.00  0.00    -0.386 OA
ATOM     32  H   UNL     1      -3.274  -6.100   0.220  0.00  0.00    +0.211 HD
ENDBRANCH  21  31
ENDBRANCH  20  21
ENDBRANCH  17  20
ENDBRANCH   1  17
TORSDOF 7
