REMARK  Name = ZINC40633501
REMARK  6 active torsions:
REMARK  status: ('A' for Active; 'I' for Inactive)
REMARK    1  A    between atoms: C_1  and  O_2
REMARK    2  A    between atoms: O_2  and  C_3
REMARK    3  A    between atoms: C_6  and  C_10
REMARK    4  A    between atoms: N_12  and  C_13
REMARK    5  A    between atoms: C_16  and  S_20
REMARK    6  A    between atoms: S_20  and  N_23
REMARK                            x       y       z     vdW  Elec       q    Type
REMARK                         _______ _______ _______ _____ _____    ______ ____
ROOT
ATOM      1  C   UNL     1      -2.279  -4.205  -0.034  0.00  0.00    +0.203 C 
ATOM      2  O   UNL     1      -1.860  -4.799   0.936  0.00  0.00    -0.277 OA
ATOM      3  N   UNL     1      -2.574  -4.880  -1.163  0.00  0.00    -0.286 N 
ATOM      4  H   UNL     1      -2.970  -4.416  -1.916  0.00  0.00    +0.155 HD
ENDROOT
BRANCH   1   7
ATOM      5  C   UNL     1      -1.326  -0.598   0.024  0.00  0.00    +0.100 C 
ATOM      6  C   UNL     1      -1.282  -1.989  -0.660  0.00  0.00    +0.023 C 
ATOM      7  C   UNL     1      -2.471  -2.711   0.022  0.00  0.00    +0.019 C 
ATOM      8  N   UNL     1      -2.447  -2.239   1.422  0.00  0.00    +0.388 N 
ATOM      9  C   UNL     1      -1.766  -0.928   1.466  0.00  0.00    -0.050 C 
ATOM     10  H   UNL     1      -3.391  -2.140   1.764  0.00  0.00    -0.085 HD
ATOM     11  H   UNL     1      -1.948  -2.902   1.996  0.00  0.00    -0.085 HD
BRANCH   5  13
ATOM     12  C   UNL     1      -0.063   1.439   0.030  0.00  0.00    +0.194 C 
ATOM     13  O   UNL     1      -0.033   0.011   0.018  0.00  0.00    -0.382 OA
ENDBRANCH   5  13
ENDBRANCH   1   7
BRANCH   3  14
ATOM     14  C   UNL     1      -2.308  -6.252  -1.247  0.00  0.00    +0.048 A 
ATOM     15  C   UNL     1      -2.442  -7.057  -0.123  0.00  0.00    +0.026 A 
ATOM     16  C   UNL     1      -2.180  -8.410  -0.210  0.00  0.00    +0.030 A 
ATOM     17  C   UNL     1      -1.783  -8.964  -1.413  0.00  0.00    +0.106 A 
ATOM     18  C   UNL     1      -1.647  -8.166  -2.534  0.00  0.00    +0.045 A 
ATOM     19  C   UNL     1      -1.914  -6.812  -2.456  0.00  0.00    +0.041 A 
ATOM     20 BR   UNL     1      -1.736  -5.722  -3.990  0.00  0.00    -0.048 Br
BRANCH  17  21
ATOM     21  S   UNL     1      -1.448 -10.691  -1.518  0.00  0.00    +0.056 S 
ATOM     22  O   UNL     1      -0.568 -10.868  -2.619  0.00  0.00    -0.153 OA
ATOM     23  O   UNL     1      -1.121 -11.122  -0.204  0.00  0.00    -0.153 OA
BRANCH  21  24
ATOM     24  N   UNL     1      -2.868 -11.441  -1.922  0.00  0.00    -0.204 NA
ATOM     25  H   UNL     1      -2.853 -12.262  -2.438  0.00  0.00    +0.144 HD
ATOM     26  H   UNL     1      -3.715 -11.059  -1.643  0.00  0.00    +0.144 HD
ENDBRANCH  21  24
ENDBRANCH  17  21
ENDBRANCH   3  14
TORSDOF 5
