REMARK  Name = ZINC29397798
REMARK  6 active torsions:
REMARK  status: ('A' for Active; 'I' for Inactive)
REMARK    1  A    between atoms: C_1  and  C_2
REMARK    2  A    between atoms: C_2  and  N_3
REMARK    3  A    between atoms: C_7  and  C_9
REMARK    4  A    between atoms: C_9  and  N_10
REMARK    5  A    between atoms: C_15  and  C_22
REMARK    6  A    between atoms: C_17  and  O_18
REMARK                            x       y       z     vdW  Elec       q    Type
REMARK                         _______ _______ _______ _____ _____    ______ ____
ROOT
ATOM      1  N   UNL     1       1.390  -0.473  -0.014  0.00  0.00    -0.376 N 
ATOM      2  C   UNL     1       1.663  -1.838  -0.024  0.00  0.00    +0.039 A 
ATOM      3  C   UNL     1       0.610  -2.755  -0.013  0.00  0.00    +0.026 A 
ATOM      4  C   UNL     1       0.862  -4.095  -0.028  0.00  0.00    +0.014 A 
ATOM      5  C   UNL     1       2.185  -4.555  -0.042  0.00  0.00    +0.021 A 
ATOM      6  C   UNL     1       2.484  -5.988  -0.053  0.00  0.00    -0.033 A 
ATOM      7  C   UNL     1       3.787  -6.372  -0.068  0.00  0.00    +0.091 A 
ATOM      8  C   UNL     1       4.805  -5.397  -0.073  0.00  0.00    +0.285 A 
ATOM      9  O   UNL     1       4.524  -4.084  -0.063  0.00  0.00    -0.425 OA
ATOM     10  C   UNL     1       3.251  -3.636  -0.048  0.00  0.00    +0.141 A 
ATOM     11  C   UNL     1       2.979  -2.277  -0.039  0.00  0.00    +0.072 A 
ATOM     12  C   UNL     1       1.376  -7.010  -0.048  0.00  0.00    +0.045 C 
ATOM     13  H   UNL     1       2.216   0.253  -0.018  0.00  0.00    +0.160 HD
ENDROOT
BRANCH   8  14
ATOM     14  O   UNL     1       5.969  -5.755  -0.086  0.00  0.00    -0.480 OA
ATOM     15  H   UNL     1       6.775  -5.006  -0.090  0.00  0.00    +0.295 HD
ENDBRANCH   8  14
BRANCH   1  16
ATOM     16  C   UNL     1       0.002  -0.004   0.002  0.00  0.00    +0.209 C 
BRANCH  16  21
ATOM     17  N   UNL     1      -2.389   4.166   0.036  0.00  0.00    -0.299 N 
ATOM     18  C   UNL     1      -1.213   3.508   0.027  0.00  0.00    +0.306 C 
ATOM     19  O   UNL     1      -0.169   4.130   0.025  0.00  0.00    -0.252 OA
ATOM     20  N   UNL     1      -1.195   2.161   0.019  0.00  0.00    -0.239 N 
ATOM     21  C   UNL     1      -0.018   1.503   0.010  0.00  0.00    +0.240 C 
ATOM     22  O   UNL     1       1.023   2.123   0.004  0.00  0.00    -0.273 OA
ATOM     23  H   UNL     1      -3.334   3.603   0.037  0.00  0.00    +0.150 HD
ATOM     24  H   UNL     1      -2.140   1.598   0.021  0.00  0.00    +0.159 HD
BRANCH  17  26
ATOM     25  C   UNL     1      -3.858   6.122   0.054  0.00  0.00    +0.024 C 
ATOM     26  C   UNL     1      -2.409   5.631   0.044  0.00  0.00    +0.102 C 
ENDBRANCH  17  26
ENDBRANCH  16  21
ENDBRANCH   1  16
TORSDOF 4
