REMARK  Name = ZINC24215331
REMARK  10 active torsions:
REMARK  status: ('A' for Active; 'I' for Inactive)
REMARK    1  A    between atoms: C_1  and  C_2
REMARK    2  A    between atoms: C_2  and  O_3
REMARK    3  A    between atoms: O_3  and  C_4
REMARK    4  A    between atoms: C_4  and  C_6
REMARK    5  A    between atoms: C_7  and  C_13
REMARK    6  A    between atoms: C_13  and  N_14
REMARK    7  A    between atoms: C_20  and  C_22
REMARK    8  A    between atoms: C_23  and  C_34
REMARK    9  A    between atoms: N_25  and  C_28
REMARK   10  A    between atoms: C_26  and  C_27
REMARK                            x       y       z     vdW  Elec       q    Type
REMARK                         _______ _______ _______ _____ _____    ______ ____
ROOT
ATOM      1  N   UNL     1       1.005   4.330  -1.817  0.00  0.00    +0.395 N 
ATOM      2  C   UNL     1       1.882   3.857  -2.901  0.00  0.00    -0.058 C 
ATOM      3  C   UNL     1       1.219   4.176  -4.243  0.00  0.00    +0.085 C 
ATOM      4  N   UNL     1       0.808   5.577  -4.278  0.00  0.00    -0.318 N 
ATOM      5  C   UNL     1       0.675   6.323  -3.176  0.00  0.00    +0.204 C 
ATOM      6  O   UNL     1       0.299   7.470  -3.293  0.00  0.00    -0.277 OA
ATOM      7  C   UNL     1       0.970   5.799  -1.799  0.00  0.00    +0.054 C 
ATOM      8  H   UNL     1       0.594   6.063  -5.241  0.00  0.00    +0.149 HD
ATOM      9  H   UNL     1      -0.014   3.960  -2.004  0.00  0.00    -0.080 HD
ENDROOT
BRANCH   7  10
ATOM     10  C   UNL     1      -0.103   6.261  -0.847  0.00  0.00    -0.009 A 
ATOM     11  C   UNL     1      -1.401   5.746  -0.756  0.00  0.00    +0.063 A 
ATOM     12  N   UNL     1      -2.036   6.400   0.183  0.00  0.00    -0.171 NA
ATOM     13  N   UNL     1      -1.162   7.353   0.721  0.00  0.00    -0.237 N 
ATOM     14  C   UNL     1       0.021   7.245   0.075  0.00  0.00    +0.044 A 
ATOM     15  C   UNL     1       1.253   8.072   0.332  0.00  0.00    +0.066 C 
ATOM     16  C   UNL     1      -1.969   4.631  -1.595  0.00  0.00    +0.068 C 
BRANCH  13  17
ATOM     17  C   UNL     1      -1.459   8.257   1.751  0.00  0.00    +0.066 A 
ATOM     18  C   UNL     1      -2.204   7.841   2.847  0.00  0.00    +0.028 A 
ATOM     19  C   UNL     1      -2.491   8.732   3.863  0.00  0.00    +0.002 A 
ATOM     20  C   UNL     1      -2.046  10.039   3.784  0.00  0.00    +0.000 A 
ATOM     21  C   UNL     1      -1.309  10.457   2.691  0.00  0.00    +0.002 A 
ATOM     22  C   UNL     1      -1.014   9.569   1.675  0.00  0.00    +0.028 A 
ENDBRANCH  13  17
ENDBRANCH   7  10
BRANCH   1  23
ATOM     23  C   UNL     1       1.439   3.798  -0.519  0.00  0.00    -0.025 C 
BRANCH  23  25
ATOM     24  C   UNL     1       1.798   1.538   0.409  0.00  0.00    +0.069 C 
ATOM     25  C   UNL     1       1.111   2.329  -0.443  0.00  0.00    +0.007 C 
ATOM     26  N   UNL     1       0.125   1.819  -1.238  0.00  0.00    -0.274 N 
ATOM     27  C   UNL     1      -0.235   0.529  -1.240  0.00  0.00    +0.304 C 
ATOM     28  O   UNL     1      -1.126   0.169  -1.984  0.00  0.00    -0.253 OA
ATOM     29  N   UNL     1       0.357  -0.382  -0.444  0.00  0.00    -0.295 N 
ATOM     30  C   UNL     1       1.435   0.067   0.454  0.00  0.00    +0.149 C 
ATOM     31  H   UNL     1      -0.423   2.479  -1.927  0.00  0.00    +0.156 HD
ATOM     32  H   UNL     1       0.054  -1.439  -0.453  0.00  0.00    +0.151 HD
BRANCH  24  33
ATOM     33  C   UNL     1       2.820   2.064   1.233  0.00  0.00    +0.338 C 
ATOM     34  O   UNL     1       3.015   3.265   1.268  0.00  0.00    -0.245 OA
BRANCH  33  35
ATOM     35  O   UNL     1       3.579   1.235   1.980  0.00  0.00    -0.462 OA
BRANCH  35  37
ATOM     36  C   UNL     1       5.343   0.747   3.557  0.00  0.00    +0.048 C 
ATOM     37  C   UNL     1       4.593   1.836   2.788  0.00  0.00    +0.229 C 
ENDBRANCH  35  37
ENDBRANCH  33  35
ENDBRANCH  24  33
ENDBRANCH  23  25
ENDBRANCH   1  23
TORSDOF 7
