REMARK  Name = ZINC09289322
REMARK  14 active torsions:
REMARK  status: ('A' for Active; 'I' for Inactive)
REMARK    1  A    between atoms: C_1  and  C_2
REMARK    2  A    between atoms: C_2  and  C_35
REMARK    3  A    between atoms: N_5  and  N_6
REMARK    4  A    between atoms: C_7  and  C_9
REMARK    5  A    between atoms: C_9  and  C_10
REMARK    6  A    between atoms: C_10  and  O_16
REMARK    7  A    between atoms: C_18  and  C_33
REMARK    8  A    between atoms: C_18  and  C_34
REMARK    9  A    between atoms: N_19  and  S_20
REMARK   10  A    between atoms: S_20  and  C_23
REMARK   11  A    between atoms: C_26  and  C_29
REMARK   12  A    between atoms: C_29  and  C_30
REMARK   13  A    between atoms: C_29  and  C_31
REMARK   14  A    between atoms: C_29  and  C_32
REMARK                            x       y       z     vdW  Elec       q    Type
REMARK                         _______ _______ _______ _____ _____    ______ ____
ROOT
ATOM      1  C   UNL     1       6.731  -4.147  -3.075  0.00  0.00    +0.030 C 
ATOM      2  C   UNL     1       5.997  -4.300  -4.408  0.00  0.00    +0.043 C 
ATOM      3  C   UNL     1       4.541  -4.707  -4.150  0.00  0.00    +0.076 C 
ATOM      4  C   UNL     1       3.813  -3.525  -3.547  0.00  0.00    +0.040 C 
ATOM      5  N   UNL     1       3.161  -3.646  -2.453  0.00  0.00    -0.189 NA
ATOM      6  C   UNL     1       3.870  -2.199  -4.274  0.00  0.00    +0.076 C 
ATOM      7  C   UNL     1       5.348  -1.853  -4.526  0.00  0.00    +0.043 C 
ATOM      8  N   UNL     1       6.009  -3.019  -5.127  0.00  0.00    -0.165 NA
ATOM      9  C   UNL     1       6.030  -1.503  -3.202  0.00  0.00    +0.030 C 
ATOM     10  C   UNL     1       5.441  -0.662  -5.481  0.00  0.00    +0.030 C 
ATOM     11  C   UNL     1       6.686  -5.370  -5.256  0.00  0.00    +0.030 C 
ENDROOT
BRANCH   5  12
ATOM     12  N   UNL     1       2.397  -2.575  -1.971  0.00  0.00    -0.207 N 
ATOM     13  C   UNL     1       1.649  -2.726  -0.860  0.00  0.00    +0.235 C 
ATOM     14  O   UNL     1       1.637  -3.790  -0.277  0.00  0.00    -0.274 OA
ATOM     15  H   UNL     1       2.406  -1.724  -2.437  0.00  0.00    +0.177 HD
BRANCH  13  16
ATOM     16  C   UNL     1       0.827  -1.574  -0.342  0.00  0.00    +0.132 C 
BRANCH  16  17
ATOM     17  C   UNL     1       0.079  -2.008   0.920  0.00  0.00    +0.074 C 
ATOM     18  C   UNL     1       1.087  -2.436   1.988  0.00  0.00    +0.035 C 
ATOM     19  C   UNL     1       0.338  -2.870   3.250  0.00  0.00    +0.003 C 
ATOM     20  C   UNL     1      -0.496  -1.701   3.776  0.00  0.00    +0.000 C 
ATOM     21  C   UNL     1      -1.504  -1.272   2.708  0.00  0.00    +0.003 C 
ATOM     22  C   UNL     1      -0.756  -0.839   1.446  0.00  0.00    +0.035 C 
BRANCH  17  23
ATOM     23  O   UNL     1      -0.782  -3.106   0.609  0.00  0.00    -0.388 OA
ATOM     24  H   UNL     1      -0.320  -3.884   0.270  0.00  0.00    +0.210 HD
ENDBRANCH  17  23
ENDBRANCH  16  17
ENDBRANCH  13  16
ENDBRANCH   5  12
BRANCH   8  25
ATOM     25  S   UNL     1       6.759  -2.891  -6.598  0.00  0.00    +0.062 S 
ATOM     26  O   UNL     1       6.747  -4.190  -7.174  0.00  0.00    -0.153 OA
ATOM     27  O   UNL     1       6.187  -1.764  -7.248  0.00  0.00    -0.153 OA
BRANCH  25  28
ATOM     28  C   UNL     1       8.447  -2.492  -6.289  0.00  0.00    +0.106 A 
ATOM     29  C   UNL     1       8.830  -1.172  -6.144  0.00  0.00    +0.029 A 
ATOM     30  C   UNL     1      10.154  -0.859  -5.898  0.00  0.00    +0.006 A 
ATOM     31  C   UNL     1      11.096  -1.866  -5.805  0.00  0.00    -0.042 A 
ATOM     32  C   UNL     1      10.714  -3.186  -5.955  0.00  0.00    +0.006 A 
ATOM     33  C   UNL     1       9.390  -3.499  -6.197  0.00  0.00    +0.029 A 
BRANCH  31  34
ATOM     34  C   UNL     1      12.540  -1.525  -5.540  0.00  0.00    -0.013 C 
ATOM     35  C   UNL     1      13.404  -2.031  -6.697  0.00  0.00    +0.015 C 
ATOM     36  C   UNL     1      12.691  -0.007  -5.416  0.00  0.00    +0.015 C 
ATOM     37  C   UNL     1      12.990  -2.190  -4.238  0.00  0.00    +0.015 C 
ENDBRANCH  31  34
ENDBRANCH  25  28
ENDBRANCH   8  25
TORSDOF 7
