REMARK  Name = ZINC39515502
REMARK  5 active torsions:
REMARK  status: ('A' for Active; 'I' for Inactive)
REMARK    1  A    between atoms: C_4  and  C_7
REMARK    2  A    between atoms: C_11  and  C_13
REMARK    3  A    between atoms: C_13  and  N_14
REMARK    4  A    between atoms: C_27  and  C_29
REMARK    5  A    between atoms: C_33  and  O_35
REMARK                            x       y       z     vdW  Elec       q    Type
REMARK                         _______ _______ _______ _____ _____    ______ ____
ROOT
ATOM      1  N   UNL     1       3.413  -4.098   1.372  0.00  0.00    -0.290 NA
ATOM      2  C   UNL     1       4.814  -4.520   1.458  0.00  0.00    +0.086 C 
ATOM      3  C   UNL     1       4.989  -5.978   1.017  0.00  0.00    +0.029 C 
ATOM      4  C   UNL     1       4.227  -6.869   2.002  0.00  0.00    +0.069 C 
ATOM      5  C   UNL     1       4.032  -8.262   1.504  0.00  0.00    -0.013 A 
ATOM      6  C   UNL     1       4.911  -9.262   1.165  0.00  0.00    +0.006 A 
ATOM      7  C   UNL     1       4.363 -10.472   0.750  0.00  0.00    +0.000 A 
ATOM      8  C   UNL     1       2.997 -10.661   0.683  0.00  0.00    +0.002 A 
ATOM      9  C   UNL     1       2.099  -9.659   1.014  0.00  0.00    +0.028 A 
ATOM     10  C   UNL     1       2.634  -8.431   1.425  0.00  0.00    +0.068 A 
ATOM     11  N   UNL     1       2.002  -7.274   1.752  0.00  0.00    -0.254 NA
ATOM     12  C   UNL     1       2.807  -6.308   2.058  0.00  0.00    +0.049 C 
ATOM     13  C   UNL     1       2.550  -4.842   2.312  0.00  0.00    +0.132 C 
ENDROOT
BRANCH  13  14
ATOM     14  C   UNL     1       1.101  -4.519   2.050  0.00  0.00    -0.021 A 
ATOM     15  C   UNL     1       0.574  -4.689   0.783  0.00  0.00    +0.006 A 
ATOM     16  C   UNL     1      -0.754  -4.393   0.539  0.00  0.00    +0.004 A 
ATOM     17  C   UNL     1      -1.558  -3.926   1.561  0.00  0.00    +0.045 A 
ATOM     18  C   UNL     1      -1.032  -3.755   2.833  0.00  0.00    +0.117 A 
ATOM     19  C   UNL     1       0.300  -4.058   3.077  0.00  0.00    +0.051 A 
BRANCH  18  20
ATOM     20  O   UNL     1      -1.820  -3.296   3.840  0.00  0.00    -0.507 OA
ATOM     21  H   UNL     1      -2.271  -3.993   4.336  0.00  0.00    +0.292 HD
ENDBRANCH  18  20
ENDBRANCH  13  14
BRANCH   1  22
ATOM     22  C   UNL     1       3.287  -2.649   1.576  0.00  0.00    +0.100 C 
BRANCH  22  27
ATOM     23  C   UNL     1       1.875  -0.646   1.058  0.00  0.00    +0.080 C 
ATOM     24  N   UNL     1       1.907  -0.146  -0.147  0.00  0.00    -0.153 NA
ATOM     25  N   UNL     1       2.051  -1.129  -1.120  0.00  0.00    -0.161 NA
ATOM     26  C   UNL     1       2.120  -2.318  -0.617  0.00  0.00    +0.118 C 
ATOM     27  C   UNL     1       2.018  -2.145   0.886  0.00  0.00    +0.097 C 
BRANCH  23  31
ATOM     28  C   UNL     1       1.471   1.485   4.703  0.00  0.00    +0.000 A 
ATOM     29  C   UNL     1       1.482   2.172   3.502  0.00  0.00    +0.001 A 
ATOM     30  C   UNL     1       1.613   1.486   2.312  0.00  0.00    +0.010 A 
ATOM     31  C   UNL     1       1.735   0.093   2.322  0.00  0.00    -0.001 A 
ATOM     32  C   UNL     1       1.724  -0.594   3.541  0.00  0.00    +0.010 A 
ATOM     33  C   UNL     1       1.592   0.106   4.721  0.00  0.00    +0.001 A 
ENDBRANCH  23  31
ENDBRANCH  22  27
ENDBRANCH   1  22
TORSDOF 5
