REMARK  Name = ZINC21659251
REMARK  6 active torsions:
REMARK  status: ('A' for Active; 'I' for Inactive)
REMARK    1  A    between atoms: C_1  and  N_2
REMARK    2  A    between atoms: C_5  and  C_25
REMARK    3  A    between atoms: C_8  and  C_17
REMARK    4  A    between atoms: C_20  and  O_24
REMARK    5  A    between atoms: C_21  and  O_23
REMARK    6  A    between atoms: N_34  and  C_37
REMARK                            x       y       z     vdW  Elec       q    Type
REMARK                         _______ _______ _______ _____ _____    ______ ____
ROOT
ATOM      1  C   UNL     1       5.877   1.794  -2.691  0.00  0.00    +0.154 C 
ATOM      2  N   UNL     1       6.739   1.074  -1.751  0.00  0.00    -0.294 N 
ATOM      3  C   UNL     1       6.931   1.531  -0.438  0.00  0.00    +0.082 A 
ATOM      4  C   UNL     1       7.819   0.758   0.466  0.00  0.00    +0.089 A 
ATOM      5  C   UNL     1       7.828   1.423   1.667  0.00  0.00    +0.071 A 
ATOM      6  N   UNL     1       7.033   2.518   1.536  0.00  0.00    -0.306 N 
ATOM      7  C   UNL     1       6.484   2.563   0.261  0.00  0.00    +0.073 A 
ATOM      8  C   UNL     1       5.531   3.663  -0.154  0.00  0.00    +0.150 C 
ATOM      9  N   UNL     1       5.790   4.833   0.699  0.00  0.00    -0.330 N 
ATOM     10  C   UNL     1       6.078   4.660   2.058  0.00  0.00    +0.052 A 
ATOM     11  C   UNL     1       6.737   3.503   2.489  0.00  0.00    +0.068 A 
ATOM     12  C   UNL     1       7.051   3.337   3.824  0.00  0.00    +0.028 A 
ATOM     13  C   UNL     1       6.696   4.313   4.739  0.00  0.00    +0.002 A 
ATOM     14  C   UNL     1       6.029   5.449   4.320  0.00  0.00    +0.002 A 
ATOM     15  C   UNL     1       5.720   5.626   2.984  0.00  0.00    +0.025 A 
ATOM     16  C   UNL     1       8.466  -0.459  -0.034  0.00  0.00    +0.266 A 
ATOM     17  O   UNL     1       9.204  -1.135   0.658  0.00  0.00    -0.267 OA
ATOM     18  N   UNL     1       8.185  -0.780  -1.323  0.00  0.00    -0.263 N 
ATOM     19  C   UNL     1       7.381  -0.059  -2.111  0.00  0.00    +0.332 A 
ATOM     20  O   UNL     1       7.214  -0.457  -3.248  0.00  0.00    -0.246 OA
ATOM     21  C   UNL     1       8.799  -1.987  -1.883  0.00  0.00    +0.157 C 
ATOM     22  H   UNL     1       5.757   5.845   0.270  0.00  0.00    +0.147 HD
ENDROOT
BRANCH   5  23
ATOM     23  C   UNL     1       8.566   1.021   2.880  0.00  0.00    +0.035 A 
ATOM     24  C   UNL     1       7.963   0.188   3.825  0.00  0.00    +0.013 A 
ATOM     25  C   UNL     1       8.659  -0.187   4.955  0.00  0.00    +0.001 A 
ATOM     26  C   UNL     1       9.950   0.268   5.160  0.00  0.00    +0.003 A 
ATOM     27  C   UNL     1      10.555   1.097   4.232  0.00  0.00    +0.039 A 
ATOM     28  C   UNL     1       9.871   1.478   3.093  0.00  0.00    +0.133 A 
ATOM     29  F   UNL     1      10.461   2.289   2.188  0.00  0.00    -0.205 F 
ENDBRANCH   5  23
BRANCH   8  30
ATOM     30  C   UNL     1       4.108   3.202   0.032  0.00  0.00    -0.018 A 
ATOM     31  C   UNL     1       3.643   2.894   1.297  0.00  0.00    +0.009 A 
ATOM     32  C   UNL     1       2.337   2.477   1.474  0.00  0.00    +0.049 A 
ATOM     33  C   UNL     1       1.495   2.354   0.380  0.00  0.00    +0.158 A 
ATOM     34  C   UNL     1       1.963   2.663  -0.893  0.00  0.00    +0.159 A 
ATOM     35  C   UNL     1       3.272   3.087  -1.062  0.00  0.00    +0.055 A 
BRANCH  34  36
ATOM     36  O   UNL     1       1.139   2.549  -1.969  0.00  0.00    -0.503 OA
ATOM     37  H   UNL     1       1.511   2.794  -2.975  0.00  0.00    +0.292 HD
ENDBRANCH  34  36
BRANCH  33  38
ATOM     38  O   UNL     1       0.211   1.937   0.552  0.00  0.00    -0.503 OA
ATOM     39  H   UNL     1      -0.456   1.840  -0.317  0.00  0.00    +0.292 HD
ENDBRANCH  33  38
ENDBRANCH   8  30
TORSDOF 4
