REMARK  Name = ZINC39695040
REMARK  5 active torsions:
REMARK  status: ('A' for Active; 'I' for Inactive)
REMARK    1  A    between atoms: C_1  and  C_2
REMARK    2  A    between atoms: C_3  and  C_9
REMARK    3  A    between atoms: C_9  and  N_10
REMARK    4  A    between atoms: C_11  and  C_13
REMARK    5  A    between atoms: C_24  and  C_26
REMARK                            x       y       z     vdW  Elec       q    Type
REMARK                         _______ _______ _______ _____ _____    ______ ____
ROOT
ATOM      1  C   UNL     1       3.443   1.462  -4.556  0.00  0.00    +0.100 C 
ATOM      2  C   UNL     1       3.664   2.514  -3.445  0.00  0.00    +0.121 C 
ATOM      3  N   UNL     1       4.301   3.660  -4.136  0.00  0.00    -0.296 N 
ATOM      4  C   UNL     1       3.599   3.740  -5.440  0.00  0.00    +0.115 C 
ATOM      5  C   UNL     1       3.401   2.271  -5.863  0.00  0.00    -0.004 C 
ATOM      6  C   UNL     1       4.528   1.833  -6.793  0.00  0.00    -0.010 C 
ATOM      7  C   UNL     1       4.431   2.611  -8.108  0.00  0.00    -0.082 C 
ATOM      8  N   UNL     1       3.127   2.357  -8.733  0.00  0.00    +0.379 N 
ATOM      9  C   UNL     1       2.051   2.866  -7.873  0.00  0.00    -0.082 C 
ATOM     10  C   UNL     1       2.049   2.098  -6.548  0.00  0.00    -0.010 C 
ATOM     11  C   UNL     1       5.293   4.450  -3.682  0.00  0.00    +0.248 C 
ATOM     12  O   UNL     1       5.647   5.415  -4.331  0.00  0.00    -0.270 OA
ATOM     13  H   UNL     1       3.088   2.822  -9.628  0.00  0.00    -0.086 HD
ATOM     14  H   UNL     1       3.007   1.365  -8.867  0.00  0.00    -0.086 HD
ENDROOT
BRANCH  11  15
ATOM     15  C   UNL     1       5.952   4.143  -2.396  0.00  0.00    +0.057 A 
ATOM     16  C   UNL     1       5.212   3.613  -1.337  0.00  0.00    +0.014 A 
ATOM     17  C   UNL     1       5.832   3.329  -0.139  0.00  0.00    +0.002 A 
ATOM     18  C   UNL     1       7.186   3.567   0.018  0.00  0.00    +0.021 A 
ATOM     19  C   UNL     1       7.928   4.093  -1.025  0.00  0.00    +0.060 A 
ATOM     20  C   UNL     1       7.320   4.377  -2.235  0.00  0.00    +0.071 A 
ATOM     21 CL   UNL     1       8.252   5.030  -3.546  0.00  0.00    -0.081 Cl
ATOM     22 CL   UNL     1       9.626   4.391  -0.818  0.00  0.00    -0.082 Cl
ENDBRANCH  11  15
BRANCH   1  24
ATOM     23  N   UNL     1       1.992  -0.529  -4.771  0.00  0.00    -0.311 N 
ATOM     24  C   UNL     1       2.138   0.740  -4.343  0.00  0.00    +0.218 C 
ATOM     25  O   UNL     1       1.218   1.302  -3.786  0.00  0.00    -0.275 OA
ATOM     26  H   UNL     1       2.727  -0.979  -5.216  0.00  0.00    +0.149 HD
BRANCH  23  27
ATOM     27  C   UNL     1       0.723  -1.231  -4.563  0.00  0.00    +0.139 C 
BRANCH  27  30
ATOM     28  C   UNL     1       2.038  -3.314  -3.054  0.00  0.00    +0.045 C 
ATOM     29  C   UNL     1       1.450  -3.621  -4.407  0.00  0.00    -0.027 A 
ATOM     30  C   UNL     1       0.821  -2.624  -5.129  0.00  0.00    -0.026 A 
ATOM     31  C   UNL     1       0.281  -2.905  -6.370  0.00  0.00    +0.005 A 
ATOM     32  C   UNL     1       0.370  -4.184  -6.890  0.00  0.00    +0.002 A 
ATOM     33  C   UNL     1       0.999  -5.181  -6.169  0.00  0.00    +0.020 A 
ATOM     34  C   UNL     1       1.544  -4.899  -4.929  0.00  0.00    +0.044 A 
ATOM     35 CL   UNL     1       2.340  -6.149  -4.025  0.00  0.00    -0.083 Cl
ENDBRANCH  27  30
ENDBRANCH  23  27
ENDBRANCH   1  24
TORSDOF 4
