REMARK  Name = ZINC12710595
REMARK  7 active torsions:
REMARK  status: ('A' for Active; 'I' for Inactive)
REMARK    1  A    between atoms: C_1  and  C_2
REMARK    2  A    between atoms: C_2  and  N_3
REMARK    3  A    between atoms: C_7  and  C_9
REMARK    4  A    between atoms: C_9  and  N_10
REMARK    5  A    between atoms: N_10  and  C_11
REMARK    6  A    between atoms: C_11  and  C_12
REMARK    7  A    between atoms: N_30  and  C_31
REMARK                            x       y       z     vdW  Elec       q    Type
REMARK                         _______ _______ _______ _____ _____    ______ ____
ROOT
ATOM      1  N   UNL     1      -1.196  -0.695   0.574  0.00  0.00    -0.283 N 
ATOM      2  C   UNL     1      -0.150  -0.058   0.011  0.00  0.00    +0.303 C 
ATOM      3  O   UNL     1       0.945  -0.586  -0.007  0.00  0.00    -0.253 OA
ATOM      4  N   UNL     1      -0.318   1.165  -0.530  0.00  0.00    -0.296 N 
ATOM      5  H   UNL     1      -1.323   1.609  -0.584  0.00  0.00    +0.151 HD
ENDROOT
BRANCH   4   6
ATOM      6  C   UNL     1       0.838   1.902  -1.047  0.00  0.00    +0.074 C 
ATOM      7  C   UNL     1       1.511   2.663   0.098  0.00  0.00    +0.022 C 
ATOM      8  C   UNL     1       2.718   3.433  -0.442  0.00  0.00    +0.002 C 
ATOM      9  C   UNL     1       2.253   4.425  -1.510  0.00  0.00    +0.000 C 
ATOM     10  C   UNL     1       1.580   3.665  -2.655  0.00  0.00    +0.002 C 
ATOM     11  C   UNL     1       0.373   2.895  -2.115  0.00  0.00    +0.022 C 
ENDBRANCH   4   6
BRANCH   1  12
ATOM     12  C   UNL     1      -2.537  -0.110   0.499  0.00  0.00    +0.094 C 
BRANCH  12  17
ATOM     13  N   UNL     1      -4.689  -0.240  -0.685  0.00  0.00    +0.382 N 
ATOM     14  C   UNL     1      -4.928   0.512  -1.936  0.00  0.00    -0.078 C 
ATOM     15  C   UNL     1      -3.878  -0.037  -2.934  0.00  0.00    -0.020 C 
ATOM     16  C   UNL     1      -2.652  -0.257  -2.010  0.00  0.00    -0.016 C 
ATOM     17  C   UNL     1      -3.294  -0.717  -0.684  0.00  0.00    -0.051 C 
ATOM     18  H   UNL     1      -5.373  -1.099  -0.629  0.00  0.00    -0.081 HD
BRANCH  13  20
ATOM     19  C   UNL     1      -6.375   1.171   0.394  0.00  0.00    -0.017 C 
ATOM     20  C   UNL     1      -4.960   0.597   0.491  0.00  0.00    -0.082 C 
ENDBRANCH  13  20
ENDBRANCH  12  17
ENDBRANCH   1  12
BRANCH   1  21
ATOM     21  C   UNL     1      -0.992  -1.974   1.259  0.00  0.00    +0.149 C 
BRANCH  21  22
ATOM     22  C   UNL     1      -0.820  -1.730   2.736  0.00  0.00    +0.035 A 
ATOM     23  C   UNL     1      -1.890  -1.825   3.566  0.00  0.00    +0.020 A 
ATOM     24  C   UNL     1      -1.691  -1.583   4.995  0.00  0.00    +0.003 A 
ATOM     25  C   UNL     1      -2.758  -1.666   5.897  0.00  0.00    +0.059 A 
ATOM     26  C   UNL     1      -2.540  -1.431   7.239  0.00  0.00    +0.163 A 
ATOM     27  C   UNL     1      -1.258  -1.113   7.698  0.00  0.00    +0.164 A 
ATOM     28  C   UNL     1      -0.198  -1.028   6.813  0.00  0.00    +0.075 A 
ATOM     29  C   UNL     1      -0.401  -1.261   5.459  0.00  0.00    +0.053 A 
ATOM     30  N   UNL     1       0.645  -1.181   4.562  0.00  0.00    -0.322 N 
ATOM     31  H   UNL     1       1.655  -0.927   4.916  0.00  0.00    +0.169 HD
ATOM     32  C   UNL     1       0.452  -1.411   3.252  0.00  0.00    +0.254 A 
ATOM     33  O   UNL     1       1.400  -1.335   2.489  0.00  0.00    -0.268 OA
ATOM     34  O   UNL     1      -1.034  -0.886   9.021  0.00  0.00    -0.485 OA
ATOM     35  C   UNL     1      -2.181  -0.608   9.831  0.00  0.00    +0.270 C 
ATOM     36  C   UNL     1      -3.269  -1.636   9.493  0.00  0.00    +0.270 C 
ATOM     37  O   UNL     1      -3.589  -1.510   8.104  0.00  0.00    -0.485 OA
ENDBRANCH  21  22
ENDBRANCH   1  21
TORSDOF 6
