REMARK  Name = ZINC02318433
REMARK  6 active torsions:
REMARK  status: ('A' for Active; 'I' for Inactive)
REMARK    1  A    between atoms: C_1  and  C_2
REMARK    2  A    between atoms: C_2  and  O_3
REMARK    3  A    between atoms: O_3  and  C_4
REMARK    4  A    between atoms: C_11  and  C_26
REMARK    5  A    between atoms: C_11  and  C_27
REMARK    6  A    between atoms: N_15  and  C_16
REMARK                            x       y       z     vdW  Elec       q    Type
REMARK                         _______ _______ _______ _____ _____    ______ ____
ROOT
ATOM      1  C   UNL     1      -1.498  -1.849   0.006  0.00  0.00    +0.122 A 
ATOM      2  C   UNL     1      -0.381  -2.673  -0.003  0.00  0.00    +0.046 A 
ATOM      3  C   UNL     1      -0.534  -4.048  -0.017  0.00  0.00    +0.014 A 
ATOM      4  C   UNL     1      -1.810  -4.588  -0.026  0.00  0.00    +0.007 A 
ATOM      5  C   UNL     1      -2.938  -3.766   0.002  0.00  0.00    +0.039 A 
ATOM      6  C   UNL     1      -2.776  -2.389   0.016  0.00  0.00    +0.069 A 
ATOM      7  N   UNL     1      -4.214  -4.335   0.047  0.00  0.00    -0.334 N 
ATOM      8  C   UNL     1      -4.444  -5.633  -0.598  0.00  0.00    +0.059 C 
ATOM      9  C   UNL     1      -3.268  -6.542  -0.303  0.00  0.00    +0.030 A 
ATOM     10  C   UNL     1      -2.003  -6.089  -0.049  0.00  0.00    +0.029 A 
ATOM     11  C   UNL     1      -0.856  -6.905   0.188  0.00  0.00    +0.117 A 
ATOM     12  N   UNL     1       0.382  -6.472   0.405  0.00  0.00    -0.240 NA
ATOM     13  S   UNL     1      -1.382  -8.612   0.141  0.00  0.00    -0.032 S 
ATOM     14  S   UNL     1      -3.386  -8.220  -0.257  0.00  0.00    -0.052 S 
ATOM     15  C   UNL     1      -5.727  -6.259  -0.046  0.00  0.00    +0.037 C 
ATOM     16  C   UNL     1      -4.576  -5.439  -2.110  0.00  0.00    +0.037 C 
ATOM     17  H   UNL     1      -4.939  -3.877   0.499  0.00  0.00    +0.147 HD
ENDROOT
BRANCH  12  18
ATOM     18  C   UNL     1       1.389  -7.366   0.619  0.00  0.00    +0.068 A 
ATOM     19  C   UNL     1       1.195  -8.450   1.481  0.00  0.00    +0.029 A 
ATOM     20  C   UNL     1       2.218  -9.351   1.694  0.00  0.00    +0.025 A 
ATOM     21  C   UNL     1       3.435  -9.185   1.056  0.00  0.00    +0.076 A 
ATOM     22  C   UNL     1       3.636  -8.113   0.199  0.00  0.00    +0.144 A 
ATOM     23  C   UNL     1       2.619  -7.207  -0.027  0.00  0.00    +0.067 A 
ATOM     24  F   UNL     1       4.828  -7.957  -0.419  0.00  0.00    -0.204 F 
ATOM     25 CL   UNL     1       4.716 -10.324   1.329  0.00  0.00    -0.081 Cl
ENDBRANCH  12  18
BRANCH   1  26
ATOM     26  O   UNL     1      -1.339  -0.499   0.012  0.00  0.00    -0.492 OA
BRANCH  26  28
ATOM     27  C   UNL     1      -0.019   1.526   0.010  0.00  0.00    +0.048 C 
ATOM     28  C   UNL     1       0.002  -0.004   0.002  0.00  0.00    +0.225 C 
ENDBRANCH  26  28
ENDBRANCH   1  26
TORSDOF 3
