REMARK  Name = ZINC25449298
REMARK  10 active torsions:
REMARK  status: ('A' for Active; 'I' for Inactive)
REMARK    1  A    between atoms: C_1  and  C_2
REMARK    2  A    between atoms: C_2  and  C_4
REMARK    3  A    between atoms: C_2  and  N_17
REMARK    4  A    between atoms: C_4  and  C_6
REMARK    5  A    between atoms: C_7  and  N_16
REMARK    6  A    between atoms: N_8  and  C_15
REMARK    7  A    between atoms: N_11  and  C_14
REMARK    8  A    between atoms: C_20  and  C_23
REMARK    9  A    between atoms: C_23  and  C_25
REMARK   10  A    between atoms: C_28  and  O_31
REMARK                            x       y       z     vdW  Elec       q    Type
REMARK                         _______ _______ _______ _____ _____    ______ ____
ROOT
ATOM      1  C   UNL     1      -7.610   3.090   1.531  0.00  0.00    -0.005 C 
ATOM      2  C   UNL     1      -7.615   2.543   0.102  0.00  0.00    +0.001 C 
ENDROOT
BRANCH   2   3
ATOM      3  N   UNL     1      -6.353   1.837  -0.156  0.00  0.00    +0.386 N 
ATOM      4  C   UNL     1      -6.234   1.472  -1.573  0.00  0.00    -0.077 C 
ATOM      5  C   UNL     1      -4.983   0.615  -1.778  0.00  0.00    -0.007 C 
ATOM      6  C   UNL     1      -3.750   1.406  -1.331  0.00  0.00    +0.057 C 
ATOM      7  C   UNL     1      -3.920   1.817   0.135  0.00  0.00    -0.007 C 
ATOM      8  C   UNL     1      -5.203   2.638   0.284  0.00  0.00    -0.077 C 
ATOM      9  H   UNL     1      -6.357   0.907   0.431  0.00  0.00    -0.081 HD
BRANCH   6  10
ATOM     10  C   UNL     1      -2.521   0.546  -1.473  0.00  0.00    +0.166 C 
ATOM     11  O   UNL     1      -2.620  -0.662  -1.446  0.00  0.00    -0.292 OA
BRANCH  10  12
ATOM     12  C   UNL     1      -1.203   1.171  -1.647  0.00  0.00    +0.018 A 
ATOM     13  C   UNL     1      -0.059   0.375  -1.780  0.00  0.00    +0.015 A 
ATOM     14  C   UNL     1       1.167   0.963  -1.947  0.00  0.00    +0.046 A 
ATOM     15  C   UNL     1       1.278   2.349  -1.979  0.00  0.00    +0.117 A 
ATOM     16  C   UNL     1       0.146   3.145  -1.841  0.00  0.00    +0.046 A 
ATOM     17  C   UNL     1      -1.086   2.567  -1.673  0.00  0.00    +0.015 A 
BRANCH  15  18
ATOM     18  O   UNL     1       2.494   2.927  -2.145  0.00  0.00    -0.507 OA
ATOM     19  H   UNL     1       2.584   4.023  -2.170  0.00  0.00    +0.292 HD
ENDBRANCH  15  18
ENDBRANCH  10  12
ENDBRANCH   6  10
ENDBRANCH   2   3
BRANCH   2  20
ATOM     20  C   UNL     1      -8.768   1.587  -0.066  0.00  0.00    +0.158 C 
ATOM     21  O   UNL     1      -8.584   0.391   0.029  0.00  0.00    -0.294 OA
BRANCH  20  22
ATOM     22  C   UNL     1     -10.062   2.083  -0.333  0.00  0.00    +0.118 A 
ATOM     23  C   UNL     1     -11.129   1.212  -0.614  0.00  0.00    +0.116 A 
ATOM     24  N   UNL     1     -12.363   1.739  -0.867  0.00  0.00    -0.284 N 
ATOM     25  C   UNL     1     -12.572   3.065  -0.851  0.00  0.00    +0.333 A 
ATOM     26  O   UNL     1     -13.689   3.484  -1.082  0.00  0.00    -0.246 OA
ATOM     27  N   UNL     1     -11.592   3.945  -0.589  0.00  0.00    -0.263 N 
ATOM     28  C   UNL     1     -10.339   3.525  -0.321  0.00  0.00    +0.269 A 
ATOM     29  O   UNL     1      -9.454   4.326  -0.078  0.00  0.00    -0.267 OA
ATOM     30  C   UNL     1     -11.890   5.380  -0.589  0.00  0.00    +0.157 C 
ATOM     31  C   UNL     1     -13.482   0.840  -1.160  0.00  0.00    +0.155 C 
BRANCH  23  32
ATOM     32  N   UNL     1     -10.935  -0.135  -0.634  0.00  0.00    -0.344 N 
ATOM     33  H   UNL     1     -11.776  -0.808  -0.855  0.00  0.00    +0.144 HD
ATOM     34  H   UNL     1      -9.937  -0.550  -0.430  0.00  0.00    +0.144 HD
ENDBRANCH  23  32
ENDBRANCH  20  22
ENDBRANCH   2  20
TORSDOF 7
