REMARK  Name = ZINC13499084
REMARK  14 active torsions:
REMARK  status: ('A' for Active; 'I' for Inactive)
REMARK    1  A    between atoms: C_1  and  C_2
REMARK    2  A    between atoms: C_4  and  C_35
REMARK    3  A    between atoms: C_7  and  C_14
REMARK    4  A    between atoms: C_14  and  N_72
REMARK    5  A    between atoms: C_15  and  C_16
REMARK    6  A    between atoms: C_15  and  N_72
REMARK    7  A    between atoms: C_16  and  C_17
REMARK    8  A    between atoms: C_17  and  O_18
REMARK    9  A    between atoms: C_19  and  C_21
REMARK   10  A    between atoms: C_19  and  C_32
REMARK   11  A    between atoms: C_19  and  N_72
REMARK   12  A    between atoms: N_25  and  C_26
REMARK   13  A    between atoms: C_32  and  C_33
REMARK   14  A    between atoms: C_32  and  C_34
REMARK                            x       y       z     vdW  Elec       q    Type
REMARK                         _______ _______ _______ _____ _____    ______ ____
ROOT
ATOM      1  N   UNL     1      -2.055   2.432  -0.363  0.00  0.00    +0.389 N 
ATOM      2  H   UNL     1      -2.358   1.580  -0.849  0.00  0.00    -0.080 HD
ENDROOT
BRANCH   1   3
ATOM      3  C   UNL     1      -2.998   2.719   0.739  0.00  0.00    -0.037 C 
BRANCH   3  10
ATOM      4  C   UNL     1      -1.688   9.934   3.875  0.00  0.00    +0.044 C 
ATOM      5  C   UNL     1      -2.096   8.677   3.151  0.00  0.00    -0.048 A 
ATOM      6  C   UNL     1      -3.093   8.734   2.186  0.00  0.00    +0.007 A 
ATOM      7  C   UNL     1      -3.478   7.606   1.518  0.00  0.00    -0.041 A 
ATOM      8  C   UNL     1      -2.863   6.384   1.809  0.00  0.00    +0.002 A 
ATOM      9  C   UNL     1      -3.252   5.156   1.113  0.00  0.00    +0.017 A 
ATOM     10  C   UNL     1      -2.621   4.000   1.436  0.00  0.00    +0.001 A 
ATOM     11  C   UNL     1      -1.618   3.992   2.429  0.00  0.00    +0.251 A 
ATOM     12  O   UNL     1      -1.067   2.941   2.708  0.00  0.00    -0.268 OA
ATOM     13  N   UNL     1      -1.250   5.115   3.070  0.00  0.00    -0.322 N 
ATOM     14  H   UNL     1      -0.554   5.075   3.744  0.00  0.00    +0.169 HD
ATOM     15  C   UNL     1      -1.853   6.323   2.787  0.00  0.00    +0.050 A 
ATOM     16  C   UNL     1      -1.477   7.484   3.453  0.00  0.00    +0.029 A 
ATOM     17  C   UNL     1      -4.561   7.679   0.472  0.00  0.00    +0.044 C 
ENDBRANCH   3  10
ENDBRANCH   1   3
BRANCH   1  18
ATOM     18  C   UNL     1      -2.045   3.555  -1.325  0.00  0.00    -0.075 C 
BRANCH  18  19
ATOM     19  C   UNL     1      -3.466   3.771  -1.851  0.00  0.00    +0.009 C 
BRANCH  19  20
ATOM     20  C   UNL     1      -3.453   4.866  -2.919  0.00  0.00    +0.154 C 
BRANCH  20  21
ATOM     21  O   UNL     1      -4.779   5.068  -3.411  0.00  0.00    -0.395 OA
ATOM     22  H   UNL     1      -4.846   5.750  -4.093  0.00  0.00    +0.209 HD
ENDBRANCH  20  21
ENDBRANCH  19  20
ENDBRANCH  18  19
ENDBRANCH   1  18
BRANCH   1  23
ATOM     23  C   UNL     1      -0.696   2.219   0.177  0.00  0.00    +0.006 C 
BRANCH  23  24
ATOM     24  C   UNL     1      -0.671   0.910   0.925  0.00  0.00    +0.139 A 
ATOM     25  N   UNL     1      -1.424  -0.137   0.694  0.00  0.00    -0.115 NA
ATOM     26  N   UNL     1      -1.102  -1.053   1.540  0.00  0.00    -0.023 NA
ATOM     27  N   UNL     1      -0.168  -0.615   2.310  0.00  0.00    -0.044 NA
ATOM     28  N   UNL     1       0.126   0.592   1.962  0.00  0.00    -0.228 N 
BRANCH  28  29
ATOM     29  C   UNL     1       1.136   1.455   2.580  0.00  0.00    +0.111 C 
ATOM     30  C   UNL     1       2.530   0.892   2.295  0.00  0.00    +0.027 C 
ATOM     31  C   UNL     1       3.585   1.793   2.940  0.00  0.00    +0.002 C 
ATOM     32  C   UNL     1       3.356   1.845   4.452  0.00  0.00    +0.000 C 
ATOM     33  C   UNL     1       1.962   2.408   4.737  0.00  0.00    +0.002 C 
ATOM     34  C   UNL     1       0.906   1.507   4.092  0.00  0.00    +0.027 C 
ENDBRANCH  28  29
ENDBRANCH  23  24
BRANCH  23  35
ATOM     35  C   UNL     1       0.302   2.163  -0.981  0.00  0.00    -0.024 C 
ATOM     36  C   UNL     1      -0.324   1.411  -2.158  0.00  0.00    +0.006 C 
ATOM     37  C   UNL     1       0.657   3.586  -1.417  0.00  0.00    +0.006 C 
ENDBRANCH  23  35
ENDBRANCH   1  23
TORSDOF 10
