REMARK  Name = ZINC39676336
REMARK  6 active torsions:
REMARK  status: ('A' for Active; 'I' for Inactive)
REMARK    1  A    between atoms: C_1  and  C_2
REMARK    2  A    between atoms: C_3  and  C_14
REMARK    3  A    between atoms: C_4  and  C_8
REMARK    4  A    between atoms: C_18  and  C_27
REMARK    5  A    between atoms: N_29  and  C_30
REMARK    6  A    between atoms: C_30  and  C_31
REMARK                            x       y       z     vdW  Elec       q    Type
REMARK                         _______ _______ _______ _____ _____    ______ ____
ROOT
ATOM      1  C   UNL     1      -2.422  -0.299   0.003  0.00  0.00    +0.248 C 
ATOM      2  O   UNL     1      -2.655   0.889   0.127  0.00  0.00    -0.270 OA
ATOM      3  N   UNL     1      -3.438  -1.180  -0.087  0.00  0.00    -0.296 N 
ATOM      4  C   UNL     1      -3.357  -2.659  -0.124  0.00  0.00    +0.121 C 
ATOM      5  C   UNL     1      -4.549  -3.137   0.736  0.00  0.00    +0.100 C 
ATOM      6  C   UNL     1      -5.551  -1.971   0.699  0.00  0.00    -0.004 C 
ATOM      7  C   UNL     1      -4.890  -0.888  -0.165  0.00  0.00    +0.115 C 
ATOM      8  C   UNL     1      -6.865  -2.423   0.068  0.00  0.00    -0.010 C 
ATOM      9  C   UNL     1      -7.865  -1.264   0.096  0.00  0.00    -0.082 C 
ATOM     10  N   UNL     1      -8.086  -0.839   1.483  0.00  0.00    +0.379 N 
ATOM     11  C   UNL     1      -6.837  -0.318   2.053  0.00  0.00    -0.082 C 
ATOM     12  C   UNL     1      -5.794  -1.438   2.108  0.00  0.00    -0.010 C 
ATOM     13  H   UNL     1      -8.790  -0.116   1.504  0.00  0.00    -0.086 HD
ATOM     14  H   UNL     1      -8.401  -1.627   2.029  0.00  0.00    -0.086 HD
ENDROOT
BRANCH   1  17
ATOM     15  C   UNL     1      -1.016  -1.188  -2.528  0.00  0.00    +0.089 C 
ATOM     16  C   UNL     1      -0.417  -1.156  -1.145  0.00  0.00    +0.132 C 
ATOM     17  C   UNL     1      -1.081  -0.757  -0.047  0.00  0.00    +0.078 C 
ATOM     18  C   UNL     1      -0.132  -0.885   1.130  0.00  0.00    +0.161 C 
ATOM     19  N   UNL     1       0.940  -1.761   0.589  0.00  0.00    -0.144 NA
ATOM     20  O   UNL     1       0.845  -1.529  -0.861  0.00  0.00    -0.410 OA
ATOM     21  H   UNL     1       0.760  -2.730   0.809  0.00  0.00    +0.168 HD
BRANCH  18  22
ATOM     22  C   UNL     1       0.420   0.462   1.521  0.00  0.00    -0.023 A 
ATOM     23  C   UNL     1       1.388   1.065   0.740  0.00  0.00    +0.005 A 
ATOM     24  C   UNL     1       1.895   2.300   1.099  0.00  0.00    +0.000 A 
ATOM     25  C   UNL     1       1.432   2.932   2.238  0.00  0.00    +0.000 A 
ATOM     26  C   UNL     1       0.464   2.329   3.018  0.00  0.00    +0.000 A 
ATOM     27  C   UNL     1      -0.046   1.096   2.657  0.00  0.00    +0.005 A 
ENDBRANCH  18  22
ENDBRANCH   1  17
BRANCH   5  28
ATOM     28  C   UNL     1      -5.162  -4.378   0.141  0.00  0.00    +0.219 C 
ATOM     29  O   UNL     1      -5.187  -4.524  -1.063  0.00  0.00    -0.275 OA
ATOM     30  N   UNL     1      -5.682  -5.325   0.946  0.00  0.00    -0.308 N 
ATOM     31  H   UNL     1      -5.662  -5.208   1.909  0.00  0.00    +0.149 HD
BRANCH  30  32
ATOM     32  C   UNL     1      -6.278  -6.532   0.367  0.00  0.00    +0.178 C 
BRANCH  32  33
ATOM     33  C   UNL     1      -6.782  -7.424   1.473  0.00  0.00    +0.128 A 
ATOM     34  N   UNL     1      -7.367  -8.602   1.134  0.00  0.00    -0.309 N 
ATOM     35  H   UNL     1      -7.449  -8.847   0.199  0.00  0.00    +0.170 HD
ATOM     36  C   UNL     1      -7.835  -9.438   2.090  0.00  0.00    +0.259 A 
ATOM     37  O   UNL     1      -8.361 -10.498   1.801  0.00  0.00    -0.267 OA
ATOM     38  C   UNL     1      -7.684  -9.018   3.491  0.00  0.00    +0.065 A 
ATOM     39  C   UNL     1      -8.132  -9.805   4.549  0.00  0.00    +0.015 A 
ATOM     40  C   UNL     1      -7.965  -9.362   5.843  0.00  0.00    +0.001 A 
ATOM     41  C   UNL     1      -7.355  -8.141   6.098  0.00  0.00    +0.002 A 
ATOM     42  C   UNL     1      -6.905  -7.348   5.066  0.00  0.00    +0.028 A 
ATOM     43  C   UNL     1      -7.063  -7.775   3.747  0.00  0.00    +0.078 A 
ATOM     44  N   UNL     1      -6.630  -7.029   2.700  0.00  0.00    -0.232 NA
ENDBRANCH  32  33
ENDBRANCH  30  32
ENDBRANCH   5  28
TORSDOF 5
