REMARK  Name = ZINC02437126
REMARK  6 active torsions:
REMARK  status: ('A' for Active; 'I' for Inactive)
REMARK    1  A    between atoms: C_1  and  C_2
REMARK    2  A    between atoms: C_2  and  N_3
REMARK    3  A    between atoms: C_14  and  C_30
REMARK    4  A    between atoms: N_16  and  C_24
REMARK    5  A    between atoms: C_19  and  N_23
REMARK    6  A    between atoms: C_20  and  C_21
REMARK                            x       y       z     vdW  Elec       q    Type
REMARK                         _______ _______ _______ _____ _____    ______ ____
ROOT
ATOM      1  N   UNL     1      -3.155   3.707   0.092  0.00  0.00    -0.270 N 
ATOM      2  C   UNL     1      -1.841   3.349  -0.157  0.00  0.00    +0.041 A 
ATOM      3  C   UNL     1      -0.721   4.162  -0.340  0.00  0.00    +0.024 A 
ATOM      4  C   UNL     1       0.489   3.529  -0.578  0.00  0.00    +0.002 A 
ATOM      5  C   UNL     1       0.596   2.154  -0.634  0.00  0.00    +0.000 A 
ATOM      6  C   UNL     1      -0.512   1.334  -0.453  0.00  0.00    +0.007 A 
ATOM      7  C   UNL     1      -1.720   1.956  -0.222  0.00  0.00    -0.001 A 
ATOM      8  C   UNL     1      -3.092   1.407   0.005  0.00  0.00    +0.145 C 
ATOM      9  C   UNL     1      -3.962   2.630   0.193  0.00  0.00    +0.240 C 
ATOM     10  O   UNL     1      -5.156   2.640   0.404  0.00  0.00    -0.274 OA
ATOM     11  C   UNL     1      -3.139   0.538   1.230  0.00  0.00    +0.067 A 
ATOM     12  C   UNL     1      -3.013   0.887   2.578  0.00  0.00    +0.102 A 
ATOM     13  N   UNL     1      -3.123  -0.214   3.297  0.00  0.00    -0.163 NA
ATOM     14  N   UNL     1      -3.322  -1.294   2.424  0.00  0.00    -0.199 N 
ATOM     15  C   UNL     1      -3.329  -0.813   1.160  0.00  0.00    +0.231 A 
ATOM     16  O   UNL     1      -3.489  -1.469  -0.017  0.00  0.00    -0.423 OA
ATOM     17  C   UNL     1      -3.725  -0.734  -1.122  0.00  0.00    +0.201 C 
ATOM     18  C   UNL     1      -3.562   0.609  -1.180  0.00  0.00    +0.110 C 
ENDROOT
BRANCH  14  19
ATOM     19  C   UNL     1      -3.485  -2.635   2.795  0.00  0.00    +0.069 A 
ATOM     20  C   UNL     1      -4.342  -3.458   2.076  0.00  0.00    +0.028 A 
ATOM     21  C   UNL     1      -4.495  -4.781   2.441  0.00  0.00    +0.002 A 
ATOM     22  C   UNL     1      -3.806  -5.284   3.530  0.00  0.00    +0.000 A 
ATOM     23  C   UNL     1      -2.957  -4.465   4.252  0.00  0.00    +0.002 A 
ATOM     24  C   UNL     1      -2.794  -3.143   3.888  0.00  0.00    +0.028 A 
ENDBRANCH  14  19
BRANCH  12  25
ATOM     25  C   UNL     1      -2.795   2.256   3.107  0.00  0.00    +0.003 A 
ATOM     26  C   UNL     1      -1.771   3.050   2.593  0.00  0.00    +0.010 A 
ATOM     27  C   UNL     1      -1.577   4.325   3.085  0.00  0.00    +0.001 A 
ATOM     28  C   UNL     1      -2.388   4.811   4.094  0.00  0.00    +0.000 A 
ATOM     29  C   UNL     1      -3.402   4.025   4.612  0.00  0.00    +0.001 A 
ATOM     30  C   UNL     1      -3.609   2.751   4.124  0.00  0.00    +0.010 A 
ENDBRANCH  12  25
BRANCH  17  31
ATOM     31  N   UNL     1      -4.156  -1.384  -2.252  0.00  0.00    -0.328 N 
ATOM     32  H   UNL     1      -4.282  -2.345  -2.240  0.00  0.00    +0.145 HD
ATOM     33  H   UNL     1      -4.334  -0.881  -3.063  0.00  0.00    +0.145 HD
ENDBRANCH  17  31
BRANCH   1  35
ATOM     34  C   UNL     1      -4.036   5.615  -1.158  0.00  0.00    +0.025 C 
ATOM     35  C   UNL     1      -3.617   5.091   0.217  0.00  0.00    +0.110 C 
ENDBRANCH   1  35
BRANCH  18  36
ATOM     36  C   UNL     1      -3.846   1.290  -2.407  0.00  0.00    +0.102 C 
ATOM     37  N   UNL     1      -4.071   1.831  -3.381  0.00  0.00    -0.191 NA
ENDBRANCH  18  36
TORSDOF 5
