REMARK  Name = ZINC12990369
REMARK  10 active torsions:
REMARK  status: ('A' for Active; 'I' for Inactive)
REMARK    1  A    between atoms: C_1  and  O_2
REMARK    2  A    between atoms: O_2  and  C_3
REMARK    3  A    between atoms: C_6  and  O_31
REMARK    4  A    between atoms: C_7  and  C_9
REMARK    5  A    between atoms: C_14  and  N_15
REMARK    6  A    between atoms: C_14  and  N_56
REMARK    7  A    between atoms: C_20  and  C_22
REMARK    8  A    between atoms: C_27  and  O_28
REMARK    9  A    between atoms: O_28  and  C_29
REMARK   10  A    between atoms: O_31  and  C_32
REMARK                            x       y       z     vdW  Elec       q    Type
REMARK                         _______ _______ _______ _____ _____    ______ ____
ROOT
ATOM      1  C   UNL     1      -1.209   2.195   0.020  0.00  0.00    +0.072 C 
ENDROOT
BRANCH   1   2
ATOM      2  N   UNL     1      -0.016   1.345   0.009  0.00  0.00    -0.257 N 
ATOM      3  C   UNL     1       0.002  -0.004   0.002  0.00  0.00    +0.174 A 
ATOM      4  S   UNL     1      -1.366  -1.033   0.009  0.00  0.00    -0.012 S 
ATOM      5  N   UNL     1       1.292  -0.395  -0.012  0.00  0.00    -0.317 N 
ATOM      6  H   UNL     1       1.607  -1.312  -0.021  0.00  0.00    +0.169 HD
ATOM      7  C   UNL     1       2.087   0.734  -0.014  0.00  0.00    +0.164 A 
ATOM      8  N   UNL     1       1.315   1.784  -0.001  0.00  0.00    -0.152 NA
BRANCH   7   9
ATOM      9  C   UNL     1       3.566   0.749  -0.029  0.00  0.00    +0.062 A 
ATOM     10  C   UNL     1       4.279  -0.450  -0.043  0.00  0.00    +0.035 A 
ATOM     11  C   UNL     1       5.659  -0.429  -0.058  0.00  0.00    +0.042 A 
ATOM     12  C   UNL     1       6.339   0.778  -0.058  0.00  0.00    +0.023 A 
ATOM     13  C   UNL     1       5.642   1.971  -0.044  0.00  0.00    +0.048 A 
ATOM     14  C   UNL     1       4.256   1.966  -0.035  0.00  0.00    +0.131 A 
ATOM     15 CL   UNL     1       6.546  -1.921  -0.076  0.00  0.00    -0.084 Cl
BRANCH  14  16
ATOM     16  O   UNL     1       3.571   3.139  -0.026  0.00  0.00    -0.494 OA
ATOM     17  C   UNL     1       4.342   4.342  -0.033  0.00  0.00    +0.277 C 
ENDBRANCH  14  16
ENDBRANCH   7   9
ENDBRANCH   1   2
BRANCH   1  22
ATOM     18  C   UNL     1      -2.935   3.106   1.466  0.00  0.00    -0.031 C 
ATOM     19  C   UNL     1      -2.862   4.071   2.676  0.00  0.00    -0.012 C 
ATOM     20  C   UNL     1      -1.406   4.596   2.571  0.00  0.00    -0.020 C 
ATOM     21  C   UNL     1      -0.628   3.363   2.064  0.00  0.00    -0.075 C 
ATOM     22  N   UNL     1      -1.605   2.466   1.427  0.00  0.00    +0.397 N 
ATOM     23  H   UNL     1      -1.639   1.579   1.942  0.00  0.00    -0.078 HD
BRANCH  18  28
ATOM     24  C   UNL     1      -4.667  -0.088   2.506  0.00  0.00    +0.121 A 
ATOM     25  C   UNL     1      -5.968   0.155   2.092  0.00  0.00    +0.049 A 
ATOM     26  C   UNL     1      -6.286   1.350   1.477  0.00  0.00    +0.049 A 
ATOM     27  C   UNL     1      -5.304   2.308   1.274  0.00  0.00    +0.122 A 
ATOM     28  C   UNL     1      -4.003   2.066   1.688  0.00  0.00    -0.016 A 
ATOM     29  C   UNL     1      -3.683   0.868   2.299  0.00  0.00    +0.051 A 
BRANCH  24  31
ATOM     30  C   UNL     1      -5.415  -2.205   3.289  0.00  0.00    +0.277 C 
ATOM     31  O   UNL     1      -4.354  -1.264   3.112  0.00  0.00    -0.495 OA
ENDBRANCH  24  31
BRANCH  27  32
ATOM     32  O   UNL     1      -5.617   3.484   0.668  0.00  0.00    -0.495 OA
ATOM     33  C   UNL     1      -6.976   3.666   0.267  0.00  0.00    +0.277 C 
ENDBRANCH  27  32
ENDBRANCH  18  28
ENDBRANCH   1  22
TORSDOF 7
