REMARK  Name = ZINC11071118
REMARK  8 active torsions:
REMARK  status: ('A' for Active; 'I' for Inactive)
REMARK    1  A    between atoms: C_1  and  C_2
REMARK    2  A    between atoms: C_15  and  C_17
REMARK    3  A    between atoms: C_17  and  N_55
REMARK    4  A    between atoms: C_18  and  N_55
REMARK    5  A    between atoms: C_19  and  C_21
REMARK    6  A    between atoms: C_19  and  C_22
REMARK    7  A    between atoms: C_19  and  N_55
REMARK    8  A    between atoms: N_24  and  C_25
REMARK                            x       y       z     vdW  Elec       q    Type
REMARK                         _______ _______ _______ _____ _____    ______ ____
ROOT
ATOM      1  C   UNL     1       0.144   4.133  -2.415  0.00  0.00    +0.020 C 
ENDROOT
BRANCH   1  15
ATOM      2  C   UNL     1      -0.018   6.050   1.797  0.00  0.00    +0.029 C 
ATOM      3  C   UNL     1       1.174   5.825   0.865  0.00  0.00    +0.087 C 
ATOM      4  C   UNL     1       2.375   5.348   1.683  0.00  0.00    +0.118 C 
ATOM      5  C   UNL     1       3.415   4.747   0.774  0.00  0.00    +0.219 C 
ATOM      6  O   UNL     1       4.419   5.374   0.511  0.00  0.00    -0.275 OA
ATOM      7  N   UNL     1       3.236   3.515   0.251  0.00  0.00    -0.284 N 
ATOM      8  C   UNL     1       2.040   2.820   0.466  0.00  0.00    +0.055 A 
ATOM      9  C   UNL     1       2.051   1.501   0.887  0.00  0.00    +0.025 A 
ATOM     10  C   UNL     1       0.858   0.825   1.064  0.00  0.00    +0.002 A 
ATOM     11  C   UNL     1      -0.346   1.459   0.816  0.00  0.00    +0.002 A 
ATOM     12  C   UNL     1      -0.366   2.778   0.401  0.00  0.00    +0.025 A 
ATOM     13  C   UNL     1       0.825   3.466   0.234  0.00  0.00    +0.058 A 
ATOM     14  N   UNL     1       0.823   4.817  -0.137  0.00  0.00    -0.268 N 
ATOM     15  C   UNL     1       0.503   5.182  -1.395  0.00  0.00    +0.204 C 
ATOM     16  O   UNL     1       0.505   6.355  -1.704  0.00  0.00    -0.277 OA
ATOM     17  H   UNL     1       3.940   3.110  -0.278  0.00  0.00    +0.155 HD
ENDBRANCH   1  15
BRANCH   1  19
ATOM     18  C   UNL     1       1.034   5.424  -4.261  0.00  0.00    -0.094 C 
ATOM     19  N   UNL     1      -0.181   4.803  -3.692  0.00  0.00    +0.391 N 
ATOM     20  H   UNL     1      -0.879   5.535  -3.517  0.00  0.00    -0.080 HD
BRANCH  19  21
ATOM     21  C   UNL     1      -0.742   3.824  -4.647  0.00  0.00    +0.017 C 
ATOM     22  C   UNL     1       0.103   2.548  -4.665  0.00  0.00    -0.004 C 
BRANCH  21  23
ATOM     23  C   UNL     1      -2.149   3.489  -4.226  0.00  0.00    +0.203 C 
ATOM     24  O   UNL     1      -2.545   3.808  -3.125  0.00  0.00    -0.277 OA
ATOM     25  N   UNL     1      -2.969   2.835  -5.073  0.00  0.00    -0.287 N 
ATOM     26  H   UNL     1      -2.674   2.635  -5.975  0.00  0.00    +0.155 HD
BRANCH  25  27
ATOM     27  C   UNL     1      -4.245   2.444  -4.650  0.00  0.00    +0.033 A 
ATOM     28  C   UNL     1      -4.793   1.252  -5.105  0.00  0.00    +0.024 A 
ATOM     29  C   UNL     1      -6.050   0.866  -4.683  0.00  0.00    +0.017 A 
ATOM     30  C   UNL     1      -6.767   1.671  -3.815  0.00  0.00    +0.018 A 
ATOM     31  C   UNL     1      -6.225   2.861  -3.365  0.00  0.00    +0.017 A 
ATOM     32  C   UNL     1      -4.966   3.250  -3.780  0.00  0.00    +0.024 A 
ATOM     33 BR   UNL     1      -8.491   1.143  -3.245  0.00  0.00    -0.050 Br
ENDBRANCH  25  27
ENDBRANCH  21  23
ENDBRANCH  19  21
ENDBRANCH   1  19
TORSDOF 5
