REMARK  Name = ZINC63372397
REMARK  11 active torsions:
REMARK  status: ('A' for Active; 'I' for Inactive)
REMARK    1  A    between atoms: C_1  and  C_2
REMARK    2  A    between atoms: C_2  and  C_4
REMARK    3  A    between atoms: C_2  and  N_12
REMARK    4  A    between atoms: C_4  and  C_5
REMARK    5  A    between atoms: C_5  and  C_6
REMARK    6  A    between atoms: C_13  and  C_15
REMARK    7  A    between atoms: C_15  and  C_17
REMARK    8  A    between atoms: C_15  and  N_20
REMARK    9  A    between atoms: C_17  and  C_18
REMARK   10  A    between atoms: C_17  and  C_19
REMARK   11  A    between atoms: C_23  and  C_39
REMARK                            x       y       z     vdW  Elec       q    Type
REMARK                         _______ _______ _______ _____ _____    ______ ____
ROOT
ATOM      1  N   UNL     1       4.141  -1.309  -2.218  0.00  0.00    -0.212 N 
ATOM      2  C   UNL     1       5.099  -0.727  -2.967  0.00  0.00    +0.249 C 
ATOM      3  O   UNL     1       4.941  -0.042  -3.954  0.00  0.00    -0.273 OA
ATOM      4  C   UNL     1       6.413  -1.105  -2.319  0.00  0.00    +0.136 C 
ATOM      5  C   UNL     1       7.267  -1.921  -3.296  0.00  0.00    +0.139 C 
ATOM      6  C   UNL     1       8.263  -2.704  -2.449  0.00  0.00    -0.034 C 
ATOM      7  C   UNL     1       9.473  -2.362  -2.882  0.00  0.00    -0.001 A 
ATOM      8  C   UNL     1      10.815  -2.826  -2.497  0.00  0.00    +0.010 A 
ATOM      9  C   UNL     1      11.858  -2.246  -3.147  0.00  0.00    +0.001 A 
ATOM     10  C   UNL     1      11.702  -1.263  -4.129  0.00  0.00    +0.002 A 
ATOM     11  C   UNL     1      10.505  -0.780  -4.548  0.00  0.00    +0.026 A 
ATOM     12  C   UNL     1       9.332  -1.316  -3.940  0.00  0.00    +0.043 A 
ATOM     13  N   UNL     1       8.067  -1.050  -4.162  0.00  0.00    -0.375 N 
ATOM     14  C   UNL     1       7.851  -3.613  -1.317  0.00  0.00    +0.052 C 
ATOM     15  C   UNL     1       6.922  -2.798  -0.394  0.00  0.00    +0.115 C 
ATOM     16  N   UNL     1       6.003  -2.026  -1.235  0.00  0.00    -0.269 N 
ATOM     17  C   UNL     1       4.664  -2.023  -1.212  0.00  0.00    +0.313 C 
ATOM     18  O   UNL     1       3.999  -2.604  -0.377  0.00  0.00    -0.252 OA
ATOM     19  C   UNL     1       7.158   0.119  -1.780  0.00  0.00    +0.044 C 
ATOM     20  H   UNL     1       7.716  -0.394  -4.785  0.00  0.00    +0.160 HD
ENDROOT
BRANCH   1  21
ATOM     21  C   UNL     1       2.704  -1.173  -2.470  0.00  0.00    +0.174 C 
BRANCH  21  23
ATOM     22  N   UNL     1       0.912   0.175  -1.425  0.00  0.00    -0.311 N 
ATOM     23  C   UNL     1       2.041  -0.545  -1.271  0.00  0.00    +0.235 C 
ATOM     24  O   UNL     1       2.523  -0.687  -0.167  0.00  0.00    -0.274 OA
ATOM     25  H   UNL     1       0.567   0.351  -2.315  0.00  0.00    +0.149 HD
BRANCH  22  27
ATOM     26  C   UNL     1       0.826   2.026   0.171  0.00  0.00    +0.028 C 
ATOM     27  C   UNL     1       0.207   0.692  -0.250  0.00  0.00    +0.070 C 
BRANCH  27  28
ATOM     28  C   UNL     1      -1.270   0.900  -0.593  0.00  0.00    +0.026 C 
BRANCH  28  29
ATOM     29  C   UNL     1      -1.920  -0.452  -0.893  0.00  0.00    +0.037 C 
BRANCH  29  30
ATOM     30  C   UNL     1      -3.374  -0.246  -1.230  0.00  0.00    -0.047 A 
ATOM     31  C   UNL     1      -4.326  -0.266  -0.228  0.00  0.00    +0.003 A 
ATOM     32  C   UNL     1      -5.660  -0.078  -0.537  0.00  0.00    +0.000 A 
ATOM     33  C   UNL     1      -6.042   0.131  -1.849  0.00  0.00    +0.000 A 
ATOM     34  C   UNL     1      -5.090   0.152  -2.852  0.00  0.00    +0.000 A 
ATOM     35  C   UNL     1      -3.756  -0.032  -2.542  0.00  0.00    +0.003 A 
ENDBRANCH  29  30
ENDBRANCH  28  29
ENDBRANCH  27  28
ENDBRANCH  22  27
ENDBRANCH  21  23
BRANCH  21  36
ATOM     36  C   UNL     1       2.097  -2.555  -2.722  0.00  0.00    +0.013 C 
ATOM     37  C   UNL     1       0.622  -2.404  -3.097  0.00  0.00    +0.009 C 
ATOM     38  C   UNL     1       2.847  -3.240  -3.866  0.00  0.00    +0.009 C 
ENDBRANCH  21  36
ENDBRANCH   1  21
TORSDOF 7
