REMARK  Name = ZINC63386201
REMARK  8 active torsions:
REMARK  status: ('A' for Active; 'I' for Inactive)
REMARK    1  A    between atoms: C_1  and  C_2
REMARK    2  A    between atoms: C_7  and  O_32
REMARK    3  A    between atoms: C_8  and  O_31
REMARK    4  A    between atoms: C_13  and  C_15
REMARK    5  A    between atoms: C_15  and  C_16
REMARK    6  A    between atoms: N_18  and  C_19
REMARK    7  A    between atoms: C_19  and  C_20
REMARK    8  A    between atoms: C_20  and  C_21
REMARK                            x       y       z     vdW  Elec       q    Type
REMARK                         _______ _______ _______ _____ _____    ______ ____
ROOT
ATOM      1  C   UNL     1       0.441  -1.995   1.458  0.00  0.00    +0.111 C 
ENDROOT
BRANCH   1  13
ATOM      2  C   UNL     1      -0.019   1.526   0.010  0.00  0.00    +0.013 C 
ATOM      3  C   UNL     1       0.002  -0.004   0.002  0.00  0.00    +0.034 C 
ATOM      4  C   UNL     1       0.705  -0.489  -1.241  0.00  0.00    +0.003 A 
ATOM      5  C   UNL     1      -0.005  -0.513  -2.433  0.00  0.00    +0.011 A 
ATOM      6  C   UNL     1       0.597  -0.942  -3.599  0.00  0.00    +0.050 A 
ATOM      7  C   UNL     1       1.922  -1.352  -3.585  0.00  0.00    +0.162 A 
ATOM      8  C   UNL     1       2.636  -1.333  -2.395  0.00  0.00    +0.202 A 
ATOM      9  C   UNL     1       2.024  -0.903  -1.219  0.00  0.00    +0.180 A 
ATOM     10  O   UNL     1       2.754  -0.916  -0.069  0.00  0.00    -0.421 OA
ATOM     11  C   UNL     1       2.223  -0.312   1.013  0.00  0.00    +0.317 C 
ATOM     12  O   UNL     1       2.898   0.355   1.760  0.00  0.00    -0.250 OA
ATOM     13  C   UNL     1       0.740  -0.510   1.245  0.00  0.00    +0.114 C 
BRANCH   8  14
ATOM     14  O   UNL     1       3.937  -1.734  -2.376  0.00  0.00    -0.501 OA
ATOM     15  H   UNL     1       4.570  -1.022  -2.539  0.00  0.00    +0.292 HD
ENDBRANCH   8  14
BRANCH   7  16
ATOM     16  O   UNL     1       2.518  -1.773  -4.733  0.00  0.00    -0.503 OA
ATOM     17  H   UNL     1       2.949  -1.066  -5.233  0.00  0.00    +0.292 HD
ENDBRANCH   7  16
ENDBRANCH   1  13
BRANCH   1  18
ATOM     18  C   UNL     1       1.070  -2.455   2.748  0.00  0.00    +0.214 C 
ATOM     19  O   UNL     1       1.695  -1.671   3.431  0.00  0.00    -0.276 OA
ATOM     20  N   UNL     1       0.937  -3.736   3.144  0.00  0.00    -0.315 N 
ATOM     21  H   UNL     1       0.437  -4.363   2.598  0.00  0.00    +0.149 HD
BRANCH  20  22
ATOM     22  C   UNL     1       1.548  -4.183   4.398  0.00  0.00    +0.108 C 
BRANCH  22  23
ATOM     23  C   UNL     1       1.249  -5.668   4.610  0.00  0.00    +0.052 C 
BRANCH  23  24
ATOM     24  C   UNL     1       1.878  -6.127   5.901  0.00  0.00    -0.040 C 
ATOM     25  C   UNL     1       1.281  -6.210   7.112  0.00  0.00    +0.000 A 
ATOM     26  C   UNL     1      -0.080  -5.909   7.572  0.00  0.00    +0.030 A 
ATOM     27  C   UNL     1      -0.388  -6.095   8.877  0.00  0.00    +0.042 A 
ATOM     28  C   UNL     1       0.559  -6.569   9.797  0.00  0.00    +0.022 A 
ATOM     29  C   UNL     1       1.828  -6.867   9.449  0.00  0.00    +0.027 A 
ATOM     30  C   UNL     1       2.261  -6.709   8.103  0.00  0.00    +0.043 A 
ATOM     31  N   UNL     1       3.419  -6.926   7.527  0.00  0.00    -0.380 N 
ATOM     32  C   UNL     1       3.302  -6.595   6.103  0.00  0.00    +0.144 C 
ATOM     33 CL   UNL     1      -1.996  -5.739   9.425  0.00  0.00    -0.084 Cl
ATOM     34  H   UNL     1       4.218  -7.254   7.969  0.00  0.00    +0.160 HD
ENDBRANCH  23  24
ENDBRANCH  22  23
ENDBRANCH  20  22
ENDBRANCH   1  18
TORSDOF 7
