REMARK  Name = ZINC16435568
REMARK  15 active torsions:
REMARK  status: ('A' for Active; 'I' for Inactive)
REMARK    1  A    between atoms: C_1  and  C_2
REMARK    2  A    between atoms: C_5  and  N_8
REMARK    3  A    between atoms: N_11  and  C_12
REMARK    4  A    between atoms: N_11  and  C_17
REMARK    5  A    between atoms: C_12  and  C_13
REMARK    6  A    between atoms: C_13  and  C_14
REMARK    7  A    between atoms: C_14  and  C_15
REMARK    8  A    between atoms: C_14  and  C_16
REMARK    9  A    between atoms: C_17  and  C_18
REMARK   10  A    between atoms: N_20  and  C_21
REMARK   11  A    between atoms: C_23  and  C_33
REMARK   12  A    between atoms: N_25  and  C_26
REMARK   13  A    between atoms: C_33  and  C_34
REMARK   14  A    between atoms: C_33  and  C_35
REMARK   15  A    between atoms: C_33  and  C_36
REMARK                            x       y       z     vdW  Elec       q    Type
REMARK                         _______ _______ _______ _____ _____    ______ ____
ROOT
ATOM      1  C   UNL     1       3.849   2.792   1.037  0.00  0.00    +0.236 C 
ATOM      2  O   UNL     1       3.243   2.500   2.046  0.00  0.00    -0.274 OA
ATOM      3  N   UNL     1       4.886   3.650   1.099  0.00  0.00    -0.269 N 
ATOM      4  H   UNL     1       5.371   3.883   0.292  0.00  0.00    +0.156 HD
ENDROOT
BRANCH   3   5
ATOM      5  C   UNL     1       5.263   4.201   2.323  0.00  0.00    +0.129 A 
ATOM      6  C   UNL     1       4.677   3.963   3.528  0.00  0.00    +0.069 A 
ATOM      7  C   UNL     1       5.359   4.711   4.492  0.00  0.00    +0.071 A 
ATOM      8  N   UNL     1       6.319   5.375   3.900  0.00  0.00    -0.169 NA
ATOM      9  N   UNL     1       6.289   5.071   2.533  0.00  0.00    -0.218 N 
BRANCH   9  10
ATOM     10  C   UNL     1       7.158   5.575   1.555  0.00  0.00    +0.068 A 
ATOM     11  C   UNL     1       7.548   4.772   0.491  0.00  0.00    +0.029 A 
ATOM     12  C   UNL     1       8.401   5.272  -0.473  0.00  0.00    +0.022 A 
ATOM     13  C   UNL     1       8.874   6.569  -0.375  0.00  0.00    +0.041 A 
ATOM     14  C   UNL     1       8.490   7.370   0.687  0.00  0.00    +0.022 A 
ATOM     15  C   UNL     1       7.634   6.875   1.652  0.00  0.00    +0.029 A 
ATOM     16 CL   UNL     1       9.951   7.193  -1.585  0.00  0.00    -0.084 Cl
ENDBRANCH   9  10
BRANCH   7  17
ATOM     17  C   UNL     1       5.043   4.747   5.965  0.00  0.00    +0.006 C 
ATOM     18  C   UNL     1       5.525   3.451   6.622  0.00  0.00    +0.017 C 
ATOM     19  C   UNL     1       5.751   5.939   6.610  0.00  0.00    +0.017 C 
ATOM     20  C   UNL     1       3.531   4.885   6.159  0.00  0.00    +0.017 C 
ENDBRANCH   7  17
ENDBRANCH   3   5
BRANCH   1  21
ATOM     21  C   UNL     1       3.441   2.196  -0.286  0.00  0.00    +0.205 C 
BRANCH  21  25
ATOM     22  N   UNL     1      -0.011   0.966   0.007  0.00  0.00    -0.269 N 
ATOM     23  C   UNL     1       1.042   1.787  -0.175  0.00  0.00    +0.307 C 
ATOM     24  O   UNL     1       0.860   2.964  -0.418  0.00  0.00    -0.252 OA
ATOM     25  N   UNL     1       2.297   1.303  -0.088  0.00  0.00    -0.277 N 
ATOM     26  H   UNL     1       0.131   0.013   0.123  0.00  0.00    +0.156 HD
BRANCH  22  31
ATOM     27  C   UNL     1      -5.277   3.077   0.076  0.00  0.00    +0.044 C 
ATOM     28  C   UNL     1      -3.878   2.516   0.057  0.00  0.00    -0.050 A 
ATOM     29  C   UNL     1      -3.648   1.251  -0.451  0.00  0.00    +0.005 A 
ATOM     30  C   UNL     1      -2.368   0.734  -0.469  0.00  0.00    +0.023 A 
ATOM     31  C   UNL     1      -1.310   1.487   0.024  0.00  0.00    +0.035 A 
ATOM     32  C   UNL     1      -1.544   2.755   0.538  0.00  0.00    +0.023 A 
ATOM     33  C   UNL     1      -2.827   3.268   0.548  0.00  0.00    +0.005 A 
ENDBRANCH  22  31
BRANCH  25  34
ATOM     34  C   UNL     1       2.516  -0.115   0.206  0.00  0.00    +0.110 C 
BRANCH  34  35
ATOM     35  C   UNL     1       2.578  -0.903  -1.104  0.00  0.00    +0.022 C 
BRANCH  35  36
ATOM     36  C   UNL     1       2.807  -2.385  -0.798  0.00  0.00    -0.016 C 
ATOM     37  C   UNL     1       2.744  -3.190  -2.097  0.00  0.00    +0.007 C 
ATOM     38  C   UNL     1       4.182  -2.565  -0.152  0.00  0.00    +0.007 C 
ENDBRANCH  35  36
ENDBRANCH  34  35
ENDBRANCH  25  34
ENDBRANCH  21  25
ENDBRANCH   1  21
TORSDOF 9
