REMARK  Name = ZINC03142410
REMARK  12 active torsions:
REMARK  status: ('A' for Active; 'I' for Inactive)
REMARK    1  A    between atoms: C_1  and  C_2
REMARK    2  A    between atoms: C_2  and  C_3
REMARK    3  A    between atoms: C_2  and  C_4
REMARK    4  A    between atoms: C_4  and  C_5
REMARK    5  A    between atoms: N_7  and  C_8
REMARK    6  A    between atoms: C_8  and  C_10
REMARK    7  A    between atoms: C_8  and  N_14
REMARK    8  A    between atoms: N_14  and  C_15
REMARK    9  A    between atoms: C_15  and  N_17
REMARK   10  A    between atoms: N_17  and  C_18
REMARK   11  A    between atoms: C_21  and  N_24
REMARK   12  A    between atoms: C_25  and  C_27
REMARK                            x       y       z     vdW  Elec       q    Type
REMARK                         _______ _______ _______ _____ _____    ______ ____
ROOT
ATOM      1  N   UNL     1       0.142   9.689  -0.688  0.00  0.00    -0.305 N 
ATOM      2  H   UNL     1      -0.797  10.261  -0.676  0.00  0.00    +0.150 HD
ENDROOT
BRANCH   1   3
ATOM      3  C   UNL     1       0.120   8.353  -0.507  0.00  0.00    +0.136 C 
ATOM      4  S   UNL     1       1.581   7.462  -0.526  0.00  0.00    -0.019 S 
BRANCH   3   5
ATOM      5  N   UNL     1      -1.054   7.720  -0.311  0.00  0.00    -0.297 N 
ATOM      6  H   UNL     1      -1.985   8.299  -0.229  0.00  0.00    +0.154 HD
BRANCH   5   7
ATOM      7  C   UNL     1      -1.087   6.323  -0.212  0.00  0.00    +0.033 A 
ATOM      8  C   UNL     1      -0.171   5.662   0.595  0.00  0.00    +0.025 A 
ATOM      9  C   UNL     1      -0.204   4.285   0.692  0.00  0.00    +0.025 A 
ATOM     10  C   UNL     1      -1.154   3.562  -0.017  0.00  0.00    +0.033 A 
ATOM     11  C   UNL     1      -2.066   4.222  -0.828  0.00  0.00    +0.025 A 
ATOM     12  C   UNL     1      -2.037   5.599  -0.921  0.00  0.00    +0.025 A 
BRANCH  10  13
ATOM     13  N   UNL     1      -1.187   2.164   0.083  0.00  0.00    -0.286 N 
ATOM     14  C   UNL     1      -2.368   1.515   0.055  0.00  0.00    +0.214 C 
ATOM     15  O   UNL     1      -3.406   2.143   0.071  0.00  0.00    -0.276 OA
ATOM     16  C   UNL     1      -2.399   0.009   0.012  0.00  0.00    +0.109 C 
ATOM     17  H   UNL     1      -0.250   1.597   0.182  0.00  0.00    +0.155 HD
ENDBRANCH  10  13
ENDBRANCH   5   7
ENDBRANCH   3   5
ENDBRANCH   1   3
BRANCH   1  18
ATOM     18  C   UNL     1       1.417  10.378  -0.901  0.00  0.00    +0.211 C 
BRANCH  18  21
ATOM     19  C   UNL     1       2.773  10.613   1.110  0.00  0.00    +0.215 C 
ATOM     20  O   UNL     1       3.341   9.584   0.811  0.00  0.00    -0.276 OA
ATOM     21  N   UNL     1       1.794  11.096   0.319  0.00  0.00    -0.294 N 
ATOM     22  H   UNL     1       1.279  12.029   0.589  0.00  0.00    +0.151 HD
BRANCH  19  23
ATOM     23  C   UNL     1       3.161  11.351   2.365  0.00  0.00    +0.098 C 
BRANCH  23  25
ATOM     24  C   UNL     1       4.766  11.408   4.279  0.00  0.00    +0.008 C 
ATOM     25  C   UNL     1       4.287  10.596   3.073  0.00  0.00    -0.008 C 
ATOM     26  C   UNL     1       3.770   9.236   3.547  0.00  0.00    +0.008 C 
ENDBRANCH  23  25
ENDBRANCH  19  23
ENDBRANCH  18  21
BRANCH  18  27
ATOM     27  C   UNL     1       1.273  11.373  -2.054  0.00  0.00    +0.225 C 
ATOM     28 CL   UNL     1      -0.003  12.581  -1.649  0.00  0.00    -0.080 Cl
ATOM     29 CL   UNL     1       2.842  12.221  -2.317  0.00  0.00    -0.080 Cl
ATOM     30 CL   UNL     1       0.809  10.489  -3.556  0.00  0.00    -0.080 Cl
ENDBRANCH  18  27
ENDBRANCH   1  18
TORSDOF 9
