REMARK  Name = ZINC02314263
REMARK  15 active torsions:
REMARK  status: ('A' for Active; 'I' for Inactive)
REMARK    1  A    between atoms: C_1  and  C_2
REMARK    2  A    between atoms: N_8  and  S_9
REMARK    3  A    between atoms: S_9  and  C_12
REMARK    4  A    between atoms: C_15  and  N_18
REMARK    5  A    between atoms: N_18  and  S_19
REMARK    6  A    between atoms: S_19  and  C_22
REMARK    7  A    between atoms: C_23  and  C_34
REMARK    8  A    between atoms: C_25  and  C_31
REMARK    9  A    between atoms: C_27  and  C_28
REMARK   10  A    between atoms: C_28  and  C_29
REMARK   11  A    between atoms: C_28  and  C_30
REMARK   12  A    between atoms: C_31  and  C_32
REMARK   13  A    between atoms: C_31  and  C_33
REMARK   14  A    between atoms: C_34  and  C_35
REMARK   15  A    between atoms: C_34  and  C_36
REMARK                            x       y       z     vdW  Elec       q    Type
REMARK                         _______ _______ _______ _____ _____    ______ ____
ROOT
ATOM      1  N   UNL     1      -6.779   0.322   9.220  0.00  0.00    -0.216 N 
ATOM      2  H   UNL     1      -7.215  -0.441   9.631  0.00  0.00    +0.174 HD
ENDROOT
BRANCH   1   6
ATOM      3  C   UNL     1      -2.766   0.095   8.135  0.00  0.00    +0.109 A 
ATOM      4  C   UNL     1      -3.690   0.625   7.253  0.00  0.00    +0.030 A 
ATOM      5  C   UNL     1      -5.023   0.696   7.608  0.00  0.00    +0.026 A 
ATOM      6  C   UNL     1      -5.433   0.245   8.856  0.00  0.00    +0.048 A 
ATOM      7  C   UNL     1      -4.501  -0.281   9.741  0.00  0.00    +0.026 A 
ATOM      8  C   UNL     1      -3.171  -0.355   9.378  0.00  0.00    +0.030 A 
BRANCH   3   9
ATOM      9  S   UNL     1      -1.068  -0.001   7.675  0.00  0.00    +0.075 S 
ATOM     10  O   UNL     1      -0.321  -0.027   8.884  0.00  0.00    -0.150 OA
ATOM     11  O   UNL     1      -0.862   0.986   6.674  0.00  0.00    -0.150 OA
BRANCH   9  19
ATOM     12  C   UNL     1      -1.165  -4.263   3.066  0.00  0.00    +0.066 C 
ATOM     13  C   UNL     1      -1.639  -3.084   3.877  0.00  0.00    +0.043 A 
ATOM     14  C   UNL     1      -2.685  -2.296   3.424  0.00  0.00    +0.043 A 
ATOM     15  C   UNL     1      -3.094  -1.225   4.204  0.00  0.00    +0.116 A 
ATOM     16  N   UNL     1      -2.470  -0.983   5.345  0.00  0.00    -0.222 NA
ATOM     17  C   UNL     1      -1.470  -1.753   5.747  0.00  0.00    +0.235 A 
ATOM     18  N   UNL     1      -1.059  -2.787   5.028  0.00  0.00    -0.219 NA
ATOM     19  N   UNL     1      -0.840  -1.470   6.946  0.00  0.00    -0.184 N 
ATOM     20  H   UNL     1      -0.265  -2.133   7.360  0.00  0.00    +0.177 HD
ENDBRANCH   9  19
ENDBRANCH   3   9
ENDBRANCH   1   6
BRANCH   1  21
ATOM     21  S   UNL     1      -7.632   1.715   8.951  0.00  0.00    +0.073 S 
ATOM     22  O   UNL     1      -8.957   1.476   9.407  0.00  0.00    -0.150 OA
ATOM     23  O   UNL     1      -6.836   2.782   9.449  0.00  0.00    -0.150 OA
BRANCH  21  24
ATOM     24  C   UNL     1      -7.733   1.935   7.205  0.00  0.00    +0.115 A 
ATOM     25  C   UNL     1      -6.896   2.834   6.572  0.00  0.00    -0.018 A 
ATOM     26  C   UNL     1      -6.972   3.004   5.202  0.00  0.00    +0.009 A 
ATOM     27  C   UNL     1      -7.892   2.280   4.467  0.00  0.00    -0.044 A 
ATOM     28  C   UNL     1      -8.733   1.384   5.101  0.00  0.00    +0.009 A 
ATOM     29  C   UNL     1      -8.654   1.212   6.470  0.00  0.00    -0.018 A 
BRANCH  29  30
ATOM     30  C   UNL     1      -9.570   0.235   7.161  0.00  0.00    +0.015 C 
ATOM     31  C   UNL     1     -11.010   0.748   7.086  0.00  0.00    +0.012 C 
ATOM     32  C   UNL     1      -9.477  -1.127   6.471  0.00  0.00    +0.012 C 
ENDBRANCH  29  30
BRANCH  27  33
ATOM     33  C   UNL     1      -7.979   2.468   2.974  0.00  0.00    +0.013 C 
ATOM     34  C   UNL     1      -8.321   3.926   2.663  0.00  0.00    +0.012 C 
ATOM     35  C   UNL     1      -6.634   2.112   2.336  0.00  0.00    +0.012 C 
ENDBRANCH  27  33
BRANCH  25  36
ATOM     36  C   UNL     1      -5.897   3.627   7.375  0.00  0.00    +0.015 C 
ATOM     37  C   UNL     1      -4.702   3.988   6.489  0.00  0.00    +0.012 C 
ATOM     38  C   UNL     1      -6.557   4.909   7.888  0.00  0.00    +0.012 C 
ENDBRANCH  25  36
ENDBRANCH  21  24
ENDBRANCH   1  21
TORSDOF 8
