REMARK  Name = ZINC28933224
REMARK  8 active torsions:
REMARK  status: ('A' for Active; 'I' for Inactive)
REMARK    1  A    between atoms: C_1  and  C_2
REMARK    2  A    between atoms: C_7  and  N_8
REMARK    3  A    between atoms: C_9  and  C_30
REMARK    4  A    between atoms: C_12  and  S_13
REMARK    5  A    between atoms: S_13  and  C_14
REMARK    6  A    between atoms: C_14  and  C_15
REMARK    7  A    between atoms: C_17  and  O_18
REMARK    8  A    between atoms: C_27  and  C_29
REMARK                            x       y       z     vdW  Elec       q    Type
REMARK                         _______ _______ _______ _____ _____    ______ ____
ROOT
ATOM      1  S   UNL     1       1.393   3.283   0.126  0.00  0.00    -0.081 S 
ENDROOT
BRANCH   1   6
ATOM      2  N   UNL     1       1.404   0.483   0.147  0.00  0.00    -0.270 N 
ATOM      3  C   UNL     1       0.454  -0.512   0.084  0.00  0.00    +0.171 A 
ATOM      4  N   UNL     1      -0.716   0.077  -0.005  0.00  0.00    -0.128 NA
ATOM      5  N   UNL     1      -0.567   1.353  -0.003  0.00  0.00    -0.122 NA
ATOM      6  C   UNL     1       0.708   1.660   0.088  0.00  0.00    +0.197 A 
BRANCH   2  13
ATOM      7  C   UNL     1       2.557   0.360   2.747  0.00  0.00    +0.046 C 
ATOM      8  C   UNL     1       3.395   0.260   1.499  0.00  0.00    -0.026 A 
ATOM      9  C   UNL     1       4.764   0.097   1.597  0.00  0.00    +0.005 A 
ATOM     10  C   UNL     1       5.535   0.011   0.452  0.00  0.00    +0.000 A 
ATOM     11  C   UNL     1       4.938   0.081  -0.794  0.00  0.00    +0.002 A 
ATOM     12  C   UNL     1       3.570   0.238  -0.898  0.00  0.00    +0.026 A 
ATOM     13  C   UNL     1       2.793   0.325   0.250  0.00  0.00    +0.053 A 
ENDBRANCH   2  13
BRANCH   3  14
ATOM     14  C   UNL     1       0.705  -1.969   0.113  0.00  0.00    +0.038 A 
ATOM     15  C   UNL     1      -0.297  -2.871  -0.267  0.00  0.00    +0.014 A 
ATOM     16  C   UNL     1      -0.011  -4.224  -0.223  0.00  0.00    +0.020 A 
ATOM     17  C   UNL     1       1.242  -4.639   0.190  0.00  0.00    +0.111 A 
ATOM     18  N   UNL     1       2.167  -3.766   0.542  0.00  0.00    -0.263 NA
ATOM     19  C   UNL     1       1.945  -2.468   0.512  0.00  0.00    +0.122 A 
ENDBRANCH   3  14
ENDBRANCH   1   6
BRANCH   1  20
ATOM     20  C   UNL     1      -0.122   4.266   0.009  0.00  0.00    +0.113 C 
BRANCH  20  21
ATOM     21  C   UNL     1       0.228   5.732   0.024  0.00  0.00    -0.020 A 
ATOM     22  C   UNL     1       0.474   6.402  -1.132  0.00  0.00    +0.092 A 
ATOM     23  C   UNL     1       0.799   7.774  -1.092  0.00  0.00    +0.285 A 
ATOM     24  O   UNL     1       0.874   8.447   0.067  0.00  0.00    -0.425 OA
ATOM     25  C   UNL     1       0.641   7.840   1.251  0.00  0.00    +0.141 A 
ATOM     26  C   UNL     1       0.305   6.474   1.284  0.00  0.00    +0.022 A 
ATOM     27  C   UNL     1       0.068   5.840   2.509  0.00  0.00    +0.013 A 
ATOM     28  C   UNL     1       0.152   6.552   3.669  0.00  0.00    +0.024 A 
ATOM     29  C   UNL     1       0.479   7.908   3.643  0.00  0.00    +0.037 A 
ATOM     30  C   UNL     1       0.723   8.550   2.439  0.00  0.00    +0.070 A 
ATOM     31  N   UNL     1       0.562   8.623   4.838  0.00  0.00    -0.286 N 
ATOM     32  C   UNL     1       0.203   9.922   4.873  0.00  0.00    +0.214 C 
ATOM     33  O   UNL     1      -0.281  10.443   3.891  0.00  0.00    -0.276 OA
ATOM     34  C   UNL     1       0.404  10.726   6.131  0.00  0.00    +0.109 C 
ATOM     35  H   UNL     1       0.920   8.127   5.753  0.00  0.00    +0.155 HD
BRANCH  23  36
ATOM     36  O   UNL     1       1.018   8.362  -2.135  0.00  0.00    -0.480 OA
ATOM     37  H   UNL     1       1.273   9.432  -2.120  0.00  0.00    +0.295 HD
ENDBRANCH  23  36
ENDBRANCH  20  21
ENDBRANCH   1  20
TORSDOF 6
