REMARK  Name = ZINC17424435
REMARK  16 active torsions:
REMARK  status: ('A' for Active; 'I' for Inactive)
REMARK    1  A    between atoms: C_1  and  C_2
REMARK    2  A    between atoms: C_2  and  N_3
REMARK    3  A    between atoms: N_3  and  C_4
REMARK    4  A    between atoms: N_3  and  C_6
REMARK    5  A    between atoms: C_4  and  C_5
REMARK    6  A    between atoms: C_6  and  C_7
REMARK    7  A    between atoms: C_7  and  C_8
REMARK    8  A    between atoms: C_8  and  C_9
REMARK    9  A    between atoms: C_9  and  C_11
REMARK   10  A    between atoms: C_9  and  N_12
REMARK   11  A    between atoms: N_12  and  C_13
REMARK   12  A    between atoms: C_21  and  C_23
REMARK   13  A    between atoms: N_30  and  C_31
REMARK   14  A    between atoms: C_31  and  O_33
REMARK   15  A    between atoms: O_33  and  C_34
REMARK   16  A    between atoms: C_34  and  C_35
REMARK                            x       y       z     vdW  Elec       q    Type
REMARK                         _______ _______ _______ _____ _____    ______ ____
ROOT
ATOM      1  C   UNL     1       2.288  -4.410   5.758  0.00  0.00    +0.060 A 
ATOM      2  C   UNL     1       3.662  -4.487   5.868  0.00  0.00    +0.069 A 
ATOM      3  C   UNL     1       4.269  -4.391   7.125  0.00  0.00    +0.130 A 
ATOM      4  N   UNL     1       3.534  -4.221   8.264  0.00  0.00    -0.325 N 
ATOM      5  C   UNL     1       2.161  -4.137   8.220  0.00  0.00    +0.160 A 
ATOM      6  C   UNL     1       1.495  -4.221   6.982  0.00  0.00    +0.127 A 
ATOM      7  N   UNL     1       0.168  -4.135   6.929  0.00  0.00    -0.248 NA
ATOM      8  C   UNL     1      -0.522  -3.966   8.037  0.00  0.00    +0.140 A 
ATOM      9  C   UNL     1       0.135  -3.876   9.270  0.00  0.00    +0.091 A 
ATOM     10  N   UNL     1       1.458  -3.973   9.333  0.00  0.00    -0.226 NA
ATOM     11  N   UNL     1       5.600  -4.468   7.213  0.00  0.00    -0.126 NA
ATOM     12  H   UNL     1       3.988  -4.159   9.119  0.00  0.00    +0.169 HD
ENDROOT
BRANCH   9  13
ATOM     13  C   UNL     1      -0.650  -3.686  10.512  0.00  0.00    +0.002 A 
ATOM     14  C   UNL     1       0.002  -3.486  11.729  0.00  0.00    +0.011 A 
ATOM     15  C   UNL     1      -0.734  -3.309  12.882  0.00  0.00    +0.020 A 
ATOM     16  C   UNL     1      -2.118  -3.331  12.834  0.00  0.00    +0.041 A 
ATOM     17  C   UNL     1      -2.770  -3.530  11.628  0.00  0.00    +0.020 A 
ATOM     18  C   UNL     1      -2.044  -3.701  10.468  0.00  0.00    +0.011 A 
ATOM     19 CL   UNL     1      -3.038  -3.108  14.289  0.00  0.00    -0.084 Cl
ENDBRANCH   9  13
BRANCH   1  20
ATOM     20  N   UNL     1       1.673  -4.502   4.527  0.00  0.00    -0.339 N 
ATOM     21  H   UNL     1       0.707  -4.443   4.462  0.00  0.00    +0.146 HD
BRANCH  20  22
ATOM     22  C   UNL     1       2.479  -4.691   3.318  0.00  0.00    +0.067 C 
ATOM     23  C   UNL     1       2.765  -6.181   3.123  0.00  0.00    +0.028 C 
BRANCH  22  24
ATOM     24  C   UNL     1       1.713  -4.156   2.106  0.00  0.00    +0.020 C 
BRANCH  24  25
ATOM     25  C   UNL     1       1.535  -2.643   2.243  0.00  0.00    -0.017 C 
BRANCH  25  26
ATOM     26  C   UNL     1       0.769  -2.108   1.031  0.00  0.00    -0.079 C 
BRANCH  26  27
ATOM     27  N   UNL     1       0.482  -0.680   1.224  0.00  0.00    +0.379 N 
ATOM     28  H   UNL     1      -0.001  -0.549   2.100  0.00  0.00    -0.082 HD
BRANCH  27  30
ATOM     29  C   UNL     1       1.454   1.542   1.568  0.00  0.00    -0.017 C 
ATOM     30  C   UNL     1       1.743   0.074   1.243  0.00  0.00    -0.082 C 
ENDBRANCH  27  30
BRANCH  27  31
ATOM     31  C   UNL     1      -0.361  -0.197   0.123  0.00  0.00    -0.082 C 
ATOM     32  C   UNL     1      -1.732  -0.872   0.196  0.00  0.00    -0.017 C 
ENDBRANCH  27  31
ENDBRANCH  26  27
ENDBRANCH  25  26
ENDBRANCH  24  25
ENDBRANCH  22  24
ENDBRANCH  20  22
ENDBRANCH   1  20
BRANCH  11  33
ATOM     33  C   UNL     1       6.189  -4.476   8.409  0.00  0.00    +0.426 C 
ATOM     34  O   UNL     1       6.684  -5.503   8.839  0.00  0.00    -0.224 OA
BRANCH  33  35
ATOM     35  O   UNL     1       6.238  -3.344   9.145  0.00  0.00    -0.449 OA
BRANCH  35  36
ATOM     36  C   UNL     1       6.884  -3.424  10.417  0.00  0.00    +0.230 C 
ATOM     37  C   UNL     1       6.840  -2.055  11.099  0.00  0.00    +0.048 C 
ENDBRANCH  35  36
ENDBRANCH  33  35
ENDBRANCH  11  33
TORSDOF 12
