REMARK  Name = ZINC09836254
REMARK  9 active torsions:
REMARK  status: ('A' for Active; 'I' for Inactive)
REMARK    1  A    between atoms: C_1  and  C_2
REMARK    2  A    between atoms: C_3  and  N_15
REMARK    3  A    between atoms: N_6  and  C_9
REMARK    4  A    between atoms: N_7  and  C_8
REMARK    5  A    between atoms: C_16  and  C_18
REMARK    6  A    between atoms: C_18  and  O_19
REMARK    7  A    between atoms: O_19  and  C_20
REMARK    8  A    between atoms: C_20  and  C_22
REMARK    9  A    between atoms: C_27  and  N_28
REMARK                            x       y       z     vdW  Elec       q    Type
REMARK                         _______ _______ _______ _____ _____    ______ ____
ROOT
ATOM      1  N   UNL     1      -2.158  -0.634   2.062  0.00  0.00    -0.277 N 
ATOM      2  C   UNL     1      -1.166  -1.037   2.882  0.00  0.00    +0.255 C 
ATOM      3  O   UNL     1      -0.642  -0.244   3.635  0.00  0.00    -0.272 OA
ATOM      4  H   UNL     1      -2.628  -1.282   1.515  0.00  0.00    +0.155 HD
ENDROOT
BRANCH   1   7
ATOM      5  C   UNL     1      -2.246   1.033  -0.512  0.00  0.00    +0.067 C 
ATOM      6  C   UNL     1      -2.561   1.494   0.888  0.00  0.00    +0.059 A 
ATOM      7  C   UNL     1      -2.511   0.728   2.001  0.00  0.00    +0.121 A 
ATOM      8  C   UNL     1      -2.891   1.578   3.130  0.00  0.00    +0.293 A 
ATOM      9  O   UNL     1      -2.963   1.242   4.298  0.00  0.00    -0.264 OA
ATOM     10  N   UNL     1      -3.147   2.805   2.629  0.00  0.00    -0.216 N 
ATOM     11  N   UNL     1      -2.940   2.761   1.246  0.00  0.00    -0.282 N 
ATOM     12  C   UNL     1      -3.106   3.889   0.326  0.00  0.00    +0.171 C 
BRANCH  10  13
ATOM     13  C   UNL     1      -3.545   3.925   3.365  0.00  0.00    +0.067 A 
ATOM     14  C   UNL     1      -2.862   4.276   4.523  0.00  0.00    +0.028 A 
ATOM     15  C   UNL     1      -3.253   5.387   5.244  0.00  0.00    +0.002 A 
ATOM     16  C   UNL     1      -4.330   6.143   4.821  0.00  0.00    +0.000 A 
ATOM     17  C   UNL     1      -5.016   5.794   3.672  0.00  0.00    +0.002 A 
ATOM     18  C   UNL     1      -4.626   4.688   2.943  0.00  0.00    +0.028 A 
ENDBRANCH  10  13
ENDBRANCH   1   7
BRANCH   2  19
ATOM     19  C   UNL     1      -0.709  -2.473   2.862  0.00  0.00    +0.328 C 
BRANCH  19  20
ATOM     20  O   UNL     1       0.361  -2.654   3.827  0.00  0.00    -0.452 OA
BRANCH  20  21
ATOM     21  C   UNL     1       0.885  -3.890   3.935  0.00  0.00    +0.341 C 
ATOM     22  O   UNL     1       0.461  -4.793   3.241  0.00  0.00    -0.245 OA
BRANCH  21  23
ATOM     23  C   UNL     1       1.974  -4.148   4.893  0.00  0.00    +0.081 A 
ATOM     24  C   UNL     1       2.408  -3.134   5.753  0.00  0.00    +0.017 A 
ATOM     25  C   UNL     1       3.426  -3.381   6.647  0.00  0.00    +0.002 A 
ATOM     26  C   UNL     1       4.024  -4.631   6.701  0.00  0.00    +0.022 A 
ATOM     27  C   UNL     1       3.607  -5.642   5.859  0.00  0.00    +0.062 A 
ATOM     28  C   UNL     1       2.578  -5.413   4.953  0.00  0.00    +0.057 A 
ATOM     29 CL   UNL     1       4.364  -7.202   5.936  0.00  0.00    -0.082 Cl
BRANCH  28  30
ATOM     30  N   UNL     1       2.152  -6.431   4.108  0.00  0.00    -0.356 N 
ATOM     31  H   UNL     1       2.774  -7.122   3.830  0.00  0.00    +0.142 HD
ATOM     32  H   UNL     1       1.234  -6.450   3.796  0.00  0.00    +0.142 HD
ENDBRANCH  28  30
ENDBRANCH  21  23
ENDBRANCH  20  21
ENDBRANCH  19  20
ENDBRANCH   2  19
TORSDOF 7
