REMARK  Name = ZINC35747678
REMARK  14 active torsions:
REMARK  status: ('A' for Active; 'I' for Inactive)
REMARK    1  A    between atoms: C_1  and  C_2
REMARK    2  A    between atoms: C_5  and  C_9
REMARK    3  A    between atoms: C_6  and  C_8
REMARK    4  A    between atoms: C_18  and  C_20
REMARK    5  A    between atoms: C_20  and  N_21
REMARK    6  A    between atoms: N_21  and  C_22
REMARK    7  A    between atoms: N_21  and  C_28
REMARK    8  A    between atoms: C_22  and  C_23
REMARK    9  A    between atoms: C_28  and  C_29
REMARK   10  A    between atoms: C_29  and  C_31
REMARK   11  A    between atoms: C_29  and  O_36
REMARK   12  A    between atoms: C_31  and  O_32
REMARK   13  A    between atoms: O_32  and  C_33
REMARK   14  A    between atoms: C_33  and  C_34
REMARK                            x       y       z     vdW  Elec       q    Type
REMARK                         _______ _______ _______ _____ _____    ______ ____
ROOT
ATOM      1  C   UNL     1       0.918  -4.552   0.440  0.00  0.00    +0.004 A 
ATOM      2  C   UNL     1       1.988  -5.339   0.174  0.00  0.00    +0.056 A 
ATOM      3  S   UNL     1       1.337  -6.990   0.336  0.00  0.00    -0.076 S 
ATOM      4  C   UNL     1      -0.340  -6.590   0.753  0.00  0.00    +0.116 A 
ATOM      5  C   UNL     1      -0.355  -5.186   0.763  0.00  0.00    +0.080 A 
ATOM      6  C   UNL     1      -1.613  -4.582   1.082  0.00  0.00    +0.260 A 
ATOM      7  O   UNL     1      -1.727  -3.369   1.111  0.00  0.00    -0.267 OA
ATOM      8  N   UNL     1      -2.668  -5.374   1.349  0.00  0.00    -0.312 N 
ATOM      9  H   UNL     1      -3.523  -4.970   1.566  0.00  0.00    +0.170 HD
ATOM     10  C   UNL     1      -2.559  -6.727   1.321  0.00  0.00    +0.094 A 
ATOM     11  N   UNL     1      -1.428  -7.307   1.023  0.00  0.00    -0.229 NA
ENDROOT
BRANCH   1  16
ATOM     12  C   UNL     1       1.389   1.185   0.322  0.00  0.00    +0.044 C 
ATOM     13  C   UNL     1       1.266  -0.316   0.353  0.00  0.00    -0.050 A 
ATOM     14  C   UNL     1       1.432  -1.045  -0.811  0.00  0.00    +0.004 A 
ATOM     15  C   UNL     1       1.320  -2.421  -0.789  0.00  0.00    +0.009 A 
ATOM     16  C   UNL     1       1.040  -3.075   0.410  0.00  0.00    -0.014 A 
ATOM     17  C   UNL     1       0.873  -2.335   1.580  0.00  0.00    -0.042 A 
ATOM     18  C   UNL     1       0.993  -0.961   1.546  0.00  0.00    +0.007 A 
ATOM     19  C   UNL     1       0.570  -3.035   2.879  0.00  0.00    +0.044 C 
ENDBRANCH   1  16
BRANCH  10  20
ATOM     20  C   UNL     1      -3.768  -7.573   1.626  0.00  0.00    -0.003 C 
BRANCH  20  21
ATOM     21  N   UNL     1      -3.407  -8.994   1.534  0.00  0.00    +0.391 N 
ATOM     22  H   UNL     1      -3.004  -9.180   0.627  0.00  0.00    -0.080 HD
BRANCH  21  23
ATOM     23  C   UNL     1      -2.429  -9.320   2.581  0.00  0.00    -0.002 C 
BRANCH  23  24
ATOM     24  C   UNL     1      -1.951 -10.737   2.397  0.00  0.00    +0.089 A 
ATOM     25  C   UNL     1      -0.961 -11.133   1.577  0.00  0.00    +0.042 A 
ATOM     26  C   UNL     1      -0.848 -12.536   1.719  0.00  0.00    +0.041 A 
ATOM     27  C   UNL     1      -1.775 -12.912   2.618  0.00  0.00    +0.195 A 
ATOM     28  O   UNL     1      -2.437 -11.818   3.029  0.00  0.00    -0.470 OA
ENDBRANCH  23  24
ENDBRANCH  21  23
BRANCH  21  29
ATOM     29  C   UNL     1      -4.610  -9.818   1.713  0.00  0.00    -0.044 C 
BRANCH  29  30
ATOM     30  C   UNL     1      -5.568  -9.584   0.543  0.00  0.00    +0.124 C 
BRANCH  30  31
ATOM     31  O   UNL     1      -4.936  -9.978  -0.676  0.00  0.00    -0.391 OA
ATOM     32  H   UNL     1      -4.739 -10.923  -0.729  0.00  0.00    +0.210 HD
ENDBRANCH  30  31
BRANCH  30  33
ATOM     33  C   UNL     1      -6.838 -10.412   0.750  0.00  0.00    +0.189 C 
BRANCH  33  34
ATOM     34  O   UNL     1      -7.779 -10.105  -0.280  0.00  0.00    -0.373 OA
BRANCH  34  35
ATOM     35  C   UNL     1      -9.007 -10.828  -0.179  0.00  0.00    +0.186 C 
BRANCH  35  36
ATOM     36  C   UNL     1      -9.920 -10.429  -1.309  0.00  0.00    -0.007 C 
ATOM     37  C   UNL     1     -10.569 -11.346  -1.982  0.00  0.00    +0.006 C 
ENDBRANCH  35  36
ENDBRANCH  34  35
ENDBRANCH  33  34
ENDBRANCH  30  33
ENDBRANCH  29  30
ENDBRANCH  21  29
ENDBRANCH  20  21
ENDBRANCH  10  20
TORSDOF 12
