REMARK  Name = ZINC13781163
REMARK  8 active torsions:
REMARK  status: ('A' for Active; 'I' for Inactive)
REMARK    1  A    between atoms: C_10  and  S_11
REMARK    2  A    between atoms: S_11  and  N_14
REMARK    3  A    between atoms: N_14  and  C_15
REMARK    4  A    between atoms: C_24  and  C_28
REMARK    5  A    between atoms: N_30  and  C_31
REMARK    6  A    between atoms: C_31  and  C_32
REMARK    7  A    between atoms: C_32  and  C_33
REMARK    8  A    between atoms: C_33  and  N_34
REMARK                            x       y       z     vdW  Elec       q    Type
REMARK                         _______ _______ _______ _____ _____    ______ ____
ROOT
ATOM      1  C   UNL     1       4.145  -2.551  -0.065  0.00  0.00    +0.162 C 
ATOM      2  C   UNL     1       5.482  -2.274   0.617  0.00  0.00    +0.032 C 
ATOM      3  C   UNL     1       5.862  -3.461   1.511  0.00  0.00    +0.035 C 
ATOM      4  C   UNL     1       4.863  -3.519   2.668  0.00  0.00    +0.135 C 
ATOM      5  N   UNL     1       3.497  -3.621   2.090  0.00  0.00    -0.276 N 
ATOM      6  C   UNL     1       3.135  -3.070   0.918  0.00  0.00    +0.236 C 
ATOM      7  O   UNL     1       1.956  -2.987   0.647  0.00  0.00    -0.274 OA
ATOM      8  C   UNL     1       2.613  -4.412   2.967  0.00  0.00    +0.173 C 
ATOM      9  C   UNL     1       3.331  -5.771   3.249  0.00  0.00    +0.103 C 
ATOM     10  S   UNL     1       5.039  -5.129   3.542  0.00  0.00    -0.136 S 
ENDROOT
BRANCH   8  11
ATOM     11  C   UNL     1       2.384  -3.676   4.262  0.00  0.00    +0.234 C 
ATOM     12  O   UNL     1       2.903  -2.595   4.445  0.00  0.00    -0.274 OA
ATOM     13  N   UNL     1       1.601  -4.218   5.216  0.00  0.00    -0.314 N 
ATOM     14  H   UNL     1       1.186  -5.082   5.069  0.00  0.00    +0.149 HD
BRANCH  13  15
ATOM     15  C   UNL     1       1.379  -3.502   6.475  0.00  0.00    +0.106 C 
BRANCH  15  16
ATOM     16  C   UNL     1       0.461  -4.330   7.377  0.00  0.00    +0.040 C 
BRANCH  16  17
ATOM     17  C   UNL     1       0.228  -3.582   8.691  0.00  0.00    +0.117 C 
BRANCH  17  18
ATOM     18  N   UNL     1      -0.650  -4.375   9.555  0.00  0.00    -0.358 N 
ATOM     19  C   UNL     1      -1.002  -3.902  10.797  0.00  0.00    +0.166 C 
ATOM     20  N   UNL     1      -0.529  -2.685  11.228  0.00  0.00    -0.372 N 
ATOM     21  H   UNL     1      -0.984  -5.233   9.250  0.00  0.00    +0.162 HD
ATOM     22  H   UNL     1      -2.088  -4.359  12.458  0.00  0.00    +0.159 HD
ATOM     23  H   UNL     1       0.052  -2.160  10.656  0.00  0.00    +0.159 HD
ATOM     24  H   UNL     1      -0.778  -2.352  12.105  0.00  0.00    +0.159 HD
ATOM     25  N   UNL     1      -1.799  -4.666  11.529  0.00  0.00    -0.372 N 
ATOM     26  H   UNL     1      -2.126  -5.568  11.162  0.00  0.00    +0.159 HD
ENDBRANCH  17  18
ENDBRANCH  16  17
ENDBRANCH  15  16
ENDBRANCH  13  15
ENDBRANCH   8  11
BRANCH   1  27
ATOM     27  N   UNL     1       3.643  -1.312  -0.662  0.00  0.00    -0.178 NA
ATOM     28  H   UNL     1       3.713  -0.476  -0.175  0.00  0.00    +0.149 HD
BRANCH  27  29
ATOM     29  S   UNL     1       2.956  -1.337  -2.169  0.00  0.00    +0.060 S 
ATOM     30  O   UNL     1       3.825  -2.094  -2.999  0.00  0.00    -0.153 OA
ATOM     31  O   UNL     1       2.590   0.003  -2.470  0.00  0.00    -0.153 OA
BRANCH  29  41
ATOM     32  C   UNL     1      -1.730  -0.844   0.267  0.00  0.00    +0.001 A 
ATOM     33  C   UNL     1      -0.551  -0.105   0.179  0.00  0.00    +0.001 A 
ATOM     34  C   UNL     1       0.498  -0.546  -0.568  0.00  0.00    +0.010 A 
ATOM     35  C   UNL     1       0.394  -1.765  -1.262  0.00  0.00    +0.008 A 
ATOM     36  C   UNL     1      -0.805  -2.515  -1.172  0.00  0.00    -0.016 A 
ATOM     37  C   UNL     1      -1.866  -2.027  -0.391  0.00  0.00    +0.008 A 
ATOM     38  C   UNL     1      -0.908  -3.733  -1.865  0.00  0.00    +0.008 A 
ATOM     39  C   UNL     1       0.141  -4.175  -2.611  0.00  0.00    +0.003 A 
ATOM     40  C   UNL     1       1.320  -3.437  -2.699  0.00  0.00    +0.029 A 
ATOM     41  C   UNL     1       1.456  -2.253  -2.042  0.00  0.00    +0.113 A 
ENDBRANCH  29  41
ENDBRANCH  27  29
ENDBRANCH   1  27
TORSDOF 8
