REMARK  Name = ZINC33650508
REMARK  9 active torsions:
REMARK  status: ('A' for Active; 'I' for Inactive)
REMARK    1  A    between atoms: C_1  and  C_2
REMARK    2  A    between atoms: C_5  and  C_41
REMARK    3  A    between atoms: C_6  and  C_8
REMARK    4  A    between atoms: N_16  and  C_19
REMARK    5  A    between atoms: C_19  and  C_20
REMARK    6  A    between atoms: C_26  and  C_28
REMARK    7  A    between atoms: C_26  and  C_38
REMARK    8  A    between atoms: C_28  and  C_29
REMARK    9  A    between atoms: C_32  and  N_35
REMARK                            x       y       z     vdW  Elec       q    Type
REMARK                         _______ _______ _______ _____ _____    ______ ____
ROOT
ATOM      1  C   UNL     1      -0.439   3.543   2.243  0.00  0.00    -0.026 C 
ATOM      2  C   UNL     1      -0.938   2.268   2.933  0.00  0.00    +0.077 C 
ATOM      3  C   UNL     1      -0.617   1.289   1.732  0.00  0.00    +0.086 C 
ATOM      4  C   UNL     1      -0.659   0.004   2.395  0.00  0.00    +0.225 C 
ATOM      5  O   UNL     1      -1.062  -1.048   1.947  0.00  0.00    -0.275 OA
ATOM      6  N   UNL     1      -0.141   0.243   3.644  0.00  0.00    -0.237 N 
ATOM      7  C   UNL     1      -0.054   1.575   3.933  0.00  0.00    +0.225 C 
ATOM      8  O   UNL     1       0.601   2.092   4.813  0.00  0.00    -0.275 OA
ATOM      9  C   UNL     1      -1.232   1.972   0.583  0.00  0.00    +0.052 C 
ATOM     10  N   UNL     1      -1.040   3.432   0.874  0.00  0.00    +0.396 N 
ATOM     11  H   UNL     1      -2.005   3.958   0.853  0.00  0.00    -0.083 HD
ATOM     12  H   UNL     1      -0.359   3.884   0.137  0.00  0.00    -0.083 HD
ENDROOT
BRANCH   1  18
ATOM     13  C   UNL     1      -3.579   5.672   5.506  0.00  0.00    +0.044 C 
ATOM     14  C   UNL     1      -2.448   5.788   4.517  0.00  0.00    -0.050 A 
ATOM     15  C   UNL     1      -1.876   7.021   4.263  0.00  0.00    +0.003 A 
ATOM     16  C   UNL     1      -0.839   7.128   3.355  0.00  0.00    +0.004 A 
ATOM     17  C   UNL     1      -0.374   6.002   2.702  0.00  0.00    -0.049 A 
ATOM     18  C   UNL     1      -0.946   4.770   2.956  0.00  0.00    -0.057 A 
ATOM     19  C   UNL     1      -1.986   4.664   3.860  0.00  0.00    +0.005 A 
ATOM     20  C   UNL     1       0.756   6.119   1.712  0.00  0.00    +0.044 C 
ENDBRANCH   1  18
BRANCH   9  21
ATOM     21  C   UNL     1      -2.699   1.639   0.495  0.00  0.00    +0.347 C 
ATOM     22  O   UNL     1      -3.109   0.594   0.944  0.00  0.00    -0.248 OA
ATOM     23  O   UNL     1      -3.550   2.502  -0.082  0.00  0.00    -0.248 OA
ENDBRANCH   9  21
BRANCH   6  24
ATOM     24  C   UNL     1       0.272  -0.817   4.567  0.00  0.00    +0.151 C 
BRANCH  24  25
ATOM     25  C   UNL     1      -0.897  -1.213   5.432  0.00  0.00    -0.030 A 
ATOM     26  C   UNL     1      -1.113  -0.573   6.638  0.00  0.00    +0.005 A 
ATOM     27  C   UNL     1      -2.187  -0.933   7.429  0.00  0.00    +0.000 A 
ATOM     28  C   UNL     1      -3.041  -1.940   7.019  0.00  0.00    +0.000 A 
ATOM     29  C   UNL     1      -2.822  -2.584   5.816  0.00  0.00    +0.000 A 
ATOM     30  C   UNL     1      -1.750  -2.221   5.022  0.00  0.00    +0.005 A 
ENDBRANCH  24  25
ENDBRANCH   6  24
BRANCH   9  31
ATOM     31  C   UNL     1      -0.518   1.587  -0.714  0.00  0.00    +0.035 C 
BRANCH  31  32
ATOM     32  C   UNL     1      -1.084   2.390  -1.857  0.00  0.00    -0.048 A 
ATOM     33  C   UNL     1      -2.156   1.902  -2.580  0.00  0.00    +0.006 A 
ATOM     34  C   UNL     1      -2.679   2.640  -3.626  0.00  0.00    +0.033 A 
ATOM     35  C   UNL     1      -2.122   3.862  -3.954  0.00  0.00    +0.126 A 
ATOM     36  C   UNL     1      -1.046   4.348  -3.235  0.00  0.00    +0.033 A 
ATOM     37  C   UNL     1      -0.527   3.611  -2.186  0.00  0.00    +0.006 A 
BRANCH  35  38
ATOM     38  N   UNL     1      -2.678   4.651  -5.077  0.00  0.00    +0.056 N 
ATOM     39  O   UNL     1      -2.187   5.728  -5.366  0.00  0.00    -0.126 OA
ATOM     40  O   UNL     1      -3.626   4.223  -5.711  0.00  0.00    -0.126 OA
ENDBRANCH  35  38
ENDBRANCH  31  32
ENDBRANCH   9  31
TORSDOF 7
