REMARK  Name = ZINC09391500
REMARK  12 active torsions:
REMARK  status: ('A' for Active; 'I' for Inactive)
REMARK    1  A    between atoms: C_1  and  C_2
REMARK    2  A    between atoms: N_8  and  S_9
REMARK    3  A    between atoms: S_9  and  C_12
REMARK    4  A    between atoms: C_15  and  C_18
REMARK    5  A    between atoms: N_20  and  C_21
REMARK    6  A    between atoms: C_22  and  C_33
REMARK    7  A    between atoms: C_26  and  C_31
REMARK    8  A    between atoms: C_26  and  C_32
REMARK    9  A    between atoms: C_27  and  C_29
REMARK   10  A    between atoms: C_27  and  C_30
REMARK   11  A    between atoms: C_33  and  O_35
REMARK   12  A    between atoms: O_35  and  C_36
REMARK                            x       y       z     vdW  Elec       q    Type
REMARK                         _______ _______ _______ _____ _____    ______ ____
ROOT
ATOM      1  C   UNL     1      -5.183   3.664  -4.982  0.00  0.00    +0.249 C 
ATOM      2  O   UNL     1      -4.968   4.793  -5.377  0.00  0.00    -0.270 OA
ATOM      3  N   UNL     1      -4.327   3.077  -4.122  0.00  0.00    -0.275 N 
ATOM      4  H   UNL     1      -4.498   2.175  -3.807  0.00  0.00    +0.156 HD
ENDROOT
BRANCH   3   5
ATOM      5  C   UNL     1      -3.204   3.760  -3.688  0.00  0.00    +0.086 A 
ATOM      6  C   UNL     1      -2.215   3.326  -2.810  0.00  0.00    +0.091 A 
ATOM      7  C   UNL     1      -1.136   4.246  -2.519  0.00  0.00    -0.024 A 
ATOM      8  C   UNL     1      -1.211   5.448  -3.135  0.00  0.00    -0.016 A 
ATOM      9  S   UNL     1      -2.689   5.362  -4.103  0.00  0.00    -0.079 S 
ATOM     10  C   UNL     1      -0.242   6.577  -3.003  0.00  0.00    -0.041 C 
ATOM     11  C   UNL     1       1.242   4.767  -2.134  0.00  0.00    -0.069 C 
ATOM     12  C   UNL     1       0.045   3.974  -1.597  0.00  0.00    +0.024 C 
ATOM     13  C   UNL     1       1.674   4.178  -3.481  0.00  0.00    -0.010 C 
ATOM     14  C   UNL     1       2.409   4.589  -1.145  0.00  0.00    -0.010 C 
ATOM     15  C   UNL     1      -0.941   7.733  -2.264  0.00  0.00    -0.005 C 
ATOM     16  C   UNL     1       0.149   7.078  -4.401  0.00  0.00    -0.005 C 
ATOM     17  N   UNL     1       0.983   6.226  -2.228  0.00  0.00    +0.389 N 
ATOM     18  H   UNL     1       0.880   6.598  -1.277  0.00  0.00    -0.084 HD
ATOM     19  H   UNL     1       1.791   6.669  -2.683  0.00  0.00    -0.084 HD
BRANCH   6  20
ATOM     20  C   UNL     1      -2.276   1.990  -2.212  0.00  0.00    +0.342 C 
ATOM     21  O   UNL     1      -2.850   1.824  -1.153  0.00  0.00    -0.245 OA
BRANCH  20  22
ATOM     22  O   UNL     1      -1.694   0.945  -2.836  0.00  0.00    -0.464 OA
ATOM     23  C   UNL     1      -1.794  -0.349  -2.185  0.00  0.00    +0.280 C 
ENDBRANCH  20  22
ENDBRANCH   6  20
ENDBRANCH   3   5
BRANCH   1  27
ATOM     24  C   UNL     1      -8.628   1.567  -6.314  0.00  0.00    +0.106 A 
ATOM     25  C   UNL     1      -8.387   2.852  -6.765  0.00  0.00    +0.029 A 
ATOM     26  C   UNL     1      -7.270   3.539  -6.336  0.00  0.00    +0.015 A 
ATOM     27  C   UNL     1      -6.381   2.934  -5.445  0.00  0.00    +0.037 A 
ATOM     28  C   UNL     1      -6.627   1.635  -4.999  0.00  0.00    +0.015 A 
ATOM     29  C   UNL     1      -7.751   0.961  -5.431  0.00  0.00    +0.029 A 
BRANCH  24  30
ATOM     30  S   UNL     1     -10.057   0.697  -6.866  0.00  0.00    +0.061 S 
ATOM     31  O   UNL     1     -10.344  -0.282  -5.877  0.00  0.00    -0.153 OA
ATOM     32  O   UNL     1     -11.004   1.681  -7.261  0.00  0.00    -0.153 OA
BRANCH  30  39
ATOM     33  C   UNL     1     -10.245   1.940  -9.402  0.00  0.00    +0.026 C 
ATOM     34  C   UNL     1      -9.645   0.540  -9.546  0.00  0.00    +0.077 C 
ATOM     35  C   UNL     1     -10.494  -0.282 -10.514  0.00  0.00    +0.020 C 
ATOM     36  C   UNL     1      -9.976  -1.722 -10.547  0.00  0.00    +0.003 C 
ATOM     37  C   UNL     1     -10.094  -2.341  -9.153  0.00  0.00    +0.017 C 
ATOM     38  C   UNL     1      -9.234  -1.540  -8.169  0.00  0.00    +0.110 C 
ATOM     39  N   UNL     1      -9.630  -0.127  -8.237  0.00  0.00    -0.174 NA
ENDBRANCH  30  39
ENDBRANCH  24  30
ENDBRANCH   1  27
TORSDOF 6
