REMARK  Name = ZINC27578089
REMARK  6 active torsions:
REMARK  status: ('A' for Active; 'I' for Inactive)
REMARK    1  A    between atoms: C_1  and  C_2
REMARK    2  A    between atoms: C_2  and  O_3
REMARK    3  A    between atoms: O_3  and  C_4
REMARK    4  A    between atoms: C_8  and  C_11
REMARK    5  A    between atoms: C_9  and  O_10
REMARK    6  A    between atoms: C_15  and  C_23
REMARK                            x       y       z     vdW  Elec       q    Type
REMARK                         _______ _______ _______ _____ _____    ______ ____
ROOT
ATOM      1  C   UNL     1       2.224  -4.267  -3.827  0.00  0.00    +0.193 C 
ATOM      2  N   UNL     1       1.721  -5.621  -4.089  0.00  0.00    -0.321 N 
ATOM      3  C   UNL     1       0.466  -5.762  -4.671  0.00  0.00    +0.044 A 
ATOM      4  C   UNL     1      -0.336  -6.863  -4.425  0.00  0.00    -0.029 A 
ATOM      5  C   UNL     1      -1.577  -6.952  -5.026  0.00  0.00    +0.005 A 
ATOM      6  C   UNL     1      -2.024  -5.950  -5.873  0.00  0.00    +0.001 A 
ATOM      7  C   UNL     1      -1.236  -4.847  -6.130  0.00  0.00    +0.015 A 
ATOM      8  C   UNL     1       0.017  -4.745  -5.532  0.00  0.00    +0.058 A 
ATOM      9  C   UNL     1       0.903  -3.592  -5.778  0.00  0.00    +0.247 C 
ATOM     10  O   UNL     1       0.672  -2.823  -6.691  0.00  0.00    -0.270 OA
ATOM     11  N   UNL     1       1.970  -3.403  -4.979  0.00  0.00    -0.289 N 
ATOM     12  C   UNL     1       0.141  -7.958  -3.506  0.00  0.00    +0.045 C 
ATOM     13  H   UNL     1       2.252  -6.400  -3.862  0.00  0.00    +0.148 HD
ATOM     14  H   UNL     1       2.583  -2.676  -5.174  0.00  0.00    +0.151 HD
ENDROOT
BRANCH   1  19
ATOM     15  C   UNL     1       0.777  -1.811  -1.336  0.00  0.00    +0.162 A 
ATOM     16  C   UNL     1       0.243  -2.669  -0.388  0.00  0.00    +0.049 A 
ATOM     17  C   UNL     1       0.352  -4.037  -0.555  0.00  0.00    +0.004 A 
ATOM     18  C   UNL     1       0.992  -4.552  -1.667  0.00  0.00    +0.011 A 
ATOM     19  C   UNL     1       1.526  -3.702  -2.616  0.00  0.00    +0.036 A 
ATOM     20  C   UNL     1       1.416  -2.330  -2.458  0.00  0.00    +0.165 A 
BRANCH  20  21
ATOM     21  O   UNL     1       1.936  -1.492  -3.394  0.00  0.00    -0.503 OA
ATOM     22  H   UNL     1       2.856  -1.241  -3.231  0.00  0.00    +0.292 HD
ENDBRANCH  20  21
BRANCH  15  23
ATOM     23  O   UNL     1       0.671  -0.465  -1.174  0.00  0.00    -0.489 OA
BRANCH  23  25
ATOM     24  C   UNL     1      -0.019   1.526   0.010  0.00  0.00    +0.048 C 
ATOM     25  C   UNL     1       0.002  -0.004   0.002  0.00  0.00    +0.226 C 
ENDBRANCH  23  25
ENDBRANCH  15  23
ENDBRANCH   1  19
TORSDOF 4
