REMARK  Name = ZINC07683276
REMARK  15 active torsions:
REMARK  status: ('A' for Active; 'I' for Inactive)
REMARK    1  A    between atoms: C_1  and  C_2
REMARK    2  A    between atoms: C_2  and  N_3
REMARK    3  A    between atoms: N_3  and  C_4
REMARK    4  A    between atoms: N_3  and  C_12
REMARK    5  A    between atoms: C_4  and  C_5
REMARK    6  A    between atoms: N_7  and  C_8
REMARK    7  A    between atoms: C_8  and  C_9
REMARK    8  A    between atoms: C_8  and  C_10
REMARK    9  A    between atoms: C_8  and  C_11
REMARK   10  A    between atoms: C_12  and  C_13
REMARK   11  A    between atoms: N_15  and  N_16
REMARK   12  A    between atoms: C_19  and  C_23
REMARK   13  A    between atoms: C_19  and  C_24
REMARK   14  A    between atoms: C_24  and  C_25
REMARK   15  A    between atoms: C_25  and  C_26
REMARK                            x       y       z     vdW  Elec       q    Type
REMARK                         _______ _______ _______ _____ _____    ______ ____
ROOT
ATOM      1  C   UNL     1      -0.374   1.290   0.388  0.00  0.00    +0.213 C 
ATOM      2  O   UNL     1      -0.354   0.078   0.437  0.00  0.00    -0.276 OA
ATOM      3  N   UNL     1      -1.536   1.952   0.553  0.00  0.00    -0.225 N 
ATOM      4  H   UNL     1      -1.554   3.051   0.509  0.00  0.00    +0.173 HD
ENDROOT
BRANCH   3   5
ATOM      5  N   UNL     1      -2.721   1.241   0.782  0.00  0.00    -0.137 N 
ATOM      6  C   UNL     1      -3.331   1.151   1.980  0.00  0.00    +0.263 C 
ATOM      7  O   UNL     1      -2.970   1.650   3.025  0.00  0.00    -0.271 OA
ATOM      8  C   UNL     1      -4.561   0.295   1.751  0.00  0.00    +0.112 C 
ATOM      9  N   UNL     1      -4.495  -0.028   0.315  0.00  0.00    -0.284 N 
ATOM     10  C   UNL     1      -3.390   0.572  -0.164  0.00  0.00    +0.326 C 
ATOM     11  O   UNL     1      -3.038   0.511  -1.326  0.00  0.00    -0.251 OA
ATOM     12  C   UNL     1      -4.493  -0.980   2.593  0.00  0.00    +0.041 C 
ATOM     13  H   UNL     1      -5.274  -0.654  -0.144  0.00  0.00    +0.151 HD
BRANCH   8  14
ATOM     14  C   UNL     1      -5.832   1.083   2.071  0.00  0.00    +0.040 C 
BRANCH  14  15
ATOM     15  C   UNL     1      -7.056   0.197   1.831  0.00  0.00    +0.038 C 
BRANCH  15  16
ATOM     16  C   UNL     1      -8.308   0.973   2.147  0.00  0.00    -0.047 A 
ATOM     17  C   UNL     1      -8.834   0.947   3.425  0.00  0.00    +0.003 A 
ATOM     18  C   UNL     1      -9.980   1.663   3.715  0.00  0.00    +0.000 A 
ATOM     19  C   UNL     1     -10.606   2.397   2.725  0.00  0.00    +0.000 A 
ATOM     20  C   UNL     1     -10.083   2.419   1.446  0.00  0.00    +0.000 A 
ATOM     21  C   UNL     1      -8.934   1.707   1.157  0.00  0.00    +0.003 A 
ENDBRANCH  15  16
ENDBRANCH  14  15
ENDBRANCH   8  14
ENDBRANCH   3   5
BRANCH   1  22
ATOM     22  C   UNL     1       0.900   2.055   0.136  0.00  0.00    +0.021 C 
BRANCH  22  23
ATOM     23  N   UNL     1       2.016   1.111  -0.015  0.00  0.00    +0.391 N 
ATOM     24  H   UNL     1       1.728   0.366  -0.771  0.00  0.00    -0.080 HD
BRANCH  23  26
ATOM     25  C   UNL     1       3.146  -0.829   0.964  0.00  0.00    -0.017 C 
ATOM     26  C   UNL     1       2.278   0.400   1.244  0.00  0.00    -0.081 C 
ENDBRANCH  23  26
BRANCH  23  27
ATOM     27  C   UNL     1       3.224   1.797  -0.494  0.00  0.00    +0.019 C 
BRANCH  27  28
ATOM     28  C   UNL     1       3.085   2.089  -1.966  0.00  0.00    +0.197 C 
ATOM     29  O   UNL     1       2.127   1.670  -2.580  0.00  0.00    -0.278 OA
ATOM     30  N   UNL     1       4.027   2.815  -2.600  0.00  0.00    -0.312 N 
ATOM     31  H   UNL     1       4.896   3.195  -2.044  0.00  0.00    +0.149 HD
BRANCH  30  32
ATOM     32  C   UNL     1       3.892   3.099  -4.031  0.00  0.00    +0.026 C 
ATOM     33  C   UNL     1       2.597   3.877  -4.277  0.00  0.00    +0.031 C 
ATOM     34  C   UNL     1       5.085   3.934  -4.500  0.00  0.00    +0.031 C 
ATOM     35  C   UNL     1       3.853   1.783  -4.811  0.00  0.00    +0.031 C 
ENDBRANCH  30  32
ENDBRANCH  27  28
ENDBRANCH  23  27
ENDBRANCH  22  23
ENDBRANCH   1  22
TORSDOF 10
