REMARK  Name = ZINC06156912
REMARK  12 active torsions:
REMARK  status: ('A' for Active; 'I' for Inactive)
REMARK    1  A    between atoms: C_1  and  O_2
REMARK    2  A    between atoms: O_2  and  C_3
REMARK    3  A    between atoms: C_5  and  C_9
REMARK    4  A    between atoms: N_10  and  N_11
REMARK    5  A    between atoms: N_11  and  C_12
REMARK    6  A    between atoms: C_15  and  S_18
REMARK    7  A    between atoms: S_18  and  C_21
REMARK    8  A    between atoms: C_24  and  N_27
REMARK    9  A    between atoms: N_27  and  N_28
REMARK   10  A    between atoms: C_29  and  C_30
REMARK   11  A    between atoms: C_32  and  O_36
REMARK   12  A    between atoms: O_36  and  C_37
REMARK                            x       y       z     vdW  Elec       q    Type
REMARK                         _______ _______ _______ _____ _____    ______ ____
ROOT
ATOM      1  S   UNL     1      -9.028  -8.870   0.060  0.00  0.00    +0.025 S 
ATOM      2  O   UNL     1      -8.811 -10.161   0.613  0.00  0.00    -0.164 OA
ATOM      3  O   UNL     1      -9.959  -7.951   0.614  0.00  0.00    -0.164 OA
ENDROOT
BRANCH   1   7
ATOM      4  C   UNL     1      -5.009  -6.782   0.032  0.00  0.00    +0.048 A 
ATOM      5  C   UNL     1      -6.181  -6.036   0.036  0.00  0.00    +0.026 A 
ATOM      6  C   UNL     1      -7.405  -6.676   0.044  0.00  0.00    +0.029 A 
ATOM      7  C   UNL     1      -7.464  -8.058   0.049  0.00  0.00    +0.094 A 
ATOM      8  C   UNL     1      -6.300  -8.803   0.044  0.00  0.00    +0.029 A 
ATOM      9  C   UNL     1      -5.072  -8.170   0.030  0.00  0.00    +0.026 A 
BRANCH   4  10
ATOM     10  N   UNL     1      -3.771  -6.139   0.023  0.00  0.00    -0.238 N 
ATOM     11  H   UNL     1      -2.953  -6.660   0.016  0.00  0.00    +0.174 HD
BRANCH  10  13
ATOM     12  C   UNL     1      -2.556  -4.141   0.016  0.00  0.00    +0.138 C 
ATOM     13  N   UNL     1      -3.708  -4.739   0.024  0.00  0.00    -0.190 NA
BRANCH  12  16
ATOM     14  C   UNL     1      -1.200  -0.637   0.010  0.00  0.00    +0.121 A 
ATOM     15  C   UNL     1      -1.253  -2.021   0.009  0.00  0.00    +0.055 A 
ATOM     16  C   UNL     1      -2.491  -2.667   0.018  0.00  0.00    -0.002 A 
ATOM     17  C   UNL     1      -3.667  -1.913   0.028  0.00  0.00    +0.010 A 
ATOM     18  C   UNL     1      -3.601  -0.535   0.029  0.00  0.00    +0.004 A 
ATOM     19  C   UNL     1      -2.375   0.103   0.025  0.00  0.00    +0.045 A 
BRANCH  14  21
ATOM     20  C   UNL     1      -0.017   1.425   0.010  0.00  0.00    +0.277 C 
ATOM     21  O   UNL     1       0.002  -0.004   0.002  0.00  0.00    -0.495 OA
ENDBRANCH  14  21
ENDBRANCH  12  16
ENDBRANCH  10  13
ENDBRANCH   4  10
ENDBRANCH   1   7
BRANCH   1  22
ATOM     22  C   UNL     1      -9.500  -9.115  -1.620  0.00  0.00    +0.094 A 
ATOM     23  C   UNL     1     -10.233  -8.145  -2.279  0.00  0.00    +0.029 A 
ATOM     24  C   UNL     1     -10.605  -8.333  -3.595  0.00  0.00    +0.026 A 
ATOM     25  C   UNL     1     -10.242  -9.499  -4.258  0.00  0.00    +0.048 A 
ATOM     26  C   UNL     1      -9.505 -10.472  -3.592  0.00  0.00    +0.026 A 
ATOM     27  C   UNL     1      -9.133 -10.275  -2.277  0.00  0.00    +0.029 A 
BRANCH  25  28
ATOM     28  N   UNL     1     -10.616  -9.694  -5.588  0.00  0.00    -0.238 N 
ATOM     29  H   UNL     1     -11.131  -9.014  -6.051  0.00  0.00    +0.174 HD
BRANCH  28  30
ATOM     30  N   UNL     1     -10.249 -10.870  -6.254  0.00  0.00    -0.190 NA
ATOM     31  C   UNL     1     -10.598 -11.050  -7.492  0.00  0.00    +0.138 C 
BRANCH  31  32
ATOM     32  C   UNL     1     -10.211 -12.289  -8.193  0.00  0.00    -0.002 A 
ATOM     33  C   UNL     1     -10.580 -12.483  -9.526  0.00  0.00    +0.055 A 
ATOM     34  C   UNL     1     -10.213 -13.648 -10.178  0.00  0.00    +0.121 A 
ATOM     35  C   UNL     1      -9.481 -14.619  -9.507  0.00  0.00    +0.045 A 
ATOM     36  C   UNL     1      -9.115 -14.429  -8.187  0.00  0.00    +0.004 A 
ATOM     37  C   UNL     1      -9.470 -13.269  -7.529  0.00  0.00    +0.010 A 
BRANCH  34  38
ATOM     38  O   UNL     1     -10.570 -13.842 -11.475  0.00  0.00    -0.495 OA
ATOM     39  C   UNL     1     -10.158 -15.066 -12.085  0.00  0.00    +0.277 C 
ENDBRANCH  34  38
ENDBRANCH  31  32
ENDBRANCH  28  30
ENDBRANCH  25  28
ENDBRANCH   1  22
TORSDOF 10
