REMARK  Name = ZINC18545706
REMARK  12 active torsions:
REMARK  status: ('A' for Active; 'I' for Inactive)
REMARK    1  A    between atoms: C_1  and  N_2
REMARK    2  A    between atoms: N_2  and  C_3
REMARK    3  A    between atoms: C_3  and  C_4
REMARK    4  A    between atoms: C_9  and  O_14
REMARK    5  A    between atoms: O_14  and  C_15
REMARK    6  A    between atoms: C_16  and  C_18
REMARK    7  A    between atoms: C_18  and  O_19
REMARK    8  A    between atoms: O_19  and  C_20
REMARK    9  A    between atoms: C_20  and  C_22
REMARK   10  A    between atoms: C_22  and  C_23
REMARK   11  A    between atoms: C_23  and  C_25
REMARK   12  A    between atoms: C_23  and  N_32
REMARK                            x       y       z     vdW  Elec       q    Type
REMARK                         _______ _______ _______ _____ _____    ______ ____
ROOT
ATOM      1  O   UNL     1      -3.416   0.165  -3.374  0.00  0.00    -0.455 OA
ENDROOT
BRANCH   1   2
ATOM      2  C   UNL     1      -4.159   0.527  -4.432  0.00  0.00    +0.310 C 
ATOM      3  O   UNL     1      -3.931   1.568  -5.002  0.00  0.00    -0.251 OA
BRANCH   2   4
ATOM      4  C   UNL     1      -5.275  -0.365  -4.910  0.00  0.00    +0.147 C 
BRANCH   4   5
ATOM      5  C   UNL     1      -5.957   0.275  -6.120  0.00  0.00    +0.115 C 
BRANCH   5   6
ATOM      6  C   UNL     1      -7.150  -0.554  -6.522  0.00  0.00    -0.027 A 
ATOM      7  C   UNL     1      -7.676  -0.437  -7.795  0.00  0.00    +0.007 A 
ATOM      8  C   UNL     1      -8.766  -1.201  -8.166  0.00  0.00    +0.020 A 
ATOM      9  C   UNL     1      -9.338  -2.076  -7.259  0.00  0.00    +0.041 A 
ATOM     10  C   UNL     1      -8.814  -2.189  -5.984  0.00  0.00    +0.020 A 
ATOM     11  C   UNL     1      -7.721  -1.428  -5.616  0.00  0.00    +0.007 A 
ATOM     12 CL   UNL     1     -10.712  -3.031  -7.722  0.00  0.00    -0.084 Cl
ENDBRANCH   5   6
BRANCH   5  13
ATOM     13  N   UNL     1      -5.010   0.341  -7.236  0.00  0.00    -0.292 N 
ATOM     14  C   UNL     1      -4.503  -0.793  -7.757  0.00  0.00    +0.298 C 
ATOM     15  O   UNL     1      -4.894  -1.874  -7.359  0.00  0.00    -0.253 OA
ATOM     16  N   UNL     1      -3.562  -0.731  -8.720  0.00  0.00    -0.313 N 
ATOM     17  H   UNL     1      -4.748   1.201  -7.600  0.00  0.00    +0.151 HD
ATOM     18  H   UNL     1      -3.250   0.131  -9.038  0.00  0.00    +0.146 HD
ATOM     19  H   UNL     1      -3.197  -1.547  -9.095  0.00  0.00    +0.146 HD
ENDBRANCH   5  13
ENDBRANCH   4   5
ENDBRANCH   2   4
ENDBRANCH   1   2
BRANCH   1  20
ATOM     20  C   UNL     1      -2.357   1.072  -2.970  0.00  0.00    +0.327 C 
BRANCH  20  23
ATOM     21  C   UNL     1      -0.193   2.466  -1.785  0.00  0.00    +0.132 C 
ATOM     22  N   UNL     1      -0.609   1.179  -1.223  0.00  0.00    -0.297 N 
ATOM     23  C   UNL     1      -1.637   0.504  -1.775  0.00  0.00    +0.253 C 
ATOM     24  O   UNL     1      -1.982  -0.562  -1.310  0.00  0.00    -0.272 OA
BRANCH  22  25
ATOM     25  C   UNL     1       0.091   0.626  -0.061  0.00  0.00    +0.142 C 
BRANCH  25  26
ATOM     26  C   UNL     1      -0.575   1.108   1.202  0.00  0.00    -0.030 A 
ATOM     27  C   UNL     1      -0.141   2.290   1.799  0.00  0.00    +0.006 A 
ATOM     28  C   UNL     1      -0.724   2.755   2.937  0.00  0.00    +0.009 A 
ATOM     29  C   UNL     1      -1.772   2.029   3.529  0.00  0.00    -0.014 A 
ATOM     30  C   UNL     1      -2.393   2.475   4.707  0.00  0.00    +0.054 A 
ATOM     31  C   UNL     1      -3.408   1.743   5.254  0.00  0.00    +0.121 A 
ATOM     32  C   UNL     1      -3.838   0.554   4.656  0.00  0.00    +0.046 A 
ATOM     33  C   UNL     1      -3.257   0.095   3.516  0.00  0.00    +0.012 A 
ATOM     34  C   UNL     1      -2.209   0.824   2.925  0.00  0.00    -0.017 A 
ATOM     35  C   UNL     1      -1.586   0.378   1.747  0.00  0.00    +0.013 A 
BRANCH  31  36
ATOM     36  O   UNL     1      -4.008   2.176   6.394  0.00  0.00    -0.495 OA
ATOM     37  C   UNL     1      -5.064   1.368   6.918  0.00  0.00    +0.277 C 
ENDBRANCH  31  36
ENDBRANCH  25  26
ENDBRANCH  22  25
ENDBRANCH  20  23
ENDBRANCH   1  20
TORSDOF 10
