REMARK  Name = ZINC23983673
REMARK  7 active torsions:
REMARK  status: ('A' for Active; 'I' for Inactive)
REMARK    1  A    between atoms: C_1  and  C_2
REMARK    2  A    between atoms: C_9  and  N_14
REMARK    3  A    between atoms: C_15  and  C_17
REMARK    4  A    between atoms: C_17  and  C_19
REMARK    5  A    between atoms: C_17  and  N_30
REMARK    6  A    between atoms: C_19  and  C_20
REMARK    7  A    between atoms: C_31  and  C_33
REMARK                            x       y       z     vdW  Elec       q    Type
REMARK                         _______ _______ _______ _____ _____    ______ ____
ROOT
ATOM      1  C   UNL     1      -0.709  -6.376   0.754  0.00  0.00    +0.164 C 
ENDROOT
BRANCH   1   3
ATOM      2  N   UNL     1       0.094  -4.176  -0.042  0.00  0.00    -0.284 N 
ATOM      3  C   UNL     1      -0.807  -4.874   0.677  0.00  0.00    +0.238 C 
ATOM      4  O   UNL     1      -1.698  -4.294   1.261  0.00  0.00    -0.273 OA
ATOM      5  H   UNL     1       0.849  -4.706  -0.642  0.00  0.00    +0.155 HD
BRANCH   2  13
ATOM      6  C   UNL     1       2.351   1.900  -0.101  0.00  0.00    +0.062 C 
ATOM      7  C   UNL     1       0.982   2.018  -0.774  0.00  0.00    +0.256 C 
ATOM      8  C   UNL     1       1.036   1.380  -2.138  0.00  0.00    +0.258 C 
ATOM      9  O   UNL     1       1.320   2.046  -3.111  0.00  0.00    -0.271 OA
ATOM     10  N   UNL     1       0.767   0.063  -2.273  0.00  0.00    -0.279 N 
ATOM     11  C   UNL     1       0.407  -0.677  -1.138  0.00  0.00    +0.077 A 
ATOM     12  C   UNL     1       0.432  -2.061  -1.159  0.00  0.00    +0.050 A 
ATOM     13  C   UNL     1       0.070  -2.775  -0.025  0.00  0.00    +0.035 A 
ATOM     14  C   UNL     1      -0.316  -2.102   1.127  0.00  0.00    +0.027 A 
ATOM     15  C   UNL     1      -0.341  -0.720   1.148  0.00  0.00    +0.049 A 
ATOM     16  C   UNL     1       0.019  -0.004   0.020  0.00  0.00    +0.143 A 
ATOM     17  O   UNL     1      -0.001   1.357   0.027  0.00  0.00    -0.478 OA
ATOM     18  H   UNL     1       0.832  -0.413  -3.263  0.00  0.00    +0.155 HD
ENDBRANCH   2  13
ENDBRANCH   1   3
BRANCH   1  19
ATOM     19  N   UNL     1      -1.452  -6.855   1.922  0.00  0.00    -0.299 N 
ATOM     20  C   UNL     1      -2.773  -6.609   2.026  0.00  0.00    +0.251 C 
ATOM     21  O   UNL     1      -3.349  -5.990   1.151  0.00  0.00    -0.270 OA
ATOM     22  H   UNL     1      -0.933  -7.414   2.714  0.00  0.00    +0.150 HD
BRANCH  20  23
ATOM     23  C   UNL     1      -3.518  -7.088   3.195  0.00  0.00    +0.074 A 
ATOM     24  C   UNL     1      -4.864  -6.944   3.493  0.00  0.00    +0.021 A 
ATOM     25  C   UNL     1      -5.307  -7.497   4.668  0.00  0.00    +0.008 A 
ATOM     26  C   UNL     1      -4.423  -8.147   5.470  0.00  0.00    +0.046 A 
ATOM     27  S   UNL     1      -2.929  -8.015   4.601  0.00  0.00    -0.092 S 
ENDBRANCH  20  23
ENDBRANCH   1  19
BRANCH   1  28
ATOM     28  C   UNL     1      -1.300  -6.992  -0.515  0.00  0.00    +0.069 C 
BRANCH  28  29
ATOM     29  C   UNL     1      -1.092  -8.484  -0.494  0.00  0.00    -0.020 A 
ATOM     30  C   UNL     1      -0.084  -9.158  -1.071  0.00  0.00    +0.087 A 
ATOM     31  N   UNL     1      -0.226 -10.499  -0.837  0.00  0.00    -0.360 N 
ATOM     32  H   UNL     1       0.517 -11.207  -1.233  0.00  0.00    +0.165 HD
ATOM     33  C   UNL     1      -1.361 -10.727  -0.092  0.00  0.00    +0.047 A 
ATOM     34  C   UNL     1      -1.953  -9.475   0.156  0.00  0.00    +0.003 A 
ATOM     35  C   UNL     1      -3.133  -9.398   0.898  0.00  0.00    +0.010 A 
ATOM     36  C   UNL     1      -3.707 -10.540   1.381  0.00  0.00    +0.001 A 
ATOM     37  C   UNL     1      -3.127 -11.777   1.139  0.00  0.00    +0.002 A 
ATOM     38  C   UNL     1      -1.962 -11.877   0.408  0.00  0.00    +0.026 A 
ENDBRANCH  28  29
ENDBRANCH   1  28
TORSDOF 6
