REMARK  Name = ZINC39636607
REMARK  9 active torsions:
REMARK  status: ('A' for Active; 'I' for Inactive)
REMARK    1  A    between atoms: C_1  and  C_2
REMARK    2  A    between atoms: C_5  and  C_37
REMARK    3  A    between atoms: C_6  and  C_8
REMARK    4  A    between atoms: C_8  and  N_9
REMARK    5  A    between atoms: C_10  and  C_12
REMARK    6  A    between atoms: C_23  and  C_25
REMARK    7  A    between atoms: C_28  and  O_35
REMARK    8  A    between atoms: C_29  and  C_31
REMARK    9  A    between atoms: O_35  and  C_36
REMARK                            x       y       z     vdW  Elec       q    Type
REMARK                         _______ _______ _______ _____ _____    ______ ____
ROOT
ATOM      1  C   UNL     1       2.623  -4.887   3.962  0.00  0.00    +0.100 C 
ATOM      2  C   UNL     1       3.394  -5.788   2.970  0.00  0.00    +0.121 C 
ATOM      3  N   UNL     1       4.220  -6.669   3.829  0.00  0.00    -0.296 N 
ATOM      4  C   UNL     1       3.338  -6.998   4.975  0.00  0.00    +0.115 C 
ATOM      5  C   UNL     1       2.588  -5.685   5.276  0.00  0.00    -0.004 C 
ATOM      6  C   UNL     1       1.146  -5.982   5.675  0.00  0.00    -0.010 C 
ATOM      7  C   UNL     1       1.135  -6.725   7.014  0.00  0.00    -0.082 C 
ATOM      8  N   UNL     1       1.788  -5.902   8.039  0.00  0.00    +0.379 N 
ATOM      9  C   UNL     1       3.200  -5.699   7.692  0.00  0.00    -0.082 C 
ATOM     10  C   UNL     1       3.299  -4.913   6.382  0.00  0.00    -0.010 C 
ATOM     11  C   UNL     1       5.486  -7.078   3.618  0.00  0.00    +0.247 C 
ATOM     12  O   UNL     1       6.127  -6.618   2.692  0.00  0.00    -0.270 OA
ATOM     13  H   UNL     1       1.325  -5.007   8.095  0.00  0.00    -0.086 HD
ATOM     14  H   UNL     1       1.725  -6.367   8.932  0.00  0.00    -0.086 HD
ENDROOT
BRANCH  11  15
ATOM     15  C   UNL     1       6.096  -8.084   4.509  0.00  0.00    +0.038 A 
ATOM     16  C   UNL     1       5.284  -8.925   5.275  0.00  0.00    +0.016 A 
ATOM     17  C   UNL     1       5.857  -9.862   6.105  0.00  0.00    +0.047 A 
ATOM     18  C   UNL     1       7.240  -9.973   6.182  0.00  0.00    +0.132 A 
ATOM     19  C   UNL     1       8.051  -9.138   5.422  0.00  0.00    +0.097 A 
ATOM     20  C   UNL     1       7.486  -8.202   4.585  0.00  0.00    +0.029 A 
BRANCH  19  21
ATOM     21  C   UNL     1       9.550  -9.262   5.509  0.00  0.00    +0.421 C 
ATOM     22  F   UNL     1      10.146  -8.324   4.660  0.00  0.00    -0.166 F 
ATOM     23  F   UNL     1       9.962  -9.027   6.825  0.00  0.00    -0.166 F 
ATOM     24  F   UNL     1       9.935 -10.551   5.124  0.00  0.00    -0.166 F 
ENDBRANCH  19  21
BRANCH  18  25
ATOM     25  O   UNL     1       7.801 -10.898   7.001  0.00  0.00    -0.495 OA
ATOM     26  C   UNL     1       6.909 -11.723   7.755  0.00  0.00    +0.277 C 
ENDBRANCH  18  25
ENDBRANCH  11  15
BRANCH   1  28
ATOM     27  N   UNL     1       0.596  -3.483   3.770  0.00  0.00    -0.311 N 
ATOM     28  C   UNL     1       1.224  -4.635   3.463  0.00  0.00    +0.218 C 
ATOM     29  O   UNL     1       0.663  -5.470   2.784  0.00  0.00    -0.275 OA
ATOM     30  H   UNL     1       1.044  -2.816   4.313  0.00  0.00    +0.149 HD
BRANCH  27  31
ATOM     31  C   UNL     1      -0.765  -3.239   3.285  0.00  0.00    +0.139 C 
BRANCH  31  37
ATOM     32  C   UNL     1      -3.411  -0.462   6.500  0.00  0.00    +0.044 C 
ATOM     33  C   UNL     1      -2.501  -0.561   5.303  0.00  0.00    -0.050 A 
ATOM     34  C   UNL     1      -2.096   0.586   4.645  0.00  0.00    +0.003 A 
ATOM     35  C   UNL     1      -1.262   0.495   3.547  0.00  0.00    +0.004 A 
ATOM     36  C   UNL     1      -0.831  -0.743   3.107  0.00  0.00    -0.046 A 
ATOM     37  C   UNL     1      -1.234  -1.889   3.765  0.00  0.00    -0.027 A 
ATOM     38  C   UNL     1      -2.066  -1.798   4.866  0.00  0.00    +0.008 A 
ATOM     39  C   UNL     1       0.079  -0.843   1.910  0.00  0.00    +0.044 C 
ENDBRANCH  31  37
ENDBRANCH  27  31
ENDBRANCH   1  28
TORSDOF 6
