REMARK  Name = ZINC43730124
REMARK  2 active torsions:
REMARK  status: ('A' for Active; 'I' for Inactive)
REMARK    1  A    between atoms: C_5  and  C_7
REMARK    2  A    between atoms: C_7  and  C_9
REMARK                            x       y       z     vdW  Elec       q    Type
REMARK                         _______ _______ _______ _____ _____    ______ ____
ROOT
ATOM      1  C   UNL     1      -0.086  -2.842   0.033  0.00  0.00    +0.066 C 
ATOM      2  C   UNL     1      -0.560  -2.989   1.490  0.00  0.00    -0.055 C 
ATOM      3  C   UNL     1      -1.516  -1.846   1.855  0.00  0.00    -0.016 C 
ATOM      4  C   UNL     1      -2.846  -2.541   2.229  0.00  0.00    -0.020 C 
ATOM      5  C   UNL     1      -2.755  -3.889   1.475  0.00  0.00    -0.076 C 
ATOM      6  N   UNL     1      -1.301  -4.268   1.573  0.00  0.00    +0.395 N 
ATOM      7  C   UNL     1      -0.947  -5.087   0.403  0.00  0.00    +0.060 C 
ATOM      8  C   UNL     1       0.031  -4.293  -0.457  0.00  0.00    +0.085 C 
ATOM      9  C   UNL     1       1.439  -4.801  -0.325  0.00  0.00    -0.011 A 
ATOM     10  C   UNL     1       2.293  -4.956   0.744  0.00  0.00    +0.006 A 
ATOM     11  C   UNL     1       3.565  -5.463   0.546  0.00  0.00    +0.000 A 
ATOM     12  C   UNL     1       3.976  -5.813  -0.728  0.00  0.00    +0.002 A 
ATOM     13  C   UNL     1       3.123  -5.659  -1.801  0.00  0.00    +0.023 A 
ATOM     14  C   UNL     1       1.841  -5.150  -1.610  0.00  0.00    +0.038 A 
ATOM     15  N   UNL     1       0.811  -4.904  -2.521  0.00  0.00    -0.285 N 
ATOM     16  C   UNL     1      -0.287  -4.401  -1.924  0.00  0.00    +0.228 C 
ATOM     17  O   UNL     1      -1.329  -4.095  -2.464  0.00  0.00    -0.275 OA
ATOM     18  C   UNL     1      -2.179  -5.462  -0.379  0.00  0.00    -0.024 A 
ATOM     19  C   UNL     1      -3.143  -4.724  -1.028  0.00  0.00    +0.043 A 
ATOM     20  C   UNL     1      -4.186  -5.366  -1.677  0.00  0.00    +0.124 A 
ATOM     21  C   UNL     1      -4.253  -6.749  -1.669  0.00  0.00    +0.040 A 
ATOM     22  C   UNL     1      -3.287  -7.490  -1.020  0.00  0.00    +0.026 A 
ATOM     23  C   UNL     1      -2.237  -6.851  -0.365  0.00  0.00    +0.036 A 
ATOM     24  N   UNL     1      -1.156  -7.372   0.352  0.00  0.00    -0.286 N 
ATOM     25  C   UNL     1      -0.354  -6.405   0.834  0.00  0.00    +0.212 C 
ATOM     26  O   UNL     1       0.654  -6.564   1.490  0.00  0.00    -0.277 OA
ATOM     27  F   UNL     1      -5.134  -4.644  -2.315  0.00  0.00    -0.205 F 
ATOM     28  H   UNL     1       0.878  -5.076  -3.474  0.00  0.00    +0.155 HD
ATOM     29  H   UNL     1      -1.003  -8.320   0.486  0.00  0.00    +0.155 HD
ATOM     30  H   UNL     1      -1.102  -4.745   2.439  0.00  0.00    -0.079 HD
ENDROOT
BRANCH   1  31
ATOM     31  C   UNL     1       1.254  -2.154  -0.022  0.00  0.00    +0.167 C 
ATOM     32  O   UNL     1       1.968  -2.138   0.957  0.00  0.00    -0.292 OA
BRANCH  31  37
ATOM     33  C   UNL     1       1.247  -0.799  -3.519  0.00  0.00    +0.001 A 
ATOM     34  C   UNL     1       2.525  -0.273  -3.606  0.00  0.00    +0.001 A 
ATOM     35  C   UNL     1       3.390  -0.357  -2.530  0.00  0.00    +0.021 A 
ATOM     36  C   UNL     1       2.985  -0.968  -1.360  0.00  0.00    +0.051 A 
ATOM     37  C   UNL     1       1.694  -1.502  -1.265  0.00  0.00    +0.036 A 
ATOM     38  C   UNL     1       0.826  -1.412  -2.358  0.00  0.00    +0.013 A 
ATOM     39 CL   UNL     1       4.072  -1.073  -0.011  0.00  0.00    -0.083 Cl
ENDBRANCH  31  37
ENDBRANCH   1  31
TORSDOF 2
