REMARK  Name = ZINC39636160
REMARK  6 active torsions:
REMARK  status: ('A' for Active; 'I' for Inactive)
REMARK    1  A    between atoms: C_1  and  C_2
REMARK    2  A    between atoms: C_7  and  C_8
REMARK    3  A    between atoms: C_8  and  C_9
REMARK    4  A    between atoms: C_13  and  C_22
REMARK    5  A    between atoms: N_24  and  C_25
REMARK    6  A    between atoms: C_31  and  C_33
REMARK                            x       y       z     vdW  Elec       q    Type
REMARK                         _______ _______ _______ _____ _____    ______ ____
ROOT
ATOM      1  C   UNL     1      -1.527   0.372   2.917  0.00  0.00    +0.220 C 
ATOM      2  O   UNL     1      -2.460   0.090   2.196  0.00  0.00    -0.275 OA
ATOM      3  N   UNL     1      -1.738   1.070   4.050  0.00  0.00    -0.300 N 
ATOM      4  C   UNL     1      -0.733   1.511   5.046  0.00  0.00    +0.121 C 
ATOM      5  C   UNL     1      -1.189   2.928   5.460  0.00  0.00    +0.100 C 
ATOM      6  C   UNL     1      -2.696   2.960   5.155  0.00  0.00    -0.004 C 
ATOM      7  C   UNL     1      -3.028   1.575   4.579  0.00  0.00    +0.115 C 
ATOM      8  C   UNL     1      -3.490   3.205   6.435  0.00  0.00    -0.010 C 
ATOM      9  C   UNL     1      -4.981   3.290   6.097  0.00  0.00    -0.082 C 
ATOM     10  N   UNL     1      -5.207   4.381   5.142  0.00  0.00    +0.379 N 
ATOM     11  C   UNL     1      -4.515   4.093   3.880  0.00  0.00    -0.082 C 
ATOM     12  C   UNL     1      -3.004   4.042   4.124  0.00  0.00    -0.010 C 
ATOM     13  H   UNL     1      -6.196   4.475   4.968  0.00  0.00    -0.086 HD
ATOM     14  H   UNL     1      -4.853   5.244   5.529  0.00  0.00    -0.086 HD
ENDROOT
BRANCH   5  15
ATOM     15  C   UNL     1      -0.945   3.150   6.930  0.00  0.00    +0.218 C 
ATOM     16  O   UNL     1      -1.008   2.217   7.703  0.00  0.00    -0.275 OA
ATOM     17  N   UNL     1      -0.655   4.385   7.387  0.00  0.00    -0.312 N 
ATOM     18  H   UNL     1      -0.605   5.130   6.769  0.00  0.00    +0.149 HD
BRANCH  17  19
ATOM     19  C   UNL     1      -0.417   4.600   8.816  0.00  0.00    +0.076 C 
ATOM     20  C   UNL     1       1.047   4.296   9.141  0.00  0.00    +0.022 C 
ATOM     21  C   UNL     1       1.296   4.522  10.633  0.00  0.00    +0.002 C 
ATOM     22  C   UNL     1       0.986   5.977  10.988  0.00  0.00    +0.000 C 
ATOM     23  C   UNL     1      -0.478   6.281  10.664  0.00  0.00    +0.005 C 
ATOM     24  C   UNL     1      -0.727   6.056   9.171  0.00  0.00    +0.006 C 
ATOM     25  C   UNL     1      -2.191   6.359   8.846  0.00  0.00    +0.009 C 
ENDBRANCH  17  19
ENDBRANCH   5  15
BRANCH   1  26
ATOM     26  C   UNL     1      -0.131  -0.057   2.546  0.00  0.00    +0.131 C 
BRANCH  26  33
ATOM     27  C   UNL     1      -0.060   1.374   0.037  0.00  0.00    +0.044 C 
ATOM     28  C   UNL     1      -0.134  -0.131   0.044  0.00  0.00    -0.047 A 
ATOM     29  C   UNL     1      -0.162  -0.827  -1.150  0.00  0.00    +0.003 A 
ATOM     30  C   UNL     1      -0.230  -2.208  -1.144  0.00  0.00    +0.000 A 
ATOM     31  C   UNL     1      -0.269  -2.892   0.057  0.00  0.00    +0.000 A 
ATOM     32  C   UNL     1      -0.239  -2.196   1.250  0.00  0.00    +0.004 A 
ATOM     33  C   UNL     1      -0.168  -0.815   1.244  0.00  0.00    -0.036 A 
ENDBRANCH  26  33
ENDBRANCH   1  26
TORSDOF 4
