REMARK  Name = ZINC59994587
REMARK  8 active torsions:
REMARK  status: ('A' for Active; 'I' for Inactive)
REMARK    1  A    between atoms: C_4  and  C_20
REMARK    2  A    between atoms: C_5  and  C_7
REMARK    3  A    between atoms: C_7  and  N_8
REMARK    4  A    between atoms: C_9  and  C_11
REMARK    5  A    between atoms: C_11  and  N_12
REMARK    6  A    between atoms: C_13  and  C_15
REMARK    7  A    between atoms: C_23  and  C_26
REMARK    8  A    between atoms: C_26  and  N_27
REMARK                            x       y       z     vdW  Elec       q    Type
REMARK                         _______ _______ _______ _____ _____    ______ ____
ROOT
ATOM      1  C   UNL     1      -0.015   1.364  -0.219  0.00  0.00    +0.000 A 
ATOM      2  C   UNL     1       1.164   2.084  -0.148  0.00  0.00    +0.001 A 
ATOM      3  C   UNL     1       2.361   1.433   0.066  0.00  0.00    +0.009 A 
ATOM      4  C   UNL     1       2.381   0.048   0.212  0.00  0.00    -0.013 A 
ATOM      5  C   UNL     1       1.191  -0.673   0.141  0.00  0.00    -0.023 A 
ATOM      6  C   UNL     1      -0.001  -0.011  -0.075  0.00  0.00    +0.006 A 
ENDROOT
BRANCH   4   7
ATOM      7  C   UNL     1       3.666  -0.658   0.443  0.00  0.00    -0.018 A 
ATOM      8  C   UNL     1       4.077  -1.666  -0.428  0.00  0.00    +0.009 A 
ATOM      9  C   UNL     1       5.273  -2.319  -0.209  0.00  0.00    +0.002 A 
ATOM     10  C   UNL     1       6.063  -1.975   0.873  0.00  0.00    -0.064 A 
ATOM     11  C   UNL     1       5.661  -0.976   1.741  0.00  0.00    +0.002 A 
ATOM     12  C   UNL     1       4.469  -0.312   1.528  0.00  0.00    +0.009 A 
BRANCH  10  13
ATOM     13  C   UNL     1       7.368  -2.692   1.107  0.00  0.00    -0.043 C 
BRANCH  13  14
ATOM     14  N   UNL     1       8.448  -1.985   0.405  0.00  0.00    +0.382 N 
ATOM     15  C   UNL     1       8.700  -0.669   1.046  0.00  0.00    -0.078 C 
ATOM     16  C   UNL     1      10.145  -0.330   0.602  0.00  0.00    -0.020 C 
ATOM     17  C   UNL     1      10.849  -1.706   0.635  0.00  0.00    -0.020 C 
ATOM     18  C   UNL     1       9.714  -2.741   0.525  0.00  0.00    -0.078 C 
ATOM     19  H   UNL     1       8.208  -1.860  -0.567  0.00  0.00    -0.081 HD
ENDBRANCH  13  14
ENDBRANCH  10  13
ENDBRANCH   4   7
BRANCH   5  20
ATOM     20  C   UNL     1       1.205  -2.171   0.298  0.00  0.00    +0.140 C 
BRANCH  20  21
ATOM     21  N   UNL     1       1.430  -2.513   1.704  0.00  0.00    -0.310 N 
ATOM     22  C   UNL     1       1.578  -3.802   2.069  0.00  0.00    +0.230 C 
ATOM     23  O   UNL     1       1.525  -4.679   1.233  0.00  0.00    -0.274 OA
ATOM     24  H   UNL     1       1.472  -1.812   2.373  0.00  0.00    +0.149 HD
BRANCH  22  25
ATOM     25  C   UNL     1       1.809  -4.154   3.516  0.00  0.00    +0.200 C 
BRANCH  25  26
ATOM     26  N   UNL     1       1.937  -5.607   3.651  0.00  0.00    -0.303 N 
ATOM     27  C   UNL     1       2.150  -6.155   4.864  0.00  0.00    +0.245 C 
ATOM     28  O   UNL     1       2.236  -5.443   5.846  0.00  0.00    -0.270 OA
ATOM     29  H   UNL     1       1.868  -6.175   2.868  0.00  0.00    +0.150 HD
BRANCH  27  30
ATOM     30  C   UNL     1       2.278  -7.615   5.000  0.00  0.00    +0.044 A 
ATOM     31  C   UNL     1       2.500  -8.238   6.282  0.00  0.00    +0.020 A 
ATOM     32  C   UNL     1       2.599  -9.582   6.271  0.00  0.00    +0.046 A 
ATOM     33  S   UNL     1       2.394  -9.988   4.550  0.00  0.00    -0.104 S 
ATOM     34  C   UNL     1       2.185  -8.451   3.910  0.00  0.00    +0.058 A 
ENDBRANCH  27  30
ENDBRANCH  25  26
ENDBRANCH  22  25
ENDBRANCH  20  21
ENDBRANCH   5  20
TORSDOF 8
