REMARK  Name = ZINC38682257
REMARK  9 active torsions:
REMARK  status: ('A' for Active; 'I' for Inactive)
REMARK    1  A    between atoms: C_1  and  S_2
REMARK    2  A    between atoms: S_2  and  C_3
REMARK    3  A    between atoms: C_6  and  C_9
REMARK    4  A    between atoms: C_14  and  O_23
REMARK    5  A    between atoms: C_18  and  N_22
REMARK    6  A    between atoms: C_19  and  C_20
REMARK    7  A    between atoms: O_23  and  C_24
REMARK    8  A    between atoms: C_24  and  C_26
REMARK    9  A    between atoms: C_29  and  N_32
REMARK                            x       y       z     vdW  Elec       q    Type
REMARK                         _______ _______ _______ _____ _____    ______ ____
ROOT
ATOM      1  C   UNL     1       2.938  -1.344  -5.116  0.00  0.00    +0.098 C 
ATOM      2  C   UNL     1       4.164  -2.152  -4.784  0.00  0.00    +0.008 A 
ATOM      3  C   UNL     1       5.315  -1.505  -4.369  0.00  0.00    +0.012 A 
ATOM      4  C   UNL     1       6.448  -2.230  -4.060  0.00  0.00    +0.047 A 
ATOM      5  C   UNL     1       6.436  -3.614  -4.164  0.00  0.00    +0.135 A 
ATOM      6  C   UNL     1       5.286  -4.265  -4.579  0.00  0.00    +0.093 A 
ATOM      7  C   UNL     1       4.146  -3.534  -4.889  0.00  0.00    +0.138 A 
ATOM      8  O   UNL     1       3.028  -4.187  -5.293  0.00  0.00    -0.441 OA
ATOM      9  C   UNL     1       2.067  -3.522  -5.955  0.00  0.00    +0.199 C 
ATOM     10  C   UNL     1       1.971  -2.175  -5.911  0.00  0.00    +0.098 C 
ENDROOT
BRANCH   1  14
ATOM     11  C   UNL     1       1.062  -0.063  -1.496  0.00  0.00    +0.008 A 
ATOM     12  C   UNL     1       1.522   0.875  -2.411  0.00  0.00    +0.015 A 
ATOM     13  C   UNL     1       2.128   0.458  -3.580  0.00  0.00    +0.005 A 
ATOM     14  C   UNL     1       2.276  -0.892  -3.840  0.00  0.00    -0.035 A 
ATOM     15  C   UNL     1       1.819  -1.829  -2.931  0.00  0.00    +0.005 A 
ATOM     16  C   UNL     1       1.218  -1.419  -1.758  0.00  0.00    +0.015 A 
BRANCH  11  18
ATOM     17  C   UNL     1       0.314   2.275  -0.112  0.00  0.00    +0.090 C 
ATOM     18  S   UNL     1       0.288   0.465  -0.003  0.00  0.00    -0.129 S 
ENDBRANCH  11  18
ENDBRANCH   1  14
BRANCH   9  19
ATOM     19  N   UNL     1       1.157  -4.232  -6.698  0.00  0.00    -0.328 N 
ATOM     20  H   UNL     1       1.214  -5.200  -6.739  0.00  0.00    +0.145 HD
ATOM     21  H   UNL     1       0.457  -3.767  -7.182  0.00  0.00    +0.145 HD
ENDBRANCH   9  19
BRANCH  10  22
ATOM     22  C   UNL     1       0.922  -1.527  -6.639  0.00  0.00    +0.101 C 
ATOM     23  N   UNL     1       0.090  -1.013  -7.216  0.00  0.00    -0.191 NA
ENDBRANCH  10  22
BRANCH   5  24
ATOM     24  O   UNL     1       7.551  -4.329  -3.861  0.00  0.00    -0.422 OA
BRANCH  24  25
ATOM     25  C   UNL     1       7.937  -4.383  -2.571  0.00  0.00    +0.344 C 
ATOM     26  O   UNL     1       7.238  -3.891  -1.707  0.00  0.00    -0.245 OA
BRANCH  25  27
ATOM     27  C   UNL     1       9.209  -5.039  -2.207  0.00  0.00    +0.060 A 
ATOM     28  C   UNL     1      10.018  -5.600  -3.198  0.00  0.00    +0.017 A 
ATOM     29  C   UNL     1      11.204  -6.212  -2.851  0.00  0.00    +0.033 A 
ATOM     30  C   UNL     1      11.594  -6.270  -1.525  0.00  0.00    +0.126 A 
ATOM     31  C   UNL     1      10.798  -5.716  -0.538  0.00  0.00    +0.033 A 
ATOM     32  C   UNL     1       9.612  -5.096  -0.871  0.00  0.00    +0.017 A 
BRANCH  30  33
ATOM     33  N   UNL     1      12.869  -6.928  -1.160  0.00  0.00    +0.056 N 
ATOM     34  O   UNL     1      13.566  -7.414  -2.020  0.00  0.00    -0.126 OA
ATOM     35  O   UNL     1      13.212  -6.981  -0.002  0.00  0.00    -0.126 OA
ENDBRANCH  30  33
ENDBRANCH  25  27
ENDBRANCH  24  25
ENDBRANCH   5  24
TORSDOF 8
