REMARK  Name = ZINC63569262
REMARK  5 active torsions:
REMARK  status: ('A' for Active; 'I' for Inactive)
REMARK    1  A    between atoms: C_7  and  C_10
REMARK    2  A    between atoms: C_10  and  C_11
REMARK    3  A    between atoms: C_11  and  N_12
REMARK    4  A    between atoms: C_13  and  C_15
REMARK    5  A    between atoms: C_16  and  N_27
REMARK                            x       y       z     vdW  Elec       q    Type
REMARK                         _______ _______ _______ _____ _____    ______ ____
ROOT
ATOM      1  N   UNL     1      -0.458  -4.798  -1.460  0.00  0.00    -0.311 N 
ATOM      2  C   UNL     1      -0.811  -5.380  -2.623  0.00  0.00    +0.253 C 
ATOM      3  O   UNL     1      -0.369  -4.955  -3.675  0.00  0.00    -0.270 OA
ATOM      4  H   UNL     1      -0.810  -5.136  -0.622  0.00  0.00    +0.149 HD
ENDROOT
BRANCH   2   5
ATOM      5  C   UNL     1      -1.696  -6.487  -2.622  0.00  0.00    +0.097 A 
ATOM      6  C   UNL     1      -2.161  -7.210  -3.698  0.00  0.00    +0.053 A 
ATOM      7  C   UNL     1      -3.072  -8.316  -3.445  0.00  0.00    +0.029 A 
ATOM      8  C   UNL     1      -3.678  -9.194  -4.376  0.00  0.00    +0.017 A 
ATOM      9  C   UNL     1      -4.519 -10.185  -3.918  0.00  0.00    -0.025 A 
ATOM     10  C   UNL     1      -4.766 -10.318  -2.559  0.00  0.00    +0.046 A 
ATOM     11  N   UNL     1      -4.197  -9.494  -1.696  0.00  0.00    -0.244 NA
ATOM     12  C   UNL     1      -3.388  -8.535  -2.086  0.00  0.00    +0.111 A 
ATOM     13  S   UNL     1      -2.467  -7.283  -1.226  0.00  0.00    -0.062 S 
ATOM     14  C   UNL     1      -5.716 -11.474  -2.325  0.00  0.00    +0.056 C 
ATOM     15  C   UNL     1      -6.363 -11.751  -3.698  0.00  0.00    +0.011 C 
ATOM     16  C   UNL     1      -5.287 -11.244  -4.681  0.00  0.00    +0.037 C 
BRANCH   6  17
ATOM     17  N   UNL     1      -1.772  -6.890  -4.991  0.00  0.00    -0.356 N 
ATOM     18  H   UNL     1      -1.164  -6.150  -5.146  0.00  0.00    +0.142 HD
ATOM     19  H   UNL     1      -2.107  -7.407  -5.740  0.00  0.00    +0.142 HD
ENDBRANCH   6  17
ENDBRANCH   2   5
BRANCH   1  20
ATOM     20  C   UNL     1       0.457  -3.653  -1.462  0.00  0.00    +0.109 C 
BRANCH  20  21
ATOM     21  C   UNL     1       0.691  -3.186  -0.024  0.00  0.00    +0.052 C 
BRANCH  21  28
ATOM     22  C   UNL     1      -0.016   1.348   0.009  0.00  0.00    +0.001 A 
ATOM     23  C   UNL     1       1.166   2.101   0.002  0.00  0.00    +0.002 A 
ATOM     24  C   UNL     1       2.391   1.535  -0.013  0.00  0.00    +0.026 A 
ATOM     25  C   UNL     1       2.529   0.120  -0.022  0.00  0.00    +0.043 A 
ATOM     26  N   UNL     1       3.587  -0.654  -0.037  0.00  0.00    -0.380 N 
ATOM     27  C   UNL     1       3.143  -2.053  -0.041  0.00  0.00    +0.144 C 
ATOM     28  C   UNL     1       1.631  -2.008  -0.025  0.00  0.00    -0.040 C 
ATOM     29  C   UNL     1       1.295  -0.698  -0.014  0.00  0.00    -0.001 A 
ATOM     30  C   UNL     1       0.002  -0.004   0.002  0.00  0.00    +0.010 A 
ATOM     31  H   UNL     1       4.509  -0.353  -0.045  0.00  0.00    +0.160 HD
ENDBRANCH  21  28
ENDBRANCH  20  21
ENDBRANCH   1  20
TORSDOF 5
