REMARK  Name = ZINC08790170
REMARK  6 active torsions:
REMARK  status: ('A' for Active; 'I' for Inactive)
REMARK    1  A    between atoms: C_1  and  C_2
REMARK    2  A    between atoms: C_17  and  C_19
REMARK    3  A    between atoms: C_19  and  C_20
REMARK    4  A    between atoms: C_20  and  C_21
REMARK    5  A    between atoms: N_26  and  C_29
REMARK    6  A    between atoms: C_29  and  C_30
REMARK                            x       y       z     vdW  Elec       q    Type
REMARK                         _______ _______ _______ _____ _____    ______ ____
ROOT
ATOM      1  C   UNL     1       2.623   5.586   2.822  0.00  0.00    +0.044 C 
ATOM      2  C   UNL     1       3.597   4.975   3.796  0.00  0.00    -0.049 A 
ATOM      3  C   UNL     1       4.266   3.809   3.469  0.00  0.00    +0.008 A 
ATOM      4  C   UNL     1       5.156   3.251   4.359  0.00  0.00    -0.026 A 
ATOM      5  C   UNL     1       5.391   3.848   5.595  0.00  0.00    +0.054 A 
ATOM      6  C   UNL     1       4.715   5.022   5.916  0.00  0.00    +0.063 A 
ATOM      7  C   UNL     1       3.824   5.579   5.019  0.00  0.00    +0.025 A 
ATOM      8 CL   UNL     1       4.991   5.789   7.449  0.00  0.00    -0.082 Cl
ATOM      9  N   UNL     1       6.324   3.103   6.321  0.00  0.00    -0.285 N 
ATOM     10  C   UNL     1       6.746   2.018   5.643  0.00  0.00    +0.211 C 
ATOM     11  O   UNL     1       7.550   1.194   6.024  0.00  0.00    -0.277 OA
ATOM     12  C   UNL     1       6.026   2.027   4.322  0.00  0.00    +0.050 C 
ATOM     13  C   UNL     1       7.012   2.073   3.148  0.00  0.00    +0.088 C 
ATOM     14  C   UNL     1       7.132   0.596   2.681  0.00  0.00    +0.073 C 
ATOM     15  C   UNL     1       6.199  -0.195   3.622  0.00  0.00    -0.057 C 
ATOM     16  C   UNL     1       6.537   0.619   1.291  0.00  0.00    +0.224 C 
ATOM     17  O   UNL     1       6.425  -0.342   0.561  0.00  0.00    -0.275 OA
ATOM     18  N   UNL     1       6.154   1.866   0.993  0.00  0.00    -0.237 N 
ATOM     19  C   UNL     1       6.381   2.763   1.959  0.00  0.00    +0.225 C 
ATOM     20  O   UNL     1       6.119   3.945   1.893  0.00  0.00    -0.275 OA
ATOM     21  H   UNL     1       6.633   3.340   7.209  0.00  0.00    +0.155 HD
ATOM     22  N   UNL     1       5.263   0.805   4.128  0.00  0.00    +0.394 N 
ATOM     23  H   UNL     1       4.510   0.961   3.448  0.00  0.00    -0.083 HD
ATOM     24  H   UNL     1       4.860   0.493   5.019  0.00  0.00    -0.083 HD
ENDROOT
BRANCH  15  25
ATOM     25  C   UNL     1       5.486  -1.309   2.852  0.00  0.00    -0.006 C 
BRANCH  25  26
ATOM     26  C   UNL     1       4.664  -2.156   3.826  0.00  0.00    +0.094 C 
BRANCH  26  27
ATOM     27  C   UNL     1       3.962  -3.253   3.068  0.00  0.00    +0.210 C 
ATOM     28  O   UNL     1       4.104  -3.347   1.867  0.00  0.00    -0.276 OA
ATOM     29  N   UNL     1       3.175  -4.129   3.724  0.00  0.00    -0.329 N 
ATOM     30  H   UNL     1       3.061  -4.053   4.684  0.00  0.00    +0.145 HD
ATOM     31  H   UNL     1       2.723  -4.835   3.236  0.00  0.00    +0.145 HD
ENDBRANCH  26  27
ENDBRANCH  25  26
ENDBRANCH  15  25
BRANCH  18  32
ATOM     32  C   UNL     1       5.541   2.220  -0.290  0.00  0.00    +0.151 C 
BRANCH  32  33
ATOM     33  C   UNL     1       4.044   2.076  -0.188  0.00  0.00    -0.026 A 
ATOM     34  C   UNL     1       3.274   3.151   0.215  0.00  0.00    +0.009 A 
ATOM     35  C   UNL     1       1.900   3.024   0.309  0.00  0.00    +0.050 A 
ATOM     36  C   UNL     1       1.293   1.818  -0.001  0.00  0.00    +0.166 A 
ATOM     37  C   UNL     1       2.069   0.735  -0.406  0.00  0.00    +0.167 A 
ATOM     38  C   UNL     1       3.445   0.870  -0.498  0.00  0.00    +0.054 A 
ATOM     39  O   UNL     1       1.245  -0.326  -0.649  0.00  0.00    -0.453 OA
ATOM     40  C   UNL     1       0.002  -0.004   0.002  0.00  0.00    +0.466 C 
ATOM     41  O   UNL     1      -0.018   1.436   0.010  0.00  0.00    -0.453 OA
ENDBRANCH  32  33
ENDBRANCH  18  32
TORSDOF 5
