REMARK  Name = ZINC38964178
REMARK  8 active torsions:
REMARK  status: ('A' for Active; 'I' for Inactive)
REMARK    1  A    between atoms: C_1  and  C_2
REMARK    2  A    between atoms: C_2  and  O_3
REMARK    3  A    between atoms: O_3  and  C_4
REMARK    4  A    between atoms: C_7  and  N_10
REMARK    5  A    between atoms: C_18  and  C_20
REMARK    6  A    between atoms: C_20  and  S_21
REMARK    7  A    between atoms: S_21  and  C_22
REMARK    8  A    between atoms: C_26  and  C_28
REMARK                            x       y       z     vdW  Elec       q    Type
REMARK                         _______ _______ _______ _____ _____    ______ ____
ROOT
ATOM      1  N   UNL     1      -4.341  -5.728   0.102  0.00  0.00    -0.328 N 
ATOM      2  C   UNL     1      -3.247  -6.546  -0.058  0.00  0.00    +0.180 C 
ATOM      3  N   UNL     1      -2.047  -6.040  -0.041  0.00  0.00    -0.371 N 
ATOM      4  N   UNL     1      -3.421  -7.904  -0.236  0.00  0.00    -0.298 N 
ATOM      5  C   UNL     1      -4.675  -8.455  -0.129  0.00  0.00    +0.211 A 
ATOM      6  N   UNL     1      -4.812  -9.808  -0.143  0.00  0.00    -0.293 N 
ATOM      7  C   UNL     1      -6.041 -10.358  -0.038  0.00  0.00    +0.253 A 
ATOM      8  C   UNL     1      -7.154  -9.507   0.084  0.00  0.00    +0.094 A 
ATOM      9  C   UNL     1      -6.954  -8.157   0.093  0.00  0.00    +0.060 A 
ATOM     10  N   UNL     1      -5.721  -7.665  -0.008  0.00  0.00    -0.218 NA
ATOM     11  O   UNL     1      -6.183 -11.570  -0.050  0.00  0.00    -0.268 OA
ATOM     12  H   UNL     1      -5.229  -6.112   0.173  0.00  0.00    +0.169 HD
ATOM     13  H   UNL     1      -1.279  -6.606  -0.217  0.00  0.00    +0.159 HD
ATOM     14  H   UNL     1      -1.921  -5.097   0.147  0.00  0.00    +0.159 HD
ATOM     15  H   UNL     1      -2.658  -8.468  -0.437  0.00  0.00    +0.172 HD
ATOM     16  H   UNL     1      -4.031 -10.376  -0.229  0.00  0.00    +0.172 HD
ENDROOT
BRANCH   1  20
ATOM     17  C   UNL     1      -3.841  -1.592   0.282  0.00  0.00    +0.121 A 
ATOM     18  C   UNL     1      -3.054  -2.420   1.069  0.00  0.00    +0.047 A 
ATOM     19  C   UNL     1      -3.219  -3.790   1.010  0.00  0.00    +0.029 A 
ATOM     20  C   UNL     1      -4.173  -4.338   0.163  0.00  0.00    +0.042 A 
ATOM     21  C   UNL     1      -4.960  -3.508  -0.624  0.00  0.00    +0.029 A 
ATOM     22  C   UNL     1      -4.798  -2.138  -0.560  0.00  0.00    +0.047 A 
BRANCH  17  23
ATOM     23  O   UNL     1      -3.678  -0.243   0.341  0.00  0.00    -0.492 OA
BRANCH  23  25
ATOM     24  C   UNL     1      -2.637   1.779   1.160  0.00  0.00    +0.048 C 
ATOM     25  C   UNL     1      -2.674   0.251   1.230  0.00  0.00    +0.225 C 
ENDBRANCH  23  25
ENDBRANCH  17  23
ENDBRANCH   1  20
BRANCH   9  26
ATOM     26  C   UNL     1      -8.129  -7.223   0.222  0.00  0.00    +0.127 C 
BRANCH  26  27
ATOM     27  S   UNL     1      -8.172  -6.535   1.900  0.00  0.00    -0.120 S 
BRANCH  27  28
ATOM     28  C   UNL     1      -9.624  -5.447   1.891  0.00  0.00    +0.210 C 
ATOM     29  N   UNL     1      -9.536  -4.439   0.809  0.00  0.00    -0.245 N 
ATOM     30  N   UNL     1     -10.527  -4.517  -0.144  0.00  0.00    -0.183 NA
ATOM     31  C   UNL     1     -11.473  -5.394  -0.118  0.00  0.00    +0.091 C 
ATOM     32  S   UNL     1     -11.135  -6.350   1.354  0.00  0.00    -0.074 S 
ATOM     33  C   UNL     1     -12.602  -5.571  -1.101  0.00  0.00    +0.075 C 
ATOM     34  H   UNL     1      -8.832  -3.773   0.775  0.00  0.00    +0.170 HD
ENDBRANCH  27  28
ENDBRANCH  26  27
ENDBRANCH   9  26
TORSDOF 6
