REMARK  Name = ZINC65266032
REMARK  8 active torsions:
REMARK  status: ('A' for Active; 'I' for Inactive)
REMARK    1  A    between atoms: C_1  and  C_2
REMARK    2  A    between atoms: C_2  and  C_3
REMARK    3  A    between atoms: C_2  and  C_4
REMARK    4  A    between atoms: C_2  and  N_5
REMARK    5  A    between atoms: N_23  and  C_24
REMARK    6  A    between atoms: C_24  and  C_25
REMARK    7  A    between atoms: C_29  and  O_31
REMARK    8  A    between atoms: O_31  and  C_32
REMARK                            x       y       z     vdW  Elec       q    Type
REMARK                         _______ _______ _______ _____ _____    ______ ____
ROOT
ATOM      1  N   UNL     1       0.195  -0.914  -1.022  0.00  0.00    -0.370 N 
ATOM      2  C   UNL     1       1.417  -1.320  -1.144  0.00  0.00    +0.095 C 
ATOM      3  N   UNL     1       2.384  -0.985  -0.227  0.00  0.00    -0.303 N 
ATOM      4  C   UNL     1       2.602  -1.827   0.859  0.00  0.00    +0.037 A 
ATOM      5  C   UNL     1       2.739  -1.294   2.133  0.00  0.00    +0.023 A 
ATOM      6  C   UNL     1       2.969  -2.124   3.212  0.00  0.00    +0.002 A 
ATOM      7  C   UNL     1       3.063  -3.490   3.010  0.00  0.00    +0.000 A 
ATOM      8  C   UNL     1       2.921  -4.019   1.746  0.00  0.00    +0.007 A 
ATOM      9  C   UNL     1       2.681  -3.197   0.648  0.00  0.00    -0.012 A 
ATOM     10  C   UNL     1       2.505  -3.877  -0.685  0.00  0.00    +0.119 C 
ATOM     11  N   UNL     1       2.950  -3.043  -1.810  0.00  0.00    -0.299 NA
ATOM     12  C   UNL     1       1.849  -2.180  -2.282  0.00  0.00    +0.091 C 
ATOM     13  C   UNL     1       2.301  -1.349  -3.494  0.00  0.00    +0.050 C 
ATOM     14  C   UNL     1       2.071  -2.316  -4.678  0.00  0.00    +0.111 C 
ATOM     15  N   UNL     1       1.098  -3.327  -4.234  0.00  0.00    -0.283 N 
ATOM     16  C   UNL     1       0.696  -3.023  -2.846  0.00  0.00    +0.139 C 
ATOM     17  C   UNL     1       0.647  -4.360  -4.973  0.00  0.00    +0.303 C 
ATOM     18  O   UNL     1      -0.161  -5.137  -4.503  0.00  0.00    -0.253 OA
ATOM     19  N   UNL     1       1.092  -4.531  -6.234  0.00  0.00    -0.295 N 
ATOM     20  H   UNL     1      -0.494  -1.269  -1.606  0.00  0.00    +0.161 HD
ATOM     21  H   UNL     1       3.759  -2.496  -1.557  0.00  0.00    +0.123 HD
ATOM     22  H   UNL     1       1.737  -3.911  -6.609  0.00  0.00    +0.151 HD
ATOM     23  H   UNL     1       2.907  -0.175  -0.336  0.00  0.00    +0.153 HD
ENDROOT
BRANCH   1  25
ATOM     24  C   UNL     1       0.765   1.300  -0.154  0.00  0.00    +0.033 C 
ATOM     25  C   UNL     1      -0.148   0.082  -0.004  0.00  0.00    +0.031 C 
ATOM     26  C   UNL     1       0.037  -0.527   1.387  0.00  0.00    +0.033 C 
ATOM     27  C   UNL     1      -1.605   0.512  -0.183  0.00  0.00    +0.033 C 
ENDBRANCH   1  25
BRANCH  19  28
ATOM     28  C   UNL     1       0.602  -5.654  -7.037  0.00  0.00    +0.141 C 
BRANCH  28  29
ATOM     29  C   UNL     1       1.250  -5.619  -8.397  0.00  0.00    -0.027 A 
ATOM     30  C   UNL     1       0.655  -4.915  -9.428  0.00  0.00    +0.005 A 
ATOM     31  C   UNL     1       1.247  -4.881 -10.677  0.00  0.00    +0.004 A 
ATOM     32  C   UNL     1       2.435  -5.551 -10.898  0.00  0.00    +0.045 A 
ATOM     33  C   UNL     1       3.034  -6.258  -9.866  0.00  0.00    +0.120 A 
ATOM     34  C   UNL     1       2.441  -6.285  -8.612  0.00  0.00    +0.050 A 
BRANCH  33  35
ATOM     35  O   UNL     1       4.202  -6.917 -10.081  0.00  0.00    -0.495 OA
ATOM     36  C   UNL     1       4.759  -6.840 -11.395  0.00  0.00    +0.277 C 
ENDBRANCH  33  35
ENDBRANCH  28  29
ENDBRANCH  19  28
TORSDOF 4
