REMARK  Name = ZINC01372544
REMARK  12 active torsions:
REMARK  status: ('A' for Active; 'I' for Inactive)
REMARK    1  A    between atoms: C_1  and  C_2
REMARK    2  A    between atoms: C_7  and  C_8
REMARK    3  A    between atoms: C_8  and  C_10
REMARK    4  A    between atoms: C_8  and  N_20
REMARK    5  A    between atoms: N_12  and  C_13
REMARK    6  A    between atoms: C_13  and  C_14
REMARK    7  A    between atoms: N_20  and  C_21
REMARK    8  A    between atoms: C_24  and  C_27
REMARK    9  A    between atoms: C_27  and  O_29
REMARK   10  A    between atoms: O_29  and  C_30
REMARK   11  A    between atoms: C_31  and  C_33
REMARK   12  A    between atoms: C_33  and  N_34
REMARK                            x       y       z     vdW  Elec       q    Type
REMARK                         _______ _______ _______ _____ _____    ______ ____
ROOT
ATOM      1  N   UNL     1       0.150  -1.036   4.002  0.00  0.00    -0.254 N 
ATOM      2  C   UNL     1       0.493  -2.326   3.815  0.00  0.00    +0.242 C 
ATOM      3  O   UNL     1       0.109  -3.174   4.593  0.00  0.00    -0.273 OA
ENDROOT
BRANCH   1   4
ATOM      4  C   UNL     1      -0.541  -0.658   5.152  0.00  0.00    +0.038 A 
ATOM      5  C   UNL     1      -1.052   0.631   5.262  0.00  0.00    +0.024 A 
ATOM      6  C   UNL     1      -1.735   1.008   6.396  0.00  0.00    +0.017 A 
ATOM      7  C   UNL     1      -1.915   0.094   7.438  0.00  0.00    +0.059 A 
ATOM      8  C   UNL     1      -1.400  -1.201   7.324  0.00  0.00    +0.017 A 
ATOM      9  C   UNL     1      -0.723  -1.573   6.185  0.00  0.00    +0.024 A 
BRANCH   7  10
ATOM     10  C   UNL     1      -2.646   0.494   8.654  0.00  0.00    +0.339 C 
ATOM     11  O   UNL     1      -3.092   1.620   8.752  0.00  0.00    -0.245 OA
BRANCH  10  12
ATOM     12  O   UNL     1      -2.819  -0.389   9.658  0.00  0.00    -0.464 OA
ATOM     13  C   UNL     1      -3.536   0.067  10.806  0.00  0.00    +0.280 C 
ENDBRANCH  10  12
ENDBRANCH   7  10
ENDBRANCH   1   4
BRANCH   1  14
ATOM     14  C   UNL     1       0.504  -0.032   2.996  0.00  0.00    +0.197 C 
BRANCH  14  21
ATOM     15  C   UNL     1      -2.317  -0.042   2.376  0.00  0.00    +0.044 C 
ATOM     16  C   UNL     1      -1.317  -0.495   1.344  0.00  0.00    -0.045 A 
ATOM     17  C   UNL     1      -1.750  -0.910   0.098  0.00  0.00    +0.004 A 
ATOM     18  C   UNL     1      -0.833  -1.325  -0.849  0.00  0.00    +0.000 A 
ATOM     19  C   UNL     1       0.517  -1.325  -0.551  0.00  0.00    +0.000 A 
ATOM     20  C   UNL     1       0.950  -0.910   0.695  0.00  0.00    +0.006 A 
ATOM     21  C   UNL     1       0.033  -0.490   1.640  0.00  0.00    -0.015 A 
ENDBRANCH  14  21
BRANCH  14  22
ATOM     22  C   UNL     1       2.000   0.150   2.973  0.00  0.00    +0.239 C 
ATOM     23  O   UNL     1       2.701  -0.492   3.726  0.00  0.00    -0.273 OA
ATOM     24  N   UNL     1       2.559   1.026   2.114  0.00  0.00    -0.309 N 
ATOM     25  H   UNL     1       1.996   1.591   1.563  0.00  0.00    +0.149 HD
BRANCH  24  26
ATOM     26  C   UNL     1       4.018   1.123   2.013  0.00  0.00    +0.139 C 
BRANCH  26  27
ATOM     27  C   UNL     1       4.382   2.168   0.990  0.00  0.00    -0.030 A 
ATOM     28  C   UNL     1       4.540   1.811  -0.337  0.00  0.00    +0.005 A 
ATOM     29  C   UNL     1       4.874   2.769  -1.275  0.00  0.00    +0.000 A 
ATOM     30  C   UNL     1       5.049   4.084  -0.888  0.00  0.00    +0.000 A 
ATOM     31  C   UNL     1       4.890   4.441   0.438  0.00  0.00    +0.000 A 
ATOM     32  C   UNL     1       4.552   3.484   1.376  0.00  0.00    +0.005 A 
ENDBRANCH  26  27
ENDBRANCH  24  26
ENDBRANCH  14  22
ENDBRANCH   1  14
BRANCH   2  33
ATOM     33  C   UNL     1       1.353  -2.715   2.640  0.00  0.00    +0.242 C 
BRANCH  33  34
ATOM     34  N   UNL     1       1.753  -4.119   2.771  0.00  0.00    -0.235 N 
ATOM     35  C   UNL     1       2.874  -4.598   3.405  0.00  0.00    +0.090 A 
ATOM     36  C   UNL     1       3.931  -4.000   4.084  0.00  0.00    +0.029 A 
ATOM     37  C   UNL     1       4.922  -4.776   4.617  0.00  0.00    +0.002 A 
ATOM     38  C   UNL     1       4.884  -6.159   4.487  0.00  0.00    +0.002 A 
ATOM     39  C   UNL     1       3.859  -6.769   3.826  0.00  0.00    +0.032 A 
ATOM     40  C   UNL     1       2.830  -5.997   3.271  0.00  0.00    +0.113 A 
ATOM     41  N   UNL     1       1.715  -6.306   2.579  0.00  0.00    -0.129 NA
ATOM     42  N   UNL     1       1.065  -5.237   2.280  0.00  0.00    -0.064 NA
ENDBRANCH  33  34
ENDBRANCH   2  33
TORSDOF 10
