REMARK  Name = ZINC01146981
REMARK  7 active torsions:
REMARK  status: ('A' for Active; 'I' for Inactive)
REMARK    1  A    between atoms: C_1  and  C_2
REMARK    2  A    between atoms: C_6  and  N_8
REMARK    3  A    between atoms: N_8  and  S_9
REMARK    4  A    between atoms: S_9  and  C_12
REMARK    5  A    between atoms: C_15  and  N_18
REMARK    6  A    between atoms: N_18  and  S_19
REMARK    7  A    between atoms: S_19  and  C_22
REMARK                            x       y       z     vdW  Elec       q    Type
REMARK                         _______ _______ _______ _____ _____    ______ ____
ROOT
ATOM      1  C   UNL     1       4.111  -1.930  -4.276  0.00  0.00    +0.109 A 
ATOM      2  C   UNL     1       3.467  -3.151  -4.352  0.00  0.00    +0.030 A 
ATOM      3  C   UNL     1       2.471  -3.466  -3.448  0.00  0.00    +0.026 A 
ATOM      4  C   UNL     1       2.118  -2.555  -2.461  0.00  0.00    +0.048 A 
ATOM      5  C   UNL     1       2.763  -1.327  -2.391  0.00  0.00    +0.026 A 
ATOM      6  C   UNL     1       3.761  -1.020  -3.295  0.00  0.00    +0.030 A 
ENDROOT
BRANCH   1   7
ATOM      7  S   UNL     1       5.380  -1.532  -5.432  0.00  0.00    +0.072 S 
ATOM      8  O   UNL     1       6.201  -0.552  -4.812  0.00  0.00    -0.150 OA
ATOM      9  O   UNL     1       5.895  -2.767  -5.910  0.00  0.00    -0.150 OA
BRANCH   7  10
ATOM     10  N   UNL     1       4.652  -0.791  -6.722  0.00  0.00    -0.216 N 
ATOM     11  H   UNL     1       4.661  -1.216  -7.594  0.00  0.00    +0.174 HD
BRANCH  10  17
ATOM     12  C   UNL     1       0.796   2.143  -7.546  0.00  0.00    +0.044 C 
ATOM     13  C   UNL     1       2.155   1.896  -6.943  0.00  0.00    -0.049 A 
ATOM     14  C   UNL     1       2.783   2.897  -6.224  0.00  0.00    +0.003 A 
ATOM     15  C   UNL     1       4.030   2.675  -5.670  0.00  0.00    +0.002 A 
ATOM     16  C   UNL     1       4.653   1.452  -5.833  0.00  0.00    +0.024 A 
ATOM     17  C   UNL     1       4.025   0.446  -6.554  0.00  0.00    +0.048 A 
ATOM     18  C   UNL     1       2.774   0.674  -7.114  0.00  0.00    +0.027 A 
ENDBRANCH  10  17
ENDBRANCH   7  10
ENDBRANCH   1   7
BRANCH   4  19
ATOM     19  N   UNL     1       1.111  -2.870  -1.545  0.00  0.00    -0.216 N 
ATOM     20  H   UNL     1       0.239  -2.453  -1.621  0.00  0.00    +0.174 HD
BRANCH  19  21
ATOM     21  S   UNL     1       1.408  -3.954  -0.329  0.00  0.00    +0.072 S 
ATOM     22  O   UNL     1       1.972  -5.106  -0.942  0.00  0.00    -0.150 OA
ATOM     23  O   UNL     1       0.228  -4.012   0.460  0.00  0.00    -0.150 OA
BRANCH  21  24
ATOM     24  C   UNL     1       2.665  -3.261   0.693  0.00  0.00    +0.109 A 
ATOM     25  C   UNL     1       2.327  -2.375   1.699  0.00  0.00    +0.030 A 
ATOM     26  C   UNL     1       3.312  -1.831   2.501  0.00  0.00    +0.017 A 
ATOM     27  C   UNL     1       4.637  -2.172   2.296  0.00  0.00    +0.018 A 
ATOM     28  C   UNL     1       4.975  -3.058   1.289  0.00  0.00    +0.017 A 
ATOM     29  C   UNL     1       3.989  -3.602   0.487  0.00  0.00    +0.030 A 
ATOM     30 BR   UNL     1       5.985  -1.428   3.393  0.00  0.00    -0.050 Br
ENDBRANCH  21  24
ENDBRANCH  19  21
ENDBRANCH   4  19
TORSDOF 6
