REMARK  Name = ZINC37981955
REMARK  4 active torsions:
REMARK  status: ('A' for Active; 'I' for Inactive)
REMARK    1  A    between atoms: C_4  and  C_18
REMARK    2  A    between atoms: C_6  and  N_7
REMARK    3  A    between atoms: N_7  and  S_8
REMARK    4  A    between atoms: S_8  and  C_11
REMARK                            x       y       z     vdW  Elec       q    Type
REMARK                         _______ _______ _______ _____ _____    ______ ____
ROOT
ATOM      1  N   UNL     1      -1.200  -0.719   0.010  0.00  0.00    -0.098 NA
ENDROOT
BRANCH   1   7
ATOM      2  C   UNL     1      -0.017   1.386   0.010  0.00  0.00    +0.029 A 
ATOM      3  C   UNL     1       1.167   2.100   0.002  0.00  0.00    +0.041 A 
ATOM      4  C   UNL     1       2.379   1.435  -0.013  0.00  0.00    +0.138 A 
ATOM      5  C   UNL     1       2.409   0.036  -0.021  0.00  0.00    +0.100 A 
ATOM      6  C   UNL     1       1.210  -0.682  -0.013  0.00  0.00    +0.044 A 
ATOM      7  C   UNL     1       0.002  -0.004   0.002  0.00  0.00    +0.075 A 
ATOM      8  F   UNL     1       3.534   2.136  -0.021  0.00  0.00    -0.205 F 
BRANCH   5   9
ATOM      9  C   UNL     1       3.698  -0.677  -0.037  0.00  0.00    +0.389 C 
ATOM     10  O   UNL     1       3.721  -1.900  -0.044  0.00  0.00    -0.240 OA
ATOM     11  O   UNL     1       4.746  -0.046  -0.044  0.00  0.00    -0.240 OA
ENDBRANCH   5   9
ENDBRANCH   1   7
BRANCH   1  12
ATOM     12  S   UNL     1      -2.645   0.091   0.028  0.00  0.00    +0.093 S 
ATOM     13  O   UNL     1      -2.718   0.763   1.277  0.00  0.00    -0.148 OA
ATOM     14  O   UNL     1      -2.741   0.776  -1.213  0.00  0.00    -0.148 OA
BRANCH  12  15
ATOM     15  C   UNL     1      -3.922  -1.123   0.033  0.00  0.00    +0.128 A 
ATOM     16  C   UNL     1      -4.438  -1.605  -1.161  0.00  0.00    +0.033 A 
ATOM     17  C   UNL     1      -5.442  -2.559  -1.109  0.00  0.00    +0.042 A 
ATOM     18  C   UNL     1      -5.892  -2.996   0.124  0.00  0.00    +0.129 A 
ATOM     19  N   UNL     1      -5.377  -2.516   1.240  0.00  0.00    -0.242 NA
ATOM     20  C   UNL     1      -4.417  -1.611   1.227  0.00  0.00    +0.141 A 
ATOM     21 CL   UNL     1      -7.150  -4.191   0.204  0.00  0.00    -0.062 Cl
ENDBRANCH  12  15
ENDBRANCH   1  12
TORSDOF 4
