REMARK  Name = ZINC08612211
REMARK  11 active torsions:
REMARK  status: ('A' for Active; 'I' for Inactive)
REMARK    1  A    between atoms: C_1  and  C_2
REMARK    2  A    between atoms: C_2  and  N_3
REMARK    3  A    between atoms: N_3  and  C_4
REMARK    4  A    between atoms: N_3  and  C_11
REMARK    5  A    between atoms: C_4  and  C_5
REMARK    6  A    between atoms: C_11  and  C_12
REMARK    7  A    between atoms: C_13  and  O_32
REMARK    8  A    between atoms: C_18  and  C_22
REMARK    9  A    between atoms: C_19  and  C_21
REMARK   10  A    between atoms: N_24  and  C_25
REMARK   11  A    between atoms: C_30  and  C_31
REMARK                            x       y       z     vdW  Elec       q    Type
REMARK                         _______ _______ _______ _____ _____    ______ ____
ROOT
ATOM      1  C   UNL     1       1.714  -1.897  -0.450  0.00  0.00    -0.011 A 
ATOM      2  C   UNL     1       1.137  -1.958  -1.706  0.00  0.00    +0.119 A 
ATOM      3  C   UNL     1       1.893  -2.363  -2.801  0.00  0.00    +0.049 A 
ATOM      4  C   UNL     1       3.219  -2.707  -2.650  0.00  0.00    +0.050 A 
ATOM      5  C   UNL     1       3.813  -2.652  -1.395  0.00  0.00    +0.136 A 
ATOM      6  C   UNL     1       3.052  -2.238  -0.292  0.00  0.00    +0.037 A 
ATOM      7  C   UNL     1       3.973  -2.285   0.861  0.00  0.00    +0.086 A 
ATOM      8  C   UNL     1       5.168  -2.704   0.362  0.00  0.00    +0.115 A 
ATOM      9  O   UNL     1       5.059  -2.923  -0.953  0.00  0.00    -0.459 OA
ATOM     10  C   UNL     1       6.423  -2.905   1.173  0.00  0.00    +0.087 C 
ENDROOT
BRANCH   7  11
ATOM     11  C   UNL     1       3.664  -1.949   2.259  0.00  0.00    +0.252 C 
ATOM     12  O   UNL     1       3.255  -2.810   3.016  0.00  0.00    -0.270 OA
ATOM     13  N   UNL     1       3.833  -0.687   2.702  0.00  0.00    -0.281 N 
ATOM     14  H   UNL     1       4.075   0.017   2.080  0.00  0.00    +0.155 HD
BRANCH  13  15
ATOM     15  C   UNL     1       3.658  -0.393   4.058  0.00  0.00    +0.037 A 
ATOM     16  C   UNL     1       3.711  -1.409   5.003  0.00  0.00    +0.023 A 
ATOM     17  C   UNL     1       3.539  -1.115   6.341  0.00  0.00    +0.002 A 
ATOM     18  C   UNL     1       3.313   0.189   6.741  0.00  0.00    +0.000 A 
ATOM     19  C   UNL     1       3.259   1.203   5.802  0.00  0.00    +0.005 A 
ATOM     20  C   UNL     1       3.438   0.917   4.463  0.00  0.00    -0.029 A 
ATOM     21  C   UNL     1       3.386   2.024   3.441  0.00  0.00    +0.045 C 
ENDBRANCH  13  15
ENDBRANCH   7  11
BRANCH   2  22
ATOM     22  O   UNL     1      -0.170  -1.621  -1.871  0.00  0.00    -0.507 OA
ATOM     23  H   UNL     1      -0.313  -0.685  -2.066  0.00  0.00    +0.292 HD
ENDBRANCH   2  22
BRANCH   1  24
ATOM     24  C   UNL     1       0.897  -1.459   0.738  0.00  0.00    -0.038 C 
BRANCH  24  25
ATOM     25  N   UNL     1       1.079  -0.017   0.953  0.00  0.00    +0.385 N 
ATOM     26  H   UNL     1       2.064   0.193   1.010  0.00  0.00    -0.081 HD
BRANCH  25  28
ATOM     27  C   UNL     1       0.821   2.210  -0.033  0.00  0.00    -0.017 C 
ATOM     28  C   UNL     1       0.486   0.723  -0.169  0.00  0.00    -0.081 C 
ENDBRANCH  25  28
BRANCH  25  29
ATOM     29  C   UNL     1       0.419   0.379   2.204  0.00  0.00    -0.043 C 
BRANCH  29  30
ATOM     30  C   UNL     1      -1.024  -0.051   2.169  0.00  0.00    -0.064 A 
ATOM     31  C   UNL     1      -1.985   0.795   1.647  0.00  0.00    +0.002 A 
ATOM     32  C   UNL     1      -3.310   0.401   1.615  0.00  0.00    +0.000 A 
ATOM     33  C   UNL     1      -3.674  -0.840   2.104  0.00  0.00    +0.000 A 
ATOM     34  C   UNL     1      -2.713  -1.686   2.625  0.00  0.00    +0.000 A 
ATOM     35  C   UNL     1      -1.388  -1.294   2.653  0.00  0.00    +0.002 A 
ENDBRANCH  29  30
ENDBRANCH  25  29
ENDBRANCH  24  25
ENDBRANCH   1  24
TORSDOF 8
