REMARK  Name = ZINC40981807
REMARK  16 active torsions:
REMARK  status: ('A' for Active; 'I' for Inactive)
REMARK    1  A    between atoms: C_1  and  C_2
REMARK    2  A    between atoms: C_2  and  C_3
REMARK    3  A    between atoms: C_3  and  S_4
REMARK    4  A    between atoms: S_4  and  C_5
REMARK    5  A    between atoms: C_10  and  C_27
REMARK    6  A    between atoms: C_12  and  C_16
REMARK    7  A    between atoms: C_13  and  C_15
REMARK    8  A    between atoms: N_18  and  C_19
REMARK    9  A    between atoms: C_22  and  C_26
REMARK   10  A    between atoms: C_24  and  C_25
REMARK   11  A    between atoms: C_30  and  O_33
REMARK   12  A    between atoms: O_33  and  C_34
REMARK   13  A    between atoms: C_34  and  C_35
REMARK   14  A    between atoms: C_35  and  C_36
REMARK   15  A    between atoms: C_36  and  C_37
REMARK   16  A    between atoms: C_36  and  C_38
REMARK                            x       y       z     vdW  Elec       q    Type
REMARK                         _______ _______ _______ _____ _____    ______ ____
ROOT
ATOM      1  C   UNL     1      -3.098  -2.828   0.190  0.00  0.00    +0.210 A 
ATOM      2  N   UNL     1      -4.138  -1.982   0.161  0.00  0.00    -0.187 NA
ATOM      3  C   UNL     1      -5.252  -2.661   0.142  0.00  0.00    +0.219 A 
ATOM      4  N   UNL     1      -4.941  -3.981   0.155  0.00  0.00    -0.220 N 
ATOM      5  N   UNL     1      -3.550  -4.063   0.184  0.00  0.00    -0.141 NA
ATOM      6  C   UNL     1      -5.940  -5.046   0.130  0.00  0.00    +0.177 C 
ATOM      7  C   UNL     1      -7.303  -4.462   0.390  0.00  0.00    +0.060 C 
ATOM      8  C   UNL     1      -7.551  -3.144   0.368  0.00  0.00    +0.018 C 
ATOM      9  N   UNL     1      -6.568  -2.219   0.117  0.00  0.00    -0.287 N 
ATOM     10  C   UNL     1      -8.955  -2.663   0.629  0.00  0.00    +0.061 C 
ATOM     11  H   UNL     1      -6.784  -1.292  -0.072  0.00  0.00    +0.155 HD
ENDROOT
BRANCH   6  12
ATOM     12  C   UNL     1      -5.929  -5.715  -1.220  0.00  0.00    -0.018 A 
ATOM     13  C   UNL     1      -6.194  -4.975  -2.358  0.00  0.00    +0.009 A 
ATOM     14  C   UNL     1      -6.184  -5.586  -3.598  0.00  0.00    +0.046 A 
ATOM     15  C   UNL     1      -5.909  -6.941  -3.700  0.00  0.00    +0.121 A 
ATOM     16  C   UNL     1      -5.643  -7.681  -2.556  0.00  0.00    +0.046 A 
ATOM     17  C   UNL     1      -5.648  -7.065  -1.320  0.00  0.00    +0.009 A 
BRANCH  15  18
ATOM     18  O   UNL     1      -5.899  -7.544  -4.918  0.00  0.00    -0.492 OA
BRANCH  18  19
ATOM     19  C   UNL     1      -5.608  -8.943  -4.947  0.00  0.00    +0.229 C 
BRANCH  19  20
ATOM     20  C   UNL     1      -5.642  -9.441  -6.393  0.00  0.00    +0.044 C 
BRANCH  20  21
ATOM     21  C   UNL     1      -5.330 -10.938  -6.424  0.00  0.00    -0.014 C 
ATOM     22  C   UNL     1      -5.487 -11.462  -7.853  0.00  0.00    +0.007 C 
ATOM     23  C   UNL     1      -3.894 -11.170  -5.951  0.00  0.00    +0.007 C 
ENDBRANCH  20  21
ENDBRANCH  19  20
ENDBRANCH  18  19
ENDBRANCH  15  18
ENDBRANCH   6  12
BRANCH   7  24
ATOM     24  C   UNL     1      -8.373  -5.344   0.669  0.00  0.00    +0.248 C 
ATOM     25  O   UNL     1      -8.456  -5.874   1.763  0.00  0.00    -0.270 OA
ATOM     26  N   UNL     1      -9.300  -5.599  -0.275  0.00  0.00    -0.281 N 
ATOM     27  H   UNL     1      -9.201  -5.226  -1.165  0.00  0.00    +0.155 HD
BRANCH  26  28
ATOM     28  C   UNL     1     -10.406  -6.400   0.029  0.00  0.00    +0.037 A 
ATOM     29  C   UNL     1     -10.273  -7.464   0.912  0.00  0.00    +0.024 A 
ATOM     30  C   UNL     1     -11.367  -8.252   1.210  0.00  0.00    +0.005 A 
ATOM     31  C   UNL     1     -12.593  -7.984   0.630  0.00  0.00    -0.050 A 
ATOM     32  C   UNL     1     -12.729  -6.926  -0.250  0.00  0.00    +0.008 A 
ATOM     33  C   UNL     1     -11.640  -6.130  -0.547  0.00  0.00    -0.029 A 
ATOM     34  C   UNL     1     -11.790  -4.973  -1.501  0.00  0.00    +0.045 C 
ATOM     35  C   UNL     1     -13.784  -8.848   0.957  0.00  0.00    +0.044 C 
ENDBRANCH  26  28
ENDBRANCH   7  24
BRANCH   1  36
ATOM     36  S   UNL     1      -1.399  -2.361   0.225  0.00  0.00    -0.084 S 
BRANCH  36  37
ATOM     37  C   UNL     1      -1.442  -0.547   0.220  0.00  0.00    +0.077 C 
BRANCH  37  39
ATOM     38  C   UNL     1      -0.050   1.527   0.244  0.00  0.00    +0.004 C 
ATOM     39  C   UNL     1      -0.013  -0.003   0.248  0.00  0.00    +0.008 C 
ENDBRANCH  37  39
ENDBRANCH  36  37
ENDBRANCH   1  36
TORSDOF 10
