REMARK  Name = ZINC64612767
REMARK  7 active torsions:
REMARK  status: ('A' for Active; 'I' for Inactive)
REMARK    1  A    between atoms: C_1  and  C_2
REMARK    2  A    between atoms: C_5  and  N_9
REMARK    3  A    between atoms: C_6  and  C_8
REMARK    4  A    between atoms: N_9  and  S_10
REMARK    5  A    between atoms: S_10  and  C_13
REMARK    6  A    between atoms: C_16  and  C_18
REMARK    7  A    between atoms: C_22  and  C_25
REMARK                            x       y       z     vdW  Elec       q    Type
REMARK                         _______ _______ _______ _____ _____    ______ ____
ROOT
ATOM      1  C   UNL     1       0.087  -6.708  -1.079  0.00  0.00    +0.111 C 
ATOM      2  C   UNL     1       1.118  -7.540  -1.170  0.00  0.00    +0.135 C 
ATOM      3  N   UNL     1       0.795  -8.801  -0.798  0.00  0.00    -0.258 NA
ATOM      4  C   UNL     1      -0.436  -8.930  -0.436  0.00  0.00    +0.069 C 
ATOM      5  C   UNL     1      -1.064  -7.556  -0.569  0.00  0.00    +0.113 C 
ENDROOT
BRANCH   4   6
ATOM      6  C   UNL     1      -1.114 -10.193   0.031  0.00  0.00    +0.248 C 
ATOM      7  N   UNL     1      -0.417 -11.375  -0.525  0.00  0.00    -0.222 NA
ATOM      8  N   UNL     1      -1.512 -12.310  -0.836  0.00  0.00    -0.223 NA
ATOM      9  C   UNL     1      -2.588 -11.395  -1.297  0.00  0.00    +0.233 C 
ATOM     10  O   UNL     1      -2.465 -10.231  -0.453  0.00  0.00    -0.332 OA
ATOM     11  H   UNL     1       0.099 -11.133  -1.357  0.00  0.00    +0.144 HD
ATOM     12  H   UNL     1      -1.798 -12.819  -0.013  0.00  0.00    +0.144 HD
BRANCH   9  13
ATOM     13  C   UNL     1      -3.939 -12.037  -1.113  0.00  0.00    -0.003 A 
ATOM     14  C   UNL     1      -4.141 -12.938  -0.084  0.00  0.00    +0.007 A 
ATOM     15  C   UNL     1      -5.380 -13.527   0.085  0.00  0.00    +0.000 A 
ATOM     16  C   UNL     1      -6.417 -13.214  -0.774  0.00  0.00    +0.000 A 
ATOM     17  C   UNL     1      -6.216 -12.312  -1.801  0.00  0.00    +0.000 A 
ATOM     18  C   UNL     1      -4.978 -11.720  -1.968  0.00  0.00    +0.007 A 
ENDBRANCH   9  13
ENDBRANCH   4   6
BRANCH   1  19
ATOM     19  S   UNL     1       0.062  -4.987  -1.460  0.00  0.00    +0.090 S 
ATOM     20  O   UNL     1      -1.190  -4.727  -2.079  0.00  0.00    -0.149 OA
ATOM     21  O   UNL     1       1.300  -4.694  -2.091  0.00  0.00    -0.149 OA
BRANCH  19  22
ATOM     22  N   UNL     1       0.058  -4.167  -0.021  0.00  0.00    -0.098 NA
BRANCH  22  27
ATOM     23  C   UNL     1      -0.018   1.503   0.010  0.00  0.00    +0.044 C 
ATOM     24  C   UNL     1       0.002  -0.004   0.002  0.00  0.00    -0.050 A 
ATOM     25  C   UNL     1       0.006  -0.687  -1.200  0.00  0.00    +0.005 A 
ATOM     26  C   UNL     1       0.024  -2.068  -1.212  0.00  0.00    +0.027 A 
ATOM     27  C   UNL     1       0.040  -2.771  -0.013  0.00  0.00    +0.077 A 
ATOM     28  C   UNL     1       0.036  -2.081   1.192  0.00  0.00    -0.026 A 
ATOM     29  C   UNL     1       0.023  -0.700   1.196  0.00  0.00    +0.008 A 
ATOM     30  C   UNL     1       0.052  -2.839   2.495  0.00  0.00    +0.046 C 
ENDBRANCH  22  27
ENDBRANCH  19  22
ENDBRANCH   1  19
TORSDOF 5
