REMARK  Name = ZINC01087550
REMARK  6 active torsions:
REMARK  status: ('A' for Active; 'I' for Inactive)
REMARK    1  A    between atoms: C_1  and  C_2
REMARK    2  A    between atoms: C_5  and  S_8
REMARK    3  A    between atoms: S_8  and  N_11
REMARK    4  A    between atoms: C_17  and  C_22
REMARK    5  A    between atoms: N_23  and  C_24
REMARK    6  A    between atoms: C_27  and  O_30
REMARK                            x       y       z     vdW  Elec       q    Type
REMARK                         _______ _______ _______ _____ _____    ______ ____
ROOT
ATOM      1  N   UNL     1      -4.516   3.563   5.759  0.00  0.00    -0.197 N 
ATOM      2  C   UNL     1      -3.925   2.946   4.667  0.00  0.00    +0.179 A 
ATOM      3  C   UNL     1      -4.687   2.702   3.499  0.00  0.00    +0.165 A 
ATOM      4  N   UNL     1      -4.137   2.117   2.455  0.00  0.00    -0.227 NA
ATOM      5  C   UNL     1      -2.848   1.750   2.499  0.00  0.00    +0.092 A 
ATOM      6  C   UNL     1      -2.238   1.129   1.397  0.00  0.00    +0.033 A 
ATOM      7  C   UNL     1      -0.929   0.760   1.468  0.00  0.00    -0.048 A 
ATOM      8  C   UNL     1      -0.179   1.000   2.617  0.00  0.00    +0.005 A 
ATOM      9  C   UNL     1      -0.738   1.605   3.702  0.00  0.00    +0.030 A 
ATOM     10  C   UNL     1      -2.086   1.993   3.667  0.00  0.00    +0.091 A 
ATOM     11  N   UNL     1      -2.658   2.591   4.723  0.00  0.00    -0.226 NA
ATOM     12  C   UNL     1      -0.280   0.089   0.285  0.00  0.00    +0.044 C 
ATOM     13  N   UNL     1      -6.020   3.082   3.454  0.00  0.00    -0.297 N 
ATOM     14  H   UNL     1      -5.449   3.826   5.721  0.00  0.00    +0.175 HD
ATOM     15  H   UNL     1      -6.450   3.438   4.247  0.00  0.00    +0.154 HD
ENDROOT
BRANCH  13  16
ATOM     16  C   UNL     1      -6.745   2.951   2.264  0.00  0.00    +0.033 A 
ATOM     17  C   UNL     1      -6.111   3.127   1.041  0.00  0.00    +0.027 A 
ATOM     18  C   UNL     1      -6.826   2.992  -0.133  0.00  0.00    +0.047 A 
ATOM     19  C   UNL     1      -8.179   2.692  -0.090  0.00  0.00    +0.117 A 
ATOM     20  C   UNL     1      -8.815   2.521   1.131  0.00  0.00    +0.047 A 
ATOM     21  C   UNL     1      -8.100   2.650   2.306  0.00  0.00    +0.027 A 
BRANCH  19  22
ATOM     22  O   UNL     1      -8.884   2.565  -1.246  0.00  0.00    -0.507 OA
ATOM     23  H   UNL     1      -9.278   3.390  -1.559  0.00  0.00    +0.292 HD
ENDBRANCH  19  22
ENDBRANCH  13  16
BRANCH   1  24
ATOM     24  S   UNL     1      -3.630   3.850   7.128  0.00  0.00    +0.074 S 
ATOM     25  O   UNL     1      -4.496   4.508   8.043  0.00  0.00    -0.150 OA
ATOM     26  O   UNL     1      -2.968   2.634   7.447  0.00  0.00    -0.150 OA
BRANCH  24  31
ATOM     27  C   UNL     1       0.672   7.822   5.668  0.00  0.00    +0.044 C 
ATOM     28  C   UNL     1      -0.402   6.830   6.033  0.00  0.00    -0.050 A 
ATOM     29  C   UNL     1      -1.630   7.276   6.486  0.00  0.00    +0.005 A 
ATOM     30  C   UNL     1      -2.615   6.366   6.821  0.00  0.00    +0.029 A 
ATOM     31  C   UNL     1      -2.374   5.010   6.702  0.00  0.00    +0.109 A 
ATOM     32  C   UNL     1      -1.145   4.564   6.253  0.00  0.00    +0.029 A 
ATOM     33  C   UNL     1      -0.161   5.474   5.914  0.00  0.00    +0.005 A 
ENDBRANCH  24  31
ENDBRANCH   1  24
TORSDOF 4
