REMARK  Name = ZINC14472670
REMARK  4 active torsions:
REMARK  status: ('A' for Active; 'I' for Inactive)
REMARK    1  A    between atoms: C_4  and  N_7
REMARK    2  A    between atoms: C_8  and  C_10
REMARK    3  A    between atoms: C_17  and  C_26
REMARK    4  A    between atoms: C_28  and  N_33
REMARK                            x       y       z     vdW  Elec       q    Type
REMARK                         _______ _______ _______ _____ _____    ______ ____
ROOT
ATOM      1  C   UNL     1       1.734   1.804  -0.265  0.00  0.00    +0.058 A 
ATOM      2  C   UNL     1       1.397   0.450  -0.227  0.00  0.00    +0.015 A 
ATOM      3  C   UNL     1       2.385  -0.492  -0.046  0.00  0.00    +0.001 A 
ATOM      4  C   UNL     1       3.703  -0.100   0.107  0.00  0.00    +0.006 A 
ATOM      5  C   UNL     1       4.057   1.241   0.076  0.00  0.00    -0.019 A 
ATOM      6  C   UNL     1       3.076   2.200  -0.109  0.00  0.00    +0.044 A 
ATOM      7  N   UNL     1       3.363   3.556  -0.146  0.00  0.00    -0.336 N 
ATOM      8  C   UNL     1       4.735   3.820  -0.581  0.00  0.00    +0.106 C 
ATOM      9  C   UNL     1       5.713   3.114   0.362  0.00  0.00    +0.029 C 
ATOM     10  C   UNL     1       5.492   1.590   0.261  0.00  0.00    +0.049 C 
ATOM     11  C   UNL     1       6.292   1.204  -0.989  0.00  0.00    -0.023 C 
ATOM     12  C   UNL     1       7.190   2.116  -1.264  0.00  0.00    -0.030 C 
ATOM     13  C   UNL     1       7.137   3.239  -0.247  0.00  0.00    +0.033 C 
ATOM     14  H   UNL     1       3.177   3.989   0.746  0.00  0.00    +0.147 HD
ENDROOT
BRANCH   8  15
ATOM     15  C   UNL     1       4.926   3.301  -1.983  0.00  0.00    -0.007 A 
ATOM     16  C   UNL     1       4.244   2.174  -2.402  0.00  0.00    +0.039 A 
ATOM     17  C   UNL     1       4.415   1.701  -3.689  0.00  0.00    +0.127 A 
ATOM     18  C   UNL     1       5.277   2.348  -4.555  0.00  0.00    +0.034 A 
ATOM     19  C   UNL     1       5.963   3.472  -4.136  0.00  0.00    +0.022 A 
ATOM     20  C   UNL     1       5.788   3.949  -2.849  0.00  0.00    +0.046 A 
ATOM     21 CL   UNL     1       6.651   5.360  -2.321  0.00  0.00    -0.083 Cl
BRANCH  17  22
ATOM     22  N   UNL     1       3.680   0.497  -4.139  0.00  0.00    +0.056 N 
ATOM     23  O   UNL     1       3.834   0.077  -5.272  0.00  0.00    -0.126 OA
ATOM     24  O   UNL     1       2.921  -0.073  -3.376  0.00  0.00    -0.126 OA
ENDBRANCH  17  22
ENDBRANCH   8  15
BRANCH   1  26
ATOM     25  N   UNL     1      -0.601   2.440  -0.611  0.00  0.00    -0.281 N 
ATOM     26  C   UNL     1       0.684   2.819  -0.462  0.00  0.00    +0.250 C 
ATOM     27  O   UNL     1       0.977   3.999  -0.489  0.00  0.00    -0.270 OA
ATOM     28  H   UNL     1      -0.826   1.498  -0.656  0.00  0.00    +0.155 HD
BRANCH  25  32
ATOM     29  C   UNL     1      -3.602   5.315  -0.895  0.00  0.00    +0.000 A 
ATOM     30  C   UNL     1      -2.357   5.560  -1.446  0.00  0.00    +0.002 A 
ATOM     31  C   UNL     1      -1.360   4.609  -1.353  0.00  0.00    +0.023 A 
ATOM     32  C   UNL     1      -1.609   3.405  -0.706  0.00  0.00    +0.034 A 
ATOM     33  C   UNL     1      -2.861   3.160  -0.159  0.00  0.00    +0.023 A 
ATOM     34  C   UNL     1      -3.852   4.118  -0.250  0.00  0.00    +0.002 A 
ENDBRANCH  25  32
ENDBRANCH   1  26
TORSDOF 4
