REMARK  Name = ZINC20272068
REMARK  8 active torsions:
REMARK  status: ('A' for Active; 'I' for Inactive)
REMARK    1  A    between atoms: C_1  and  C_2
REMARK    2  A    between atoms: C_3  and  C_4
REMARK    3  A    between atoms: C_4  and  N_5
REMARK    4  A    between atoms: C_8  and  C_12
REMARK    5  A    between atoms: C_8  and  C_20
REMARK    6  A    between atoms: C_12  and  C_13
REMARK    7  A    between atoms: N_23  and  C_26
REMARK    8  A    between atoms: C_26  and  C_27
REMARK                            x       y       z     vdW  Elec       q    Type
REMARK                         _______ _______ _______ _____ _____    ______ ____
ROOT
ATOM      1  N   UNL     1      -1.960   3.879   3.404  0.00  0.00    -0.212 N 
ATOM      2  C   UNL     1      -1.002   4.646   3.961  0.00  0.00    +0.248 C 
ATOM      3  O   UNL     1       0.000   4.268   4.529  0.00  0.00    -0.273 OA
ATOM      4  C   UNL     1      -1.438   6.079   3.729  0.00  0.00    +0.119 C 
ATOM      5  N   UNL     1      -2.715   5.940   3.007  0.00  0.00    -0.284 N 
ATOM      6  C   UNL     1      -2.934   4.620   2.864  0.00  0.00    +0.310 C 
ATOM      7  O   UNL     1      -3.909   4.154   2.308  0.00  0.00    -0.252 OA
ATOM      8  H   UNL     1      -3.275   6.836   2.703  0.00  0.00    +0.151 HD
ENDROOT
BRANCH   4   9
ATOM      9  C   UNL     1      -1.651   6.795   5.064  0.00  0.00    +0.018 C 
ATOM     10  C   UNL     1      -0.298   7.015   5.748  0.00  0.00    -0.013 C 
ATOM     11  C   UNL     1      -0.522   7.677   7.109  0.00  0.00    -0.078 C 
ATOM     12  N   UNL     1      -1.376   6.817   7.939  0.00  0.00    +0.383 N 
ATOM     13  C   UNL     1      -2.697   6.631   7.325  0.00  0.00    -0.078 C 
ATOM     14  C   UNL     1      -2.538   5.937   5.970  0.00  0.00    -0.013 C 
ATOM     15  H   UNL     1      -0.895   5.830   8.005  0.00  0.00    -0.081 HD
BRANCH  12  16
ATOM     16  C   UNL     1      -1.500   7.354   9.300  0.00  0.00    -0.036 C 
BRANCH  16  17
ATOM     17  C   UNL     1      -0.139   7.761   9.805  0.00  0.00    -0.026 A 
ATOM     18  C   UNL     1       0.469   8.950   9.684  0.00  0.00    +0.017 A 
ATOM     19  C   UNL     1       1.795   9.134  10.254  0.00  0.00    -0.011 A 
ATOM     20  C   UNL     1       2.610  10.291  10.247  0.00  0.00    +0.009 A 
ATOM     21  C   UNL     1       3.838  10.279  10.830  0.00  0.00    +0.001 A 
ATOM     22  C   UNL     1       4.337   9.141  11.450  0.00  0.00    +0.001 A 
ATOM     23  C   UNL     1       3.573   7.991  11.477  0.00  0.00    +0.015 A 
ATOM     24  C   UNL     1       2.326   7.990  10.890  0.00  0.00    +0.020 A 
ATOM     25  S   UNL     1       1.048   6.775  10.697  0.00  0.00    -0.095 S 
ENDBRANCH  16  17
ENDBRANCH  12  16
ENDBRANCH   4   9
BRANCH   1  26
ATOM     26  C   UNL     1      -1.940   2.414   3.396  0.00  0.00    +0.206 C 
BRANCH  26  29
ATOM     27  C   UNL     1      -0.013   1.086   0.008  0.00  0.00    +0.106 C 
ATOM     28  C   UNL     1      -0.702   1.560   1.219  0.00  0.00    -0.104 C 
ATOM     29  C   UNL     1      -1.251   1.939   2.185  0.00  0.00    -0.083 C 
ENDBRANCH  26  29
ENDBRANCH   1  26
BRANCH   4  30
ATOM     30  C   UNL     1      -0.415   6.829   2.874  0.00  0.00    +0.070 C 
BRANCH  30  31
ATOM     31  C   UNL     1      -0.276   6.143   1.539  0.00  0.00    -0.042 A 
ATOM     32  C   UNL     1      -1.087   6.516   0.483  0.00  0.00    +0.004 A 
ATOM     33  C   UNL     1      -0.961   5.888  -0.742  0.00  0.00    +0.003 A 
ATOM     34  C   UNL     1      -0.024   4.887  -0.912  0.00  0.00    +0.038 A 
ATOM     35  C   UNL     1       0.788   4.512   0.144  0.00  0.00    +0.124 A 
ATOM     36  C   UNL     1       0.665   5.146   1.370  0.00  0.00    +0.042 A 
ATOM     37  F   UNL     1       1.705   3.534  -0.021  0.00  0.00    -0.205 F 
ENDBRANCH  30  31
ENDBRANCH   4  30
TORSDOF 7
