REMARK  Name = ZINC63859766
REMARK  6 active torsions:
REMARK  status: ('A' for Active; 'I' for Inactive)
REMARK    1  A    between atoms: N_9  and  C_10
REMARK    2  A    between atoms: C_10  and  C_11
REMARK    3  A    between atoms: C_14  and  C_16
REMARK    4  A    between atoms: N_23  and  C_24
REMARK    5  A    between atoms: C_24  and  C_25
REMARK    6  A    between atoms: C_25  and  O_26
REMARK                            x       y       z     vdW  Elec       q    Type
REMARK                         _______ _______ _______ _____ _____    ______ ____
ROOT
ATOM      1  C   UNL     1      -0.017   1.373   0.010  0.00  0.00    +0.002 A 
ATOM      2  C   UNL     1       1.169   2.093   0.002  0.00  0.00    +0.002 A 
ATOM      3  C   UNL     1       2.384   1.439  -0.013  0.00  0.00    +0.028 A 
ATOM      4  C   UNL     1       2.421   0.053  -0.021  0.00  0.00    +0.068 A 
ATOM      5  C   UNL     1       1.224  -0.681  -0.013  0.00  0.00    +0.065 A 
ATOM      6  C   UNL     1       0.002  -0.004   0.002  0.00  0.00    +0.028 A 
ATOM      7  N   UNL     1       1.562  -1.998  -0.024  0.00  0.00    -0.327 N 
ATOM      8  C   UNL     1       2.866  -2.117  -0.037  0.00  0.00    +0.175 A 
ATOM      9  N   UNL     1       3.445  -0.880  -0.036  0.00  0.00    -0.307 N 
ATOM     10  N   UNL     1       3.552  -3.313  -0.050  0.00  0.00    -0.314 N 
ATOM     11  H   UNL     1       4.522  -3.316  -0.059  0.00  0.00    +0.149 HD
ATOM     12  H   UNL     1       0.933  -2.736  -0.021  0.00  0.00    +0.169 HD
ENDROOT
BRANCH   9  13
ATOM     13  C   UNL     1       4.882  -0.594  -0.049  0.00  0.00    +0.183 C 
BRANCH  13  14
ATOM     14  C   UNL     1       5.388  -0.502   1.368  0.00  0.00    +0.100 A 
ATOM     15  C   UNL     1       6.407  -1.208   1.892  0.00  0.00    +0.222 A 
ATOM     16  O   UNL     1       6.536  -0.830   3.179  0.00  0.00    -0.443 OA
ATOM     17  C   UNL     1       5.597   0.100   3.427  0.00  0.00    +0.227 A 
ATOM     18  N   UNL     1       4.908   0.301   2.329  0.00  0.00    -0.212 NA
BRANCH  17  19
ATOM     19  C   UNL     1       5.382   0.786   4.719  0.00  0.00    +0.037 A 
ATOM     20  C   UNL     1       4.364   1.732   4.849  0.00  0.00    +0.014 A 
ATOM     21  C   UNL     1       4.168   2.368   6.057  0.00  0.00    +0.016 A 
ATOM     22  C   UNL     1       4.978   2.070   7.139  0.00  0.00    +0.018 A 
ATOM     23  C   UNL     1       5.990   1.133   7.016  0.00  0.00    +0.016 A 
ATOM     24  C   UNL     1       6.191   0.485   5.815  0.00  0.00    +0.014 A 
ATOM     25 BR   UNL     1       4.703   2.948   8.791  0.00  0.00    -0.050 Br
ENDBRANCH  17  19
ENDBRANCH  13  14
ENDBRANCH   9  13
BRANCH  10  26
ATOM     26  C   UNL     1       2.816  -4.580  -0.050  0.00  0.00    +0.132 C 
BRANCH  26  27
ATOM     27  C   UNL     1       3.807  -5.745  -0.066  0.00  0.00    +0.174 C 
BRANCH  27  28
ATOM     28  O   UNL     1       4.561  -5.746   1.149  0.00  0.00    -0.393 OA
ATOM     29  H   UNL     1       5.210  -6.460   1.208  0.00  0.00    +0.209 HD
ENDBRANCH  27  28
ENDBRANCH  26  27
ENDBRANCH  10  26
TORSDOF 6
