REMARK  Name = ZINC13499513
REMARK  14 active torsions:
REMARK  status: ('A' for Active; 'I' for Inactive)
REMARK    1  A    between atoms: C_1  and  C_2
REMARK    2  A    between atoms: C_2  and  C_3
REMARK    3  A    between atoms: C_3  and  C_4
REMARK    4  A    between atoms: C_4  and  C_6
REMARK    5  A    between atoms: C_4  and  N_72
REMARK    6  A    between atoms: N_10  and  C_11
REMARK    7  A    between atoms: C_17  and  C_18
REMARK    8  A    between atoms: C_17  and  N_72
REMARK    9  A    between atoms: C_18  and  C_19
REMARK   10  A    between atoms: C_19  and  O_20
REMARK   11  A    between atoms: C_21  and  C_22
REMARK   12  A    between atoms: C_21  and  N_72
REMARK   13  A    between atoms: C_26  and  C_35
REMARK   14  A    between atoms: C_27  and  C_34
REMARK                            x       y       z     vdW  Elec       q    Type
REMARK                         _______ _______ _______ _____ _____    ______ ____
ROOT
ATOM      1  N   UNL     1      -5.678   3.998  -1.524  0.00  0.00    +0.389 N 
ATOM      2  H   UNL     1      -4.946   4.320  -2.168  0.00  0.00    -0.080 HD
ENDROOT
BRANCH   1   3
ATOM      3  C   UNL     1      -6.840   4.905  -1.627  0.00  0.00    +0.003 C 
BRANCH   3   4
ATOM      4  C   UNL     1      -7.846   4.598  -0.547  0.00  0.00    +0.138 A 
ATOM      5  N   UNL     1      -7.613   4.518   0.740  0.00  0.00    -0.115 NA
ATOM      6  N   UNL     1      -8.725   4.239   1.329  0.00  0.00    -0.023 NA
ATOM      7  N   UNL     1      -9.661   4.139   0.451  0.00  0.00    -0.044 NA
ATOM      8  N   UNL     1      -9.160   4.359  -0.718  0.00  0.00    -0.228 N 
BRANCH   8   9
ATOM      9  C   UNL     1      -9.884   4.347  -1.991  0.00  0.00    +0.111 C 
ATOM     10  C   UNL     1     -10.987   5.408  -1.961  0.00  0.00    +0.027 C 
ATOM     11  C   UNL     1     -11.743   5.396  -3.290  0.00  0.00    +0.002 C 
ATOM     12  C   UNL     1     -12.369   4.016  -3.509  0.00  0.00    +0.000 C 
ATOM     13  C   UNL     1     -11.267   2.956  -3.539  0.00  0.00    +0.002 C 
ATOM     14  C   UNL     1     -10.510   2.968  -2.209  0.00  0.00    +0.027 C 
ENDBRANCH   8   9
ENDBRANCH   3   4
BRANCH   3  15
ATOM     15  C   UNL     1      -6.355   6.348  -1.476  0.00  0.00    -0.008 C 
BRANCH  15  17
ATOM     16  C   UNL     1      -4.852   8.100  -2.431  0.00  0.00    +0.004 C 
ATOM     17  C   UNL     1      -5.428   6.699  -2.642  0.00  0.00    -0.005 C 
ENDBRANCH  15  17
ENDBRANCH   3  15
ENDBRANCH   1   3
BRANCH   1  18
ATOM     18  C   UNL     1      -6.075   2.624  -1.898  0.00  0.00    -0.075 C 
BRANCH  18  19
ATOM     19  C   UNL     1      -6.496   2.614  -3.369  0.00  0.00    +0.009 C 
BRANCH  19  20
ATOM     20  C   UNL     1      -6.776   1.175  -3.809  0.00  0.00    +0.154 C 
BRANCH  20  21
ATOM     21  O   UNL     1      -7.169   1.165  -5.183  0.00  0.00    -0.395 OA
ATOM     22  H   UNL     1      -7.363   0.284  -5.531  0.00  0.00    +0.209 HD
ENDBRANCH  20  21
ENDBRANCH  19  20
ENDBRANCH  18  19
ENDBRANCH   1  18
BRANCH   1  23
ATOM     23  C   UNL     1      -5.146   4.012  -0.146  0.00  0.00    -0.037 C 
BRANCH  23  24
ATOM     24  C   UNL     1      -3.729   3.501  -0.170  0.00  0.00    +0.001 A 
ATOM     25  C   UNL     1      -2.696   4.376  -0.245  0.00  0.00    +0.017 A 
ATOM     26  C   UNL     1      -1.331   3.846  -0.273  0.00  0.00    -0.001 A 
ATOM     27  C   UNL     1      -0.226   4.699  -0.367  0.00  0.00    +0.013 A 
ATOM     28  C   UNL     1       1.035   4.173  -0.391  0.00  0.00    -0.047 A 
ATOM     29  C   UNL     1       1.229   2.800  -0.322  0.00  0.00    -0.046 A 
ATOM     30  C   UNL     1       0.155   1.942  -0.229  0.00  0.00    +0.030 A 
ATOM     31  C   UNL     1      -1.138   2.454  -0.208  0.00  0.00    +0.049 A 
ATOM     32  N   UNL     1      -2.231   1.617  -0.121  0.00  0.00    -0.322 N 
ATOM     33  H   UNL     1      -2.096   0.658  -0.073  0.00  0.00    +0.169 HD
ATOM     34  C   UNL     1      -3.481   2.113  -0.103  0.00  0.00    +0.251 A 
ATOM     35  O   UNL     1      -4.423   1.344  -0.026  0.00  0.00    -0.268 OA
ATOM     36  C   UNL     1       2.629   2.243  -0.350  0.00  0.00    +0.044 C 
ATOM     37  C   UNL     1       2.225   5.092  -0.493  0.00  0.00    +0.044 C 
ENDBRANCH  23  24
ENDBRANCH   1  23
TORSDOF 11
