REMARK  Name = ZINC36005436
REMARK  13 active torsions:
REMARK  status: ('A' for Active; 'I' for Inactive)
REMARK    1  A    between atoms: C_1  and  C_2
REMARK    2  A    between atoms: C_2  and  N_3
REMARK    3  A    between atoms: N_10  and  C_13
REMARK    4  A    between atoms: C_13  and  C_14
REMARK    5  A    between atoms: C_15  and  C_32
REMARK    6  A    between atoms: C_16  and  C_23
REMARK    7  A    between atoms: N_21  and  C_22
REMARK    8  A    between atoms: C_26  and  C_29
REMARK    9  A    between atoms: C_29  and  C_30
REMARK   10  A    between atoms: C_29  and  C_31
REMARK   11  A    between atoms: C_32  and  O_34
REMARK   12  A    between atoms: O_34  and  C_35
REMARK   13  A    between atoms: C_35  and  C_36
REMARK                            x       y       z     vdW  Elec       q    Type
REMARK                         _______ _______ _______ _____ _____    ______ ____
ROOT
ATOM      1  C   UNL     1       4.898  -5.843  -2.208  0.00  0.00    +0.010 C 
ATOM      2  C   UNL     1       5.826  -6.275  -3.089  0.00  0.00    +0.076 C 
ATOM      3  C   UNL     1       6.033  -7.770  -3.218  0.00  0.00    +0.143 C 
ATOM      4  N   UNL     1       5.200  -8.635  -2.367  0.00  0.00    -0.288 N 
ATOM      5  C   UNL     1       4.314  -8.054  -1.534  0.00  0.00    +0.307 C 
ATOM      6  O   UNL     1       3.621  -8.760  -0.827  0.00  0.00    -0.252 OA
ATOM      7  N   UNL     1       4.176  -6.724  -1.456  0.00  0.00    -0.264 N 
ATOM      8  C   UNL     1       3.190  -6.186  -0.516  0.00  0.00    +0.139 C 
ATOM      9  H   UNL     1       5.286  -9.601  -2.405  0.00  0.00    +0.151 HD
ENDROOT
BRANCH   3  10
ATOM     10  C   UNL     1       7.478  -8.068  -2.909  0.00  0.00    -0.022 A 
ATOM     11  C   UNL     1       7.902  -8.143  -1.595  0.00  0.00    +0.006 A 
ATOM     12  C   UNL     1       9.227  -8.416  -1.311  0.00  0.00    +0.004 A 
ATOM     13  C   UNL     1      10.128  -8.613  -2.341  0.00  0.00    -0.045 A 
ATOM     14  C   UNL     1       9.704  -8.538  -3.654  0.00  0.00    +0.004 A 
ATOM     15  C   UNL     1       8.378  -8.270  -3.938  0.00  0.00    +0.006 A 
BRANCH  13  16
ATOM     16  C   UNL     1      11.573  -8.910  -2.031  0.00  0.00    +0.013 C 
ATOM     17  C   UNL     1      11.952 -10.270  -2.619  0.00  0.00    +0.012 C 
ATOM     18  C   UNL     1      12.459  -7.824  -2.644  0.00  0.00    +0.012 C 
ENDBRANCH  13  16
ENDBRANCH   3  10
BRANCH   2  19
ATOM     19  C   UNL     1       6.579  -5.362  -3.865  0.00  0.00    +0.339 C 
ATOM     20  O   UNL     1       6.429  -4.165  -3.710  0.00  0.00    -0.245 OA
BRANCH  19  21
ATOM     21  O   UNL     1       7.462  -5.820  -4.777  0.00  0.00    -0.462 OA
BRANCH  21  22
ATOM     22  C   UNL     1       8.188  -4.842  -5.525  0.00  0.00    +0.229 C 
ATOM     23  C   UNL     1       9.133  -5.545  -6.501  0.00  0.00    +0.048 C 
ENDBRANCH  21  22
ENDBRANCH  19  21
ENDBRANCH   2  19
BRANCH   1  24
ATOM     24  C   UNL     1       4.660  -4.363  -2.048  0.00  0.00    -0.026 C 
BRANCH  24  32
ATOM     25  N   UNL     1      -0.617  -3.610  -2.910  0.00  0.00    -0.300 N 
ATOM     26  C   UNL     1       0.050  -2.594  -3.493  0.00  0.00    +0.302 C 
ATOM     27  O   UNL     1      -0.396  -1.464  -3.440  0.00  0.00    -0.253 OA
ATOM     28  N   UNL     1       1.212  -2.831  -4.135  0.00  0.00    -0.287 N 
ATOM     29  C   UNL     1       1.972  -1.687  -4.677  0.00  0.00    +0.107 C 
ATOM     30  C   UNL     1       3.481  -1.855  -4.424  0.00  0.00    +0.000 C 
ATOM     31  C   UNL     1       3.699  -2.431  -3.043  0.00  0.00    -0.077 C 
ATOM     32  N   UNL     1       3.797  -3.886  -3.136  0.00  0.00    +0.384 N 
ATOM     33  C   UNL     1       2.564  -4.571  -3.061  0.00  0.00    -0.059 C 
ATOM     34  C   UNL     1       1.673  -4.198  -4.262  0.00  0.00    +0.091 C 
ATOM     35  H   UNL     1      -0.300  -4.521  -3.014  0.00  0.00    +0.150 HD
ATOM     36  H   UNL     1       4.238  -4.119  -4.013  0.00  0.00    -0.081 HD
BRANCH  25  38
ATOM     37  C   UNL     1      -2.379  -4.653  -1.573  0.00  0.00    +0.024 C 
ATOM     38  C   UNL     1      -1.820  -3.338  -2.120  0.00  0.00    +0.102 C 
ENDBRANCH  25  38
ENDBRANCH  24  32
ENDBRANCH   1  24
TORSDOF 8
