REMARK  Name = ZINC13126566
REMARK  10 active torsions:
REMARK  status: ('A' for Active; 'I' for Inactive)
REMARK    1  A    between atoms: C_1  and  C_2
REMARK    2  A    between atoms: C_13  and  C_15
REMARK    3  A    between atoms: C_15  and  C_16
REMARK    4  A    between atoms: N_18  and  C_19
REMARK    5  A    between atoms: C_19  and  C_20
REMARK    6  A    between atoms: C_20  and  C_22
REMARK    7  A    between atoms: C_20  and  C_31
REMARK    8  A    between atoms: C_25  and  N_28
REMARK    9  A    between atoms: N_28  and  C_29
REMARK   10  A    between atoms: N_28  and  C_30
REMARK                            x       y       z     vdW  Elec       q    Type
REMARK                         _______ _______ _______ _____ _____    ______ ____
ROOT
ATOM      1  C   UNL     1       1.907  -3.240  -0.032  0.00  0.00    +0.068 C 
ENDROOT
BRANCH   1   2
ATOM      2  C   UNL     1       0.908  -2.113  -0.023  0.00  0.00    -0.013 A 
ATOM      3  C   UNL     1      -0.429  -2.231  -0.020  0.00  0.00    +0.088 A 
ATOM      4  N   UNL     1      -1.008  -0.991  -0.013  0.00  0.00    -0.360 N 
ATOM      5  H   UNL     1      -1.962  -0.821  -0.009  0.00  0.00    +0.165 HD
ATOM      6  C   UNL     1      -0.031  -0.019  -0.011  0.00  0.00    +0.047 A 
ATOM      7  C   UNL     1       1.211  -0.679  -0.017  0.00  0.00    +0.003 A 
ATOM      8  C   UNL     1       2.394   0.062  -0.017  0.00  0.00    +0.010 A 
ATOM      9  C   UNL     1       2.338   1.427  -0.011  0.00  0.00    +0.001 A 
ATOM     10  C   UNL     1       1.115   2.083  -0.004  0.00  0.00    +0.002 A 
ATOM     11  C   UNL     1      -0.064   1.371  -0.004  0.00  0.00    +0.026 A 
ENDBRANCH   1   2
BRANCH   1  12
ATOM     12  C   UNL     1       1.712  -4.094   1.195  0.00  0.00    -0.038 A 
ATOM     13  C   UNL     1       0.498  -4.718   1.416  0.00  0.00    +0.006 A 
ATOM     14  C   UNL     1       0.318  -5.505   2.536  0.00  0.00    +0.023 A 
ATOM     15  C   UNL     1       1.355  -5.660   3.447  0.00  0.00    +0.029 A 
ATOM     16  C   UNL     1       2.571  -5.028   3.225  0.00  0.00    +0.023 A 
ATOM     17  C   UNL     1       2.747  -4.246   2.100  0.00  0.00    +0.006 A 
BRANCH  15  18
ATOM     18  N   UNL     1       1.174  -6.451   4.585  0.00  0.00    -0.336 N 
ATOM     19  C   UNL     1       2.304  -6.716   5.479  0.00  0.00    +0.129 C 
ATOM     20  C   UNL     1      -0.144  -7.015   4.883  0.00  0.00    +0.129 C 
ENDBRANCH  15  18
ENDBRANCH   1  12
BRANCH   1  21
ATOM     21  C   UNL     1       1.702  -4.094  -1.285  0.00  0.00    +0.117 C 
BRANCH  21  24
ATOM     22  C   UNL     1       1.895  -3.845  -3.701  0.00  0.00    +0.215 C 
ATOM     23  O   UNL     1       1.542  -4.999  -3.819  0.00  0.00    -0.276 OA
ATOM     24  N   UNL     1       2.007  -3.296  -2.475  0.00  0.00    -0.314 N 
ATOM     25  H   UNL     1       2.290  -2.373  -2.381  0.00  0.00    +0.149 HD
BRANCH  22  26
ATOM     26  C   UNL     1       2.210  -3.025  -4.925  0.00  0.00    +0.123 C 
BRANCH  26  39
ATOM     27  C   UNL     1      -1.295  -5.827  -6.121  0.00  0.00    +0.109 C 
ATOM     28  C   UNL     1       0.163  -5.470  -5.989  0.00  0.00    +0.217 C 
ATOM     29  O   UNL     1       0.958  -6.298  -5.596  0.00  0.00    -0.276 OA
ATOM     30  N   UNL     1       0.585  -4.229  -6.306  0.00  0.00    -0.270 N 
ATOM     31  C   UNL     1      -0.322  -3.277  -6.755  0.00  0.00    +0.079 C 
ATOM     32  C   UNL     1       0.075  -2.353  -7.638  0.00  0.00    +0.023 C 
ATOM     33  C   UNL     1       1.478  -2.348  -8.095  0.00  0.00    -0.019 A 
ATOM     34  C   UNL     1       1.869  -1.588  -9.197  0.00  0.00    +0.008 A 
ATOM     35  C   UNL     1       3.186  -1.609  -9.609  0.00  0.00    +0.001 A 
ATOM     36  C   UNL     1       4.116  -2.374  -8.928  0.00  0.00    +0.000 A 
ATOM     37  C   UNL     1       3.739  -3.115  -7.822  0.00  0.00    +0.006 A 
ATOM     38  C   UNL     1       2.431  -3.098  -7.396  0.00  0.00    -0.019 A 
ATOM     39  C   UNL     1       2.004  -3.878  -6.178  0.00  0.00    +0.120 C 
ENDBRANCH  26  39
ENDBRANCH  22  26
ENDBRANCH  21  24
ENDBRANCH   1  21
TORSDOF 7
