REMARK  Name = ZINC63281685
REMARK  7 active torsions:
REMARK  status: ('A' for Active; 'I' for Inactive)
REMARK    1  A    between atoms: C_1  and  O_2
REMARK    2  A    between atoms: O_2  and  C_3
REMARK    3  A    between atoms: C_7  and  C_9
REMARK    4  A    between atoms: C_15  and  C_16
REMARK    5  A    between atoms: N_18  and  C_19
REMARK    6  A    between atoms: C_19  and  C_20
REMARK    7  A    between atoms: C_20  and  C_21
REMARK                            x       y       z     vdW  Elec       q    Type
REMARK                         _______ _______ _______ _____ _____    ______ ____
ROOT
ATOM      1  C   UNL     1       2.255  -4.582   6.278  0.00  0.00    +0.238 C 
ATOM      2  O   UNL     1       1.224  -4.010   5.973  0.00  0.00    -0.271 OA
ATOM      3  N   UNL     1       2.688  -4.556   7.554  0.00  0.00    -0.311 N 
ATOM      4  H   UNL     1       3.509  -5.011   7.797  0.00  0.00    +0.149 HD
ENDROOT
BRANCH   1  10
ATOM      5  C   UNL     1       0.953  -4.710   2.310  0.00  0.00    +0.159 C 
ATOM      6  N   UNL     1       1.252  -5.020   3.720  0.00  0.00    -0.331 N 
ATOM      7  C   UNL     1       2.504  -5.404   4.044  0.00  0.00    +0.020 C 
ATOM      8  C   UNL     1       3.323  -5.996   2.903  0.00  0.00    +0.121 C 
ATOM      9  S   UNL     1       2.540  -5.124   1.470  0.00  0.00    -0.128 S 
ATOM     10  C   UNL     1       2.997  -5.275   5.293  0.00  0.00    +0.086 C 
ATOM     11  H   UNL     1       0.564  -4.948   4.400  0.00  0.00    +0.147 HD
BRANCH   5  16
ATOM     12  C   UNL     1      -0.505  -1.500   0.950  0.00  0.00    +0.120 A 
ATOM     13  C   UNL     1       0.016  -0.566   1.833  0.00  0.00    +0.045 A 
ATOM     14  C   UNL     1       0.837  -0.976   2.865  0.00  0.00    +0.004 A 
ATOM     15  C   UNL     1       1.140  -2.317   3.018  0.00  0.00    +0.006 A 
ATOM     16  C   UNL     1       0.621  -3.249   2.140  0.00  0.00    -0.014 A 
ATOM     17  C   UNL     1      -0.205  -2.845   1.109  0.00  0.00    +0.052 A 
BRANCH  12  19
ATOM     18  C   UNL     1      -1.580   0.301  -0.170  0.00  0.00    +0.277 C 
ATOM     19  O   UNL     1      -1.314  -1.099  -0.066  0.00  0.00    -0.495 OA
ENDBRANCH  12  19
ENDBRANCH   5  16
ENDBRANCH   1  10
BRANCH   3  20
ATOM     20  C   UNL     1       1.919  -3.839   8.574  0.00  0.00    +0.109 C 
BRANCH  20  21
ATOM     21  C   UNL     1       2.625  -3.964   9.926  0.00  0.00    +0.052 C 
BRANCH  21  22
ATOM     22  C   UNL     1       1.834  -3.226  10.976  0.00  0.00    -0.040 C 
ATOM     23  C   UNL     1       0.916  -3.750  11.819  0.00  0.00    +0.002 A 
ATOM     24  C   UNL     1       0.398  -5.111  12.005  0.00  0.00    +0.048 A 
ATOM     25  C   UNL     1      -0.542  -5.332  12.953  0.00  0.00    +0.124 A 
ATOM     26  C   UNL     1      -1.032  -4.294  13.762  0.00  0.00    +0.040 A 
ATOM     27  C   UNL     1      -0.605  -3.019  13.649  0.00  0.00    +0.029 A 
ATOM     28  C   UNL     1       0.382  -2.674  12.684  0.00  0.00    +0.043 A 
ATOM     29  N   UNL     1       0.949  -1.529  12.387  0.00  0.00    -0.380 N 
ATOM     30  C   UNL     1       1.911  -1.752  11.303  0.00  0.00    +0.144 C 
ATOM     31  F   UNL     1      -1.021  -6.583  13.126  0.00  0.00    -0.205 F 
ATOM     32  H   UNL     1       0.764  -0.678  12.815  0.00  0.00    +0.160 HD
ENDBRANCH  21  22
ENDBRANCH  20  21
ENDBRANCH   3  20
TORSDOF 6
