REMARK  Name = ZINC16115042
REMARK  8 active torsions:
REMARK  status: ('A' for Active; 'I' for Inactive)
REMARK    1  A    between atoms: C_1  and  C_2
REMARK    2  A    between atoms: C_4  and  C_15
REMARK    3  A    between atoms: C_5  and  C_14
REMARK    4  A    between atoms: N_6  and  C_7
REMARK    5  A    between atoms: N_16  and  N_17
REMARK    6  A    between atoms: C_22  and  C_25
REMARK    7  A    between atoms: C_25  and  C_26
REMARK    8  A    between atoms: N_28  and  C_29
REMARK                            x       y       z     vdW  Elec       q    Type
REMARK                         _______ _______ _______ _____ _____    ______ ____
ROOT
ATOM      1  N   UNL     1       0.060  -5.720  -1.715  0.00  0.00    -0.127 NA
ATOM      2  C   UNL     1       0.083  -6.904  -1.143  0.00  0.00    +0.183 C 
ATOM      3  N   UNL     1       0.094  -7.199   0.205  0.00  0.00    -0.263 N 
ATOM      4  C   UNL     1       0.118  -8.441   0.658  0.00  0.00    +0.233 C 
ATOM      5  O   UNL     1       0.127  -8.694   1.844  0.00  0.00    -0.274 OA
ATOM      6  C   UNL     1       0.131  -9.532  -0.400  0.00  0.00    +0.149 C 
ATOM      7  S   UNL     1       0.099  -8.508  -1.929  0.00  0.00    -0.075 S 
ATOM      8  H   UNL     1       0.085  -6.469   0.843  0.00  0.00    +0.157 HD
ENDROOT
BRANCH   1  10
ATOM      9  C   UNL     1       0.029  -3.386  -1.494  0.00  0.00    +0.144 C 
ATOM     10  N   UNL     1       0.051  -4.561  -0.926  0.00  0.00    -0.155 NA
BRANCH   9  14
ATOM     11  C   UNL     1      -0.030   1.506  -0.044  0.00  0.00    +0.064 C 
ATOM     12  C   UNL     1      -0.008  -0.001  -0.045  0.00  0.00    +0.022 A 
ATOM     13  C   UNL     1      -0.007  -0.782  -1.140  0.00  0.00    +0.032 A 
ATOM     14  C   UNL     1       0.019  -2.170  -0.666  0.00  0.00    +0.016 A 
ATOM     15  C   UNL     1       0.031  -2.107   0.700  0.00  0.00    +0.030 A 
ATOM     16  N   UNL     1       0.021  -0.795   1.065  0.00  0.00    -0.317 N 
ATOM     17  C   UNL     1       0.057  -3.285   1.639  0.00  0.00    +0.064 C 
BRANCH  16  18
ATOM     18  C   UNL     1       0.034  -0.329   2.387  0.00  0.00    +0.048 A 
ATOM     19  C   UNL     1       1.142  -0.555   3.193  0.00  0.00    +0.026 A 
ATOM     20  C   UNL     1       1.152  -0.094   4.495  0.00  0.00    +0.003 A 
ATOM     21  C   UNL     1       0.061   0.591   4.997  0.00  0.00    +0.020 A 
ATOM     22  C   UNL     1      -1.044   0.818   4.196  0.00  0.00    +0.043 A 
ATOM     23  C   UNL     1      -1.058   0.364   2.890  0.00  0.00    +0.046 A 
ATOM     24 CL   UNL     1      -2.412   1.679   4.830  0.00  0.00    -0.083 Cl
ENDBRANCH  16  18
ENDBRANCH   9  14
ENDBRANCH   1  10
BRANCH   6  25
ATOM     25  C   UNL     1       1.407 -10.372  -0.315  0.00  0.00    +0.120 C 
BRANCH  25  26
ATOM     26  C   UNL     1       1.324 -11.513  -1.296  0.00  0.00    +0.219 C 
ATOM     27  O   UNL     1       0.341 -11.642  -1.995  0.00  0.00    -0.275 OA
ATOM     28  N   UNL     1       2.342 -12.390  -1.397  0.00  0.00    -0.285 N 
ATOM     29  H   UNL     1       3.156 -12.249  -0.888  0.00  0.00    +0.155 HD
BRANCH  28  30
ATOM     30  C   UNL     1       2.226 -13.503  -2.237  0.00  0.00    +0.033 A 
ATOM     31  C   UNL     1       2.804 -14.712  -1.873  0.00  0.00    +0.023 A 
ATOM     32  C   UNL     1       2.688 -15.809  -2.704  0.00  0.00    +0.002 A 
ATOM     33  C   UNL     1       1.996 -15.705  -3.897  0.00  0.00    +0.000 A 
ATOM     34  C   UNL     1       1.419 -14.502  -4.262  0.00  0.00    +0.002 A 
ATOM     35  C   UNL     1       1.527 -13.403  -3.433  0.00  0.00    +0.023 A 
ENDBRANCH  28  30
ENDBRANCH  25  26
ENDBRANCH   6  25
TORSDOF 6
