REMARK  Name = ZINC32937218
REMARK  7 active torsions:
REMARK  status: ('A' for Active; 'I' for Inactive)
REMARK    1  A    between atoms: C_3  and  C_6
REMARK    2  A    between atoms: C_6  and  C_7
REMARK    3  A    between atoms: C_7  and  N_8
REMARK    4  A    between atoms: C_12  and  C_14
REMARK    5  A    between atoms: C_14  and  O_15
REMARK    6  A    between atoms: O_15  and  C_16
REMARK    7  A    between atoms: C_16  and  C_18
REMARK                            x       y       z     vdW  Elec       q    Type
REMARK                         _______ _______ _______ _____ _____    ______ ____
ROOT
ATOM      1  C   UNL     1       6.857   3.756  -0.041  0.00  0.00    +0.328 C 
ENDROOT
BRANCH   1   6
ATOM      2  N   UNL     1      10.516   6.874  -0.057  0.00  0.00    -0.299 N 
ATOM      3  C   UNL     1       9.187   6.652  -0.046  0.00  0.00    +0.306 C 
ATOM      4  O   UNL     1       8.415   7.590  -0.034  0.00  0.00    -0.252 OA
ATOM      5  N   UNL     1       8.715   5.390  -0.049  0.00  0.00    -0.237 N 
ATOM      6  C   UNL     1       7.385   5.168  -0.038  0.00  0.00    +0.258 C 
ATOM      7  O   UNL     1       6.614   6.104  -0.026  0.00  0.00    -0.272 OA
ATOM      8  H   UNL     1      11.216   6.025  -0.067  0.00  0.00    +0.150 HD
ATOM      9  H   UNL     1       9.414   4.541  -0.059  0.00  0.00    +0.159 HD
BRANCH   2  10
ATOM     10  C   UNL     1      11.030   8.246  -0.054  0.00  0.00    +0.111 C 
BRANCH  10  11
ATOM     11  C   UNL     1      12.560   8.218  -0.068  0.00  0.00    +0.061 C 
BRANCH  11  14
ATOM     12  C   UNL     1      13.871  11.699   0.751  0.00  0.00    +0.008 A 
ATOM     13  C   UNL     1      13.392  10.425   0.989  0.00  0.00    +0.011 A 
ATOM     14  C   UNL     1      13.088   9.629  -0.065  0.00  0.00    -0.009 A 
ATOM     15  S   UNL     1      13.469  10.689  -1.450  0.00  0.00    -0.102 S 
ATOM     16  C   UNL     1      14.014  12.119  -0.530  0.00  0.00    +0.045 A 
ENDBRANCH  11  14
ENDBRANCH  10  11
ENDBRANCH   2  10
ENDBRANCH   1   6
BRANCH   1  17
ATOM     17  O   UNL     1       5.405   3.783  -0.027  0.00  0.00    -0.451 OA
BRANCH  17  18
ATOM     18  C   UNL     1       4.771   2.593  -0.028  0.00  0.00    +0.358 C 
ATOM     19  O   UNL     1       5.414   1.561  -0.039  0.00  0.00    -0.243 OA
BRANCH  18  20
ATOM     20  C   UNL     1       3.305   2.543  -0.015  0.00  0.00    +0.144 A 
ATOM     21  C   UNL     1       2.553   1.408  -0.014  0.00  0.00    +0.080 A 
ATOM     22  C   UNL     1       1.190   1.795   0.000  0.00  0.00    +0.020 A 
ATOM     23  C   UNL     1      -0.013   1.076   0.008  0.00  0.00    +0.026 A 
ATOM     24  C   UNL     1      -1.203   1.744   0.017  0.00  0.00    +0.019 A 
ATOM     25  C   UNL     1      -1.234   3.134   0.029  0.00  0.00    +0.017 A 
ATOM     26  C   UNL     1      -0.066   3.862   0.023  0.00  0.00    +0.027 A 
ATOM     27  C   UNL     1       1.161   3.203   0.008  0.00  0.00    +0.049 A 
ATOM     28  N   UNL     1       2.464   3.642  -0.001  0.00  0.00    -0.348 N 
ATOM     29  H   UNL     1       2.886   4.658   0.000  0.00  0.00    +0.166 HD
ATOM     30 BR   UNL     1      -2.824   0.770   0.019  0.00  0.00    -0.050 Br
ATOM     31 CL   UNL     1       3.156  -0.220  -0.029  0.00  0.00    -0.080 Cl
ENDBRANCH  18  20
ENDBRANCH  17  18
ENDBRANCH   1  17
TORSDOF 7
