REMARK  Name = ZINC08910797
REMARK  6 active torsions:
REMARK  status: ('A' for Active; 'I' for Inactive)
REMARK    1  A    between atoms: C_6  and  C_7
REMARK    2  A    between atoms: C_7  and  S_8
REMARK    3  A    between atoms: S_8  and  C_9
REMARK    4  A    between atoms: C_14  and  N_18
REMARK    5  A    between atoms: C_15  and  N_17
REMARK    6  A    between atoms: C_19  and  C_21
REMARK                            x       y       z     vdW  Elec       q    Type
REMARK                         _______ _______ _______ _____ _____    ______ ____
ROOT
ATOM      1  C   UNL     1      -1.726  -0.349   0.026  0.00  0.00    +0.171 A 
ATOM      2  N   UNL     1      -2.163  -1.639   0.008  0.00  0.00    -0.300 N 
ATOM      3  H   UNL     1      -1.522  -2.367  -0.011  0.00  0.00    +0.171 HD
ATOM      4  C   UNL     1      -3.486  -1.907   0.022  0.00  0.00    +0.275 A 
ATOM      5  O   UNL     1      -3.886  -3.061   0.010  0.00  0.00    -0.266 OA
ATOM      6  C   UNL     1      -4.392  -0.837   0.043  0.00  0.00    +0.139 A 
ATOM      7  C   UNL     1      -3.892   0.461   0.054  0.00  0.00    +0.146 A 
ATOM      8  N   UNL     1      -2.569   0.662   0.046  0.00  0.00    -0.207 NA
ENDROOT
BRANCH   6   9
ATOM      9  N   UNL     1      -5.781  -1.072   0.052  0.00  0.00    -0.274 N 
ATOM     10  C   UNL     1      -6.355  -1.756  -0.957  0.00  0.00    +0.248 C 
ATOM     11  O   UNL     1      -5.665  -2.244  -1.831  0.00  0.00    -0.270 OA
ATOM     12  H   UNL     1      -6.324  -0.741   0.785  0.00  0.00    +0.155 HD
BRANCH  10  13
ATOM     13  C   UNL     1      -7.824  -1.913  -1.001  0.00  0.00    +0.037 A 
ATOM     14  C   UNL     1      -8.618  -1.358   0.004  0.00  0.00    +0.014 A 
ATOM     15  C   UNL     1      -9.989  -1.503  -0.046  0.00  0.00    +0.021 A 
ATOM     16  C   UNL     1     -10.576  -2.207  -1.084  0.00  0.00    +0.041 A 
ATOM     17  C   UNL     1      -9.793  -2.764  -2.081  0.00  0.00    +0.021 A 
ATOM     18  C   UNL     1      -8.422  -2.621  -2.045  0.00  0.00    +0.014 A 
ATOM     19 CL   UNL     1     -12.302  -2.391  -1.136  0.00  0.00    -0.084 Cl
ENDBRANCH  10  13
ENDBRANCH   6   9
BRANCH   7  20
ATOM     20  N   UNL     1      -4.758   1.539   0.075  0.00  0.00    -0.341 N 
ATOM     21  H   UNL     1      -4.407   2.443   0.083  0.00  0.00    +0.144 HD
ATOM     22  H   UNL     1      -5.716   1.391   0.081  0.00  0.00    +0.144 HD
ENDBRANCH   7  20
BRANCH   1  23
ATOM     23  S   UNL     1       0.006  -0.026   0.015  0.00  0.00    -0.083 S 
BRANCH  23  24
ATOM     24  C   UNL     1      -0.011   1.784   0.038  0.00  0.00    +0.112 C 
BRANCH  24  30
ATOM     25  C   UNL     1       2.062   2.527   1.227  0.00  0.00    +0.005 A 
ATOM     26  C   UNL     1       3.362   2.996   1.222  0.00  0.00    +0.015 A 
ATOM     27  C   UNL     1       4.002   3.248   0.022  0.00  0.00    +0.018 A 
ATOM     28  C   UNL     1       3.342   3.025  -1.173  0.00  0.00    +0.015 A 
ATOM     29  C   UNL     1       2.043   2.551  -1.167  0.00  0.00    +0.005 A 
ATOM     30  C   UNL     1       1.405   2.300   0.032  0.00  0.00    -0.037 A 
ATOM     31 BR   UNL     1       5.779   3.896   0.015  0.00  0.00    -0.050 Br
ENDBRANCH  24  30
ENDBRANCH  23  24
ENDBRANCH   1  23
TORSDOF 6
