REMARK  Name = ZINC09493521
REMARK  10 active torsions:
REMARK  status: ('A' for Active; 'I' for Inactive)
REMARK    1  A    between atoms: C_1  and  C_2
REMARK    2  A    between atoms: C_5  and  C_8
REMARK    3  A    between atoms: C_8  and  C_36
REMARK    4  A    between atoms: N_11  and  C_15
REMARK    5  A    between atoms: C_15  and  C_16
REMARK    6  A    between atoms: N_18  and  C_19
REMARK    7  A    between atoms: C_22  and  C_25
REMARK    8  A    between atoms: N_27  and  C_28
REMARK    9  A    between atoms: C_31  and  O_34
REMARK   10  A    between atoms: O_34  and  C_35
REMARK                            x       y       z     vdW  Elec       q    Type
REMARK                         _______ _______ _______ _____ _____    ______ ____
ROOT
ATOM      1  C   UNL     1       0.453   2.471  -4.277  0.00  0.00    +0.235 C 
ATOM      2  O   UNL     1       0.822   1.344  -4.024  0.00  0.00    -0.274 OA
ATOM      3  N   UNL     1       0.403   2.892  -5.556  0.00  0.00    -0.284 N 
ATOM      4  H   UNL     1       0.038   3.766  -5.765  0.00  0.00    +0.155 HD
ENDROOT
BRANCH   3   5
ATOM      5  C   UNL     1       0.876   2.072  -6.579  0.00  0.00    +0.033 A 
ATOM      6  C   UNL     1       1.956   1.226  -6.348  0.00  0.00    +0.024 A 
ATOM      7  C   UNL     1       2.422   0.410  -7.354  0.00  0.00    +0.015 A 
ATOM      8  C   UNL     1       1.816   0.441  -8.613  0.00  0.00    +0.037 A 
ATOM      9  C   UNL     1       0.735   1.296  -8.844  0.00  0.00    +0.015 A 
ATOM     10  C   UNL     1       0.271   2.105  -7.832  0.00  0.00    +0.024 A 
BRANCH   8  11
ATOM     11  C   UNL     1       2.318  -0.427  -9.696  0.00  0.00    +0.248 C 
ATOM     12  O   UNL     1       1.790  -0.398 -10.792  0.00  0.00    -0.270 OA
ATOM     13  N   UNL     1       3.360  -1.251  -9.472  0.00  0.00    -0.281 N 
ATOM     14  H   UNL     1       3.733  -1.329  -8.580  0.00  0.00    +0.155 HD
BRANCH  13  15
ATOM     15  C   UNL     1       3.905  -1.994 -10.526  0.00  0.00    +0.034 A 
ATOM     16  C   UNL     1       4.437  -3.254 -10.286  0.00  0.00    +0.027 A 
ATOM     17  C   UNL     1       4.969  -3.989 -11.327  0.00  0.00    +0.047 A 
ATOM     18  C   UNL     1       4.982  -3.464 -12.611  0.00  0.00    +0.120 A 
ATOM     19  C   UNL     1       4.455  -2.203 -12.851  0.00  0.00    +0.047 A 
ATOM     20  C   UNL     1       3.918  -1.470 -11.812  0.00  0.00    +0.027 A 
BRANCH  18  21
ATOM     21  O   UNL     1       5.510  -4.186 -13.635  0.00  0.00    -0.495 OA
ATOM     22  C   UNL     1       6.035  -5.476 -13.316  0.00  0.00    +0.277 C 
ENDBRANCH  18  21
ENDBRANCH  13  15
ENDBRANCH   8  11
ENDBRANCH   3   5
BRANCH   1  23
ATOM     23  C   UNL     1       0.049   3.400  -3.161  0.00  0.00    +0.214 C 
BRANCH  23  27
ATOM     24  C   UNL     1      -0.195   1.471   0.004  0.00  0.00    +0.135 C 
ATOM     25  C   UNL     1      -0.788   1.992  -1.291  0.00  0.00    +0.251 C 
ATOM     26  O   UNL     1      -1.908   1.801  -1.712  0.00  0.00    -0.272 OA
ATOM     27  N   UNL     1       0.191   2.711  -1.876  0.00  0.00    -0.215 N 
ATOM     28  C   UNL     1       1.307   2.716  -1.139  0.00  0.00    +0.310 C 
ATOM     29  O   UNL     1       2.326   3.297  -1.460  0.00  0.00    -0.252 OA
ATOM     30  N   UNL     1       1.177   2.007  -0.004  0.00  0.00    -0.281 N 
ATOM     31  C   UNL     1      -0.974   2.002   1.208  0.00  0.00    +0.047 C 
ATOM     32  H   UNL     1       1.855   1.874   0.678  0.00  0.00    +0.152 HD
BRANCH  24  37
ATOM     33  C   UNL     1      -0.121  -4.307   0.026  0.00  0.00    +0.044 C 
ATOM     34  C   UNL     1      -0.141  -2.800   0.020  0.00  0.00    -0.050 A 
ATOM     35  C   UNL     1       0.874  -2.094   0.638  0.00  0.00    +0.004 A 
ATOM     36  C   UNL     1       0.857  -0.712   0.633  0.00  0.00    +0.006 A 
ATOM     37  C   UNL     1      -0.176  -0.036   0.009  0.00  0.00    -0.015 A 
ATOM     38  C   UNL     1      -1.193  -0.742  -0.604  0.00  0.00    +0.006 A 
ATOM     39  C   UNL     1      -1.173  -2.124  -0.603  0.00  0.00    +0.004 A 
ENDBRANCH  24  37
ENDBRANCH  23  27
ENDBRANCH   1  23
TORSDOF 7
