REMARK  Name = ZINC04002381
REMARK  4 active torsions:
REMARK  status: ('A' for Active; 'I' for Inactive)
REMARK    1  A    between atoms: C_9  and  C_11
REMARK    2  A    between atoms: C_16  and  C_27
REMARK    3  A    between atoms: C_18  and  N_22
REMARK    4  A    between atoms: C_20  and  O_21
REMARK                            x       y       z     vdW  Elec       q    Type
REMARK                         _______ _______ _______ _____ _____    ______ ____
ROOT
ATOM      1  C   UNL     1      -0.004   1.087   0.007  0.00  0.00    +0.025 C 
ATOM      2  C   UNL     1       1.186   0.246   0.423  0.00  0.00    +0.162 C 
ATOM      3  O   UNL     1       2.263   0.391  -0.104  0.00  0.00    -0.292 OA
ATOM      4  C   UNL     1       0.987  -0.779   1.517  0.00  0.00    +0.090 C 
ATOM      5  C   UNL     1       0.408  -0.085   2.752  0.00  0.00    +0.058 C 
ATOM      6  C   UNL     1       0.089   1.464   2.575  0.00  0.00    +0.182 C 
ATOM      7  C   UNL     1      -0.672   1.585   1.274  0.00  0.00    +0.124 C 
ENDROOT
BRANCH   1  16
ATOM      8  C   UNL     1       0.986  -0.133  -4.714  0.00  0.00    +0.000 A 
ATOM      9  C   UNL     1       0.779  -0.894  -3.578  0.00  0.00    +0.000 A 
ATOM     10  C   UNL     1       0.215  -0.319  -2.458  0.00  0.00    +0.002 A 
ATOM     11  C   UNL     1      -0.145   1.021  -2.464  0.00  0.00    -0.054 A 
ATOM     12  C   UNL     1       0.065   1.780  -3.595  0.00  0.00    -0.047 A 
ATOM     13  C   UNL     1       0.629   1.200  -4.721  0.00  0.00    +0.004 A 
ATOM     14  C   UNL     1      -0.300   3.242  -3.645  0.00  0.00    +0.016 C 
ATOM     15  C   UNL     1      -1.261   3.579  -2.505  0.00  0.00    -0.077 C 
ATOM     16  C   UNL     1      -0.761   1.603  -1.218  0.00  0.00    -0.003 C 
ATOM     17  N   UNL     1      -0.690   3.071  -1.244  0.00  0.00    +0.387 N 
ATOM     18  H   UNL     1      -1.221   3.451  -0.452  0.00  0.00    -0.085 HD
ATOM     19  H   UNL     1       0.291   3.366  -1.171  0.00  0.00    -0.085 HD
ENDBRANCH   1  16
BRANCH   5  20
ATOM     20  C   UNL     1       0.167  -1.106   3.834  0.00  0.00    -0.041 A 
ATOM     21  C   UNL     1      -0.700  -2.159   3.610  0.00  0.00    +0.005 A 
ATOM     22  C   UNL     1      -0.916  -3.099   4.600  0.00  0.00    +0.020 A 
ATOM     23  C   UNL     1      -0.274  -2.979   5.820  0.00  0.00    +0.041 A 
ATOM     24  C   UNL     1       0.589  -1.922   6.045  0.00  0.00    +0.020 A 
ATOM     25  C   UNL     1       0.809  -0.986   5.053  0.00  0.00    +0.005 A 
ATOM     26 CL   UNL     1      -0.552  -4.155   7.067  0.00  0.00    -0.084 Cl
ENDBRANCH   5  20
BRANCH   6  27
ATOM     27  N   UNL     1       0.286   0.050   2.900  0.00  0.00    -0.241 N 
ATOM     28  C   UNL     1      -0.057  -0.570   4.043  0.00  0.00    +0.219 A 
ATOM     29  N   UNL     1       0.284  -1.829   3.941  0.00  0.00    -0.223 NA
ATOM     30  C   UNL     1       0.852  -2.048   2.756  0.00  0.00    +0.245 A 
ATOM     31  N   UNL     1       0.876  -0.928   2.082  0.00  0.00    -0.158 NA
ENDBRANCH   6  27
BRANCH   7  33
ATOM     32  H   UNL     1      -2.120   2.060   0.304  0.00  0.00    +0.292 HD
ATOM     33  O   UNL     1      -1.780   2.064   1.244  0.00  0.00    -0.509 OA
ENDBRANCH   7  33
TORSDOF 4
