REMARK  Name = ZINC36572390
REMARK  17 active torsions:
REMARK  status: ('A' for Active; 'I' for Inactive)
REMARK    1  A    between atoms: C_1  and  C_2
REMARK    2  A    between atoms: C_2  and  C_3
REMARK    3  A    between atoms: C_3  and  C_4
REMARK    4  A    between atoms: C_4  and  N_5
REMARK    5  A    between atoms: C_6  and  C_8
REMARK    6  A    between atoms: C_8  and  C_10
REMARK    7  A    between atoms: C_8  and  N_19
REMARK    8  A    between atoms: C_11  and  O_18
REMARK    9  A    between atoms: C_13  and  O_17
REMARK   10  A    between atoms: C_15  and  O_16
REMARK   11  A    between atoms: N_19  and  C_20
REMARK   12  A    between atoms: C_20  and  C_21
REMARK   13  A    between atoms: C_21  and  C_22
REMARK   14  A    between atoms: C_23  and  C_25
REMARK   15  A    between atoms: C_25  and  C_26
REMARK   16  A    between atoms: C_26  and  C_28
REMARK   17  A    between atoms: C_26  and  C_29
REMARK                            x       y       z     vdW  Elec       q    Type
REMARK                         _______ _______ _______ _____ _____    ______ ____
ROOT
ATOM      1  C   UNL     1       2.197  -4.318  -4.058  0.00  0.00    +0.199 C 
ENDROOT
BRANCH   1   2
ATOM      2  C   UNL     1       3.009  -3.699  -5.165  0.00  0.00    +0.065 A 
ATOM      3  C   UNL     1       2.492  -2.640  -5.896  0.00  0.00    +0.129 A 
ATOM      4  C   UNL     1       3.239  -2.070  -6.915  0.00  0.00    +0.091 A 
ATOM      5  C   UNL     1       4.505  -2.558  -7.204  0.00  0.00    +0.124 A 
ATOM      6  C   UNL     1       5.022  -3.616  -6.473  0.00  0.00    +0.091 A 
ATOM      7  C   UNL     1       4.277  -4.184  -5.451  0.00  0.00    +0.129 A 
BRANCH   7   8
ATOM      8  O   UNL     1       4.786  -5.218  -4.731  0.00  0.00    -0.506 OA
ATOM      9  H   UNL     1       4.585  -6.090  -5.099  0.00  0.00    +0.292 HD
ENDBRANCH   7   8
BRANCH   5  10
ATOM     10  O   UNL     1       5.237  -2.000  -8.204  0.00  0.00    -0.507 OA
ATOM     11  H   UNL     1       5.800  -1.268  -7.917  0.00  0.00    +0.292 HD
ENDBRANCH   5  10
BRANCH   3  12
ATOM     12  O   UNL     1       1.252  -2.161  -5.613  0.00  0.00    -0.506 OA
ATOM     13  H   UNL     1       1.236  -1.505  -4.902  0.00  0.00    +0.292 HD
ENDBRANCH   3  12
ENDBRANCH   1   2
BRANCH   1  15
ATOM     14  N   UNL     1       3.326  -2.734  -2.530  0.00  0.00    -0.313 N 
ATOM     15  C   UNL     1       2.809  -3.963  -2.727  0.00  0.00    +0.238 C 
ATOM     16  O   UNL     1       2.835  -4.782  -1.833  0.00  0.00    -0.273 OA
ATOM     17  H   UNL     1       3.305  -2.079  -3.245  0.00  0.00    +0.149 HD
BRANCH  14  18
ATOM     18  C   UNL     1       3.921  -2.389  -1.236  0.00  0.00    +0.104 C 
BRANCH  18  19
ATOM     19  C   UNL     1       4.430  -0.947  -1.278  0.00  0.00    +0.018 C 
BRANCH  19  21
ATOM     20  C   UNL     1       5.560   0.857   0.031  0.00  0.00    +0.004 C 
ATOM     21  C   UNL     1       5.051  -0.586   0.073  0.00  0.00    -0.002 C 
ENDBRANCH  19  21
ENDBRANCH  18  19
ENDBRANCH  14  18
ENDBRANCH   1  15
BRANCH   1  22
ATOM     22  N   UNL     1       2.185  -5.775  -4.216  0.00  0.00    -0.286 N 
ATOM     23  C   UNL     1       1.493  -6.337  -5.227  0.00  0.00    +0.217 C 
ATOM     24  O   UNL     1       0.879  -5.637  -6.005  0.00  0.00    -0.276 OA
BRANCH  22  25
ATOM     25  C   UNL     1       2.926  -6.620  -3.277  0.00  0.00    +0.108 C 
BRANCH  25  26
ATOM     26  C   UNL     1       1.972  -7.147  -2.203  0.00  0.00    +0.016 C 
ATOM     27  C   UNL     1       2.761  -7.955  -1.171  0.00  0.00    +0.005 C 
ENDBRANCH  25  26
ENDBRANCH  22  25
BRANCH  23  28
ATOM     28  C   UNL     1       1.481  -7.835  -5.390  0.00  0.00    +0.104 C 
BRANCH  28  29
ATOM     29  C   UNL     1       0.628  -8.209  -6.604  0.00  0.00    +0.025 C 
ATOM     30  C   UNL     1      -0.829  -7.818  -6.343  0.00  0.00    +0.013 C 
BRANCH  29  31
ATOM     31  C   UNL     1       0.715  -9.695  -6.841  0.00  0.00    -0.044 A 
ATOM     32  C   UNL     1       0.298 -10.576  -5.861  0.00  0.00    +0.004 A 
ATOM     33  C   UNL     1       0.378 -11.939  -6.078  0.00  0.00    +0.000 A 
ATOM     34  C   UNL     1       0.874 -12.420  -7.275  0.00  0.00    +0.000 A 
ATOM     35  C   UNL     1       1.290 -11.539  -8.255  0.00  0.00    +0.000 A 
ATOM     36  C   UNL     1       1.206 -10.176  -8.040  0.00  0.00    +0.004 A 
ENDBRANCH  29  31
ENDBRANCH  28  29
ENDBRANCH  23  28
ENDBRANCH   1  22
TORSDOF 14
