REMARK  Name = ZINC67418246
REMARK  7 active torsions:
REMARK  status: ('A' for Active; 'I' for Inactive)
REMARK    1  A    between atoms: C_1  and  C_2
REMARK    2  A    between atoms: N_4  and  C_5
REMARK    3  A    between atoms: C_5  and  C_6
REMARK    4  A    between atoms: N_11  and  C_13
REMARK    5  A    between atoms: C_13  and  C_14
REMARK    6  A    between atoms: N_16  and  C_17
REMARK    7  A    between atoms: C_18  and  C_26
REMARK                            x       y       z     vdW  Elec       q    Type
REMARK                         _______ _______ _______ _____ _____    ______ ____
ROOT
ATOM      1  C   UNL     1      -0.406  -6.592  -5.445  0.00  0.00    +0.201 C 
ATOM      2  O   UNL     1      -0.361  -5.799  -6.362  0.00  0.00    -0.278 OA
ATOM      3  N   UNL     1      -0.578  -7.904  -5.697  0.00  0.00    -0.281 N 
ATOM      4  H   UNL     1      -0.614  -8.538  -4.963  0.00  0.00    +0.155 HD
ENDROOT
BRANCH   3   5
ATOM      5  C   UNL     1      -0.704  -8.349  -7.004  0.00  0.00    +0.084 A 
ATOM      6  C   UNL     1      -0.891  -9.649  -7.448  0.00  0.00    +0.068 A 
ATOM      7  C   UNL     1      -0.993  -9.852  -8.882  0.00  0.00    -0.023 A 
ATOM      8  C   UNL     1      -0.889  -8.720  -9.610  0.00  0.00    -0.004 A 
ATOM      9  S   UNL     1      -0.672  -7.436  -8.413  0.00  0.00    -0.077 S 
ATOM     10  C   UNL     1      -0.952  -8.599 -11.101  0.00  0.00    +0.043 C 
ATOM     11  C   UNL     1      -0.775 -10.000 -11.706  0.00  0.00    +0.005 C 
ATOM     12  C   UNL     1      -1.703 -10.976 -10.976  0.00  0.00    +0.005 C 
ATOM     13  C   UNL     1      -1.200 -11.204  -9.549  0.00  0.00    +0.037 C 
BRANCH   6  14
ATOM     14  C   UNL     1      -0.981 -10.771  -6.508  0.00  0.00    +0.244 C 
ATOM     15  O   UNL     1      -2.062 -11.106  -6.063  0.00  0.00    -0.270 OA
ATOM     16  N   UNL     1       0.134 -11.431  -6.139  0.00  0.00    -0.325 N 
ATOM     17  H   UNL     1       0.997 -11.164  -6.494  0.00  0.00    +0.145 HD
ATOM     18  H   UNL     1       0.075 -12.174  -5.517  0.00  0.00    +0.145 HD
ENDBRANCH   6  14
ENDBRANCH   3   5
BRANCH   1  19
ATOM     19  C   UNL     1      -0.269  -6.109  -4.024  0.00  0.00    +0.019 C 
BRANCH  19  24
ATOM     20  C   UNL     1       0.013  -2.639  -2.622  0.00  0.00    -0.011 C 
ATOM     21  C   UNL     1       1.310  -2.214  -3.317  0.00  0.00    +0.001 C 
ATOM     22  C   UNL     1       1.328  -2.788  -4.737  0.00  0.00    -0.018 C 
ATOM     23  C   UNL     1       1.178  -4.309  -4.668  0.00  0.00    -0.078 C 
ATOM     24  N   UNL     1      -0.093  -4.650  -4.018  0.00  0.00    +0.386 N 
ATOM     25  C   UNL     1      -0.090  -4.165  -2.632  0.00  0.00    -0.073 C 
ATOM     26  H   UNL     1      -0.854  -4.219  -4.521  0.00  0.00    -0.081 HD
BRANCH  20  27
ATOM     27  C   UNL     1       0.020  -2.136  -1.177  0.00  0.00    +0.105 C 
BRANCH  27  31
ATOM     28  C   UNL     1      -0.018   1.503   0.010  0.00  0.00    +0.109 C 
ATOM     29  C   UNL     1       0.002  -0.004   0.002  0.00  0.00    +0.210 C 
ATOM     30  O   UNL     1       0.020  -0.616   1.049  0.00  0.00    -0.276 OA
ATOM     31  N   UNL     1       0.000  -0.672  -1.169  0.00  0.00    -0.315 N 
ATOM     32  H   UNL     1      -0.015  -0.182  -2.006  0.00  0.00    +0.149 HD
ENDBRANCH  27  31
ENDBRANCH  20  27
ENDBRANCH  19  24
ENDBRANCH   1  19
TORSDOF 6
