REMARK  Name = ZINC39932045
REMARK  7 active torsions:
REMARK  status: ('A' for Active; 'I' for Inactive)
REMARK    1  A    between atoms: C_1  and  N_2
REMARK    2  A    between atoms: C_3  and  S_7
REMARK    3  A    between atoms: S_7  and  C_8
REMARK    4  A    between atoms: C_8  and  C_9
REMARK    5  A    between atoms: N_11  and  C_12
REMARK    6  A    between atoms: C_15  and  C_18
REMARK    7  A    between atoms: C_23  and  N_26
REMARK                            x       y       z     vdW  Elec       q    Type
REMARK                         _______ _______ _______ _____ _____    ______ ____
ROOT
ATOM      1  C   UNL     1      -7.500  -2.327   0.025  0.00  0.00    +0.033 A 
ATOM      2  C   UNL     1      -8.007  -1.300   0.816  0.00  0.00    +0.024 A 
ATOM      3  C   UNL     1      -9.366  -1.095   0.891  0.00  0.00    +0.015 A 
ATOM      4  C   UNL     1     -10.237  -1.918   0.172  0.00  0.00    +0.037 A 
ATOM      5  C   UNL     1      -9.725  -2.947  -0.622  0.00  0.00    +0.015 A 
ATOM      6  C   UNL     1      -8.364  -3.145  -0.697  0.00  0.00    +0.024 A 
ENDROOT
BRANCH   4   7
ATOM      7  C   UNL     1     -11.695  -1.700   0.251  0.00  0.00    +0.247 C 
ATOM      8  O   UNL     1     -12.148  -0.576   0.155  0.00  0.00    -0.270 OA
ATOM      9  N   UNL     1     -12.524  -2.748   0.430  0.00  0.00    -0.297 N 
ATOM     10  C   UNL     1     -13.969  -2.539   0.597  0.00  0.00    +0.110 C 
ATOM     11  C   UNL     1     -14.422  -3.237   1.883  0.00  0.00    +0.044 C 
ATOM     12  C   UNL     1     -14.001  -4.708   1.836  0.00  0.00    +0.095 C 
ATOM     13  C   UNL     1     -12.476  -4.801   1.748  0.00  0.00    +0.044 C 
ATOM     14  C   UNL     1     -12.001  -4.120   0.455  0.00  0.00    +0.110 C 
BRANCH  12  15
ATOM     15  N   UNL     1     -14.462  -5.386   3.050  0.00  0.00    -0.289 N 
ATOM     16  C   UNL     1     -15.327  -6.477   3.095  0.00  0.00    +0.070 A 
ATOM     17  C   UNL     1     -15.978  -7.216   2.119  0.00  0.00    +0.028 A 
ATOM     18  C   UNL     1     -16.793  -8.270   2.484  0.00  0.00    +0.002 A 
ATOM     19  C   UNL     1     -16.962  -8.591   3.820  0.00  0.00    +0.002 A 
ATOM     20  C   UNL     1     -16.318  -7.861   4.799  0.00  0.00    +0.028 A 
ATOM     21  C   UNL     1     -15.498  -6.801   4.442  0.00  0.00    +0.067 A 
ATOM     22  N   UNL     1     -14.731  -5.898   5.174  0.00  0.00    -0.306 N 
ATOM     23  H   UNL     1     -14.649  -5.874   6.140  0.00  0.00    +0.170 HD
ATOM     24  C   UNL     1     -14.117  -5.066   4.311  0.00  0.00    +0.328 A 
ATOM     25  O   UNL     1     -13.368  -4.159   4.624  0.00  0.00    -0.247 OA
ENDBRANCH  12  15
ENDBRANCH   4   7
BRANCH   1  28
ATOM     26  C   UNL     1      -5.352  -2.330   1.037  0.00  0.00    +0.227 C 
ATOM     27  O   UNL     1      -5.842  -1.888   2.054  0.00  0.00    -0.275 OA
ATOM     28  N   UNL     1      -6.123  -2.533  -0.050  0.00  0.00    -0.285 N 
ATOM     29  H   UNL     1      -5.720  -2.822  -0.883  0.00  0.00    +0.155 HD
BRANCH  26  30
ATOM     30  C   UNL     1      -3.881  -2.653   0.987  0.00  0.00    +0.173 C 
BRANCH  30  31
ATOM     31  S   UNL     1      -3.124  -2.274   2.592  0.00  0.00    -0.078 S 
BRANCH  31  34
ATOM     32  C   UNL     1      -0.621  -2.088   4.707  0.00  0.00    +0.153 C 
ATOM     33  N   UNL     1      -0.438  -2.582   3.340  0.00  0.00    -0.230 N 
ATOM     34  C   UNL     1      -1.428  -2.699   2.375  0.00  0.00    +0.190 C 
ATOM     35  N   UNL     1      -0.904  -3.172   1.286  0.00  0.00    -0.147 NA
ATOM     36  N   UNL     1       0.464  -3.384   1.502  0.00  0.00    -0.184 N 
ATOM     37  N   UNL     1       0.739  -3.005   2.788  0.00  0.00    -0.144 NA
ATOM     38  H   UNL     1       1.100  -3.732   0.858  0.00  0.00    +0.191 HD
ATOM     39  H   UNL     1       1.130  -3.773   3.313  0.00  0.00    +0.169 HD
ENDBRANCH  31  34
ENDBRANCH  30  31
ENDBRANCH  26  30
ENDBRANCH   1  28
TORSDOF 6
