REMARK  Name = ZINC09926791
REMARK  6 active torsions:
REMARK  status: ('A' for Active; 'I' for Inactive)
REMARK    1  A    between atoms: C_1  and  C_2
REMARK    2  A    between atoms: C_2  and  O_3
REMARK    3  A    between atoms: O_3  and  C_4
REMARK    4  A    between atoms: C_4  and  C_6
REMARK    5  A    between atoms: C_7  and  N_33
REMARK    6  A    between atoms: C_25  and  C_28
REMARK                            x       y       z     vdW  Elec       q    Type
REMARK                         _______ _______ _______ _____ _____    ______ ____
ROOT
ATOM      1  C   UNL     1      -0.668  -0.546   1.243  0.00  0.00    +0.117 C 
ATOM      2  C   UNL     1      -1.507  -1.611   1.147  0.00  0.00    +0.195 C 
ATOM      3  O   UNL     1      -1.731  -2.220  -0.026  0.00  0.00    -0.446 OA
ATOM      4  C   UNL     1      -1.488  -1.573  -1.182  0.00  0.00    +0.116 C 
ATOM      5  C   UNL     1      -0.659  -0.514  -1.231  0.00  0.00    +0.057 C 
ATOM      6  C   UNL     1       0.024  -0.022   0.019  0.00  0.00    +0.141 C 
ATOM      7  C   UNL     1       1.473  -0.399   0.016  0.00  0.00    -0.001 A 
ATOM      8  C   UNL     1       2.095  -1.629   0.000  0.00  0.00    +0.022 A 
ATOM      9  C   UNL     1       3.487  -1.631   0.002  0.00  0.00    +0.018 A 
ATOM     10  C   UNL     1       4.207  -0.454   0.019  0.00  0.00    +0.017 A 
ATOM     11  C   UNL     1       3.588   0.786   0.034  0.00  0.00    +0.025 A 
ATOM     12  C   UNL     1       2.192   0.802   0.032  0.00  0.00    +0.038 A 
ATOM     13  N   UNL     1       1.325   1.881   0.043  0.00  0.00    -0.284 N 
ATOM     14  C   UNL     1       0.033   1.493   0.035  0.00  0.00    +0.237 C 
ATOM     15  O   UNL     1      -0.938   2.220   0.036  0.00  0.00    -0.274 OA
ATOM     16 BR   UNL     1       4.410  -3.282  -0.018  0.00  0.00    -0.050 Br
ATOM     17  C   UNL     1      -0.405   0.163  -2.440  0.00  0.00    +0.165 C 
ATOM     18  O   UNL     1       0.366   1.101  -2.449  0.00  0.00    -0.292 OA
ATOM     19  C   UNL     1      -1.074  -0.255  -3.721  0.00  0.00    +0.091 C 
ATOM     20  C   UNL     1      -2.421  -0.905  -3.386  0.00  0.00    +0.070 C 
ATOM     21  C   UNL     1      -2.171  -2.075  -2.432  0.00  0.00    +0.086 C 
ATOM     22  H   UNL     1       1.613   2.807   0.055  0.00  0.00    +0.155 HD
ENDROOT
BRANCH  20  23
ATOM     23  C   UNL     1      -3.072  -1.412  -4.648  0.00  0.00    +0.109 A 
ATOM     24  C   UNL     1      -4.276  -1.039  -5.116  0.00  0.00    +0.045 A 
ATOM     25  C   UNL     1      -4.488  -1.754  -6.317  0.00  0.00    +0.041 A 
ATOM     26  C   UNL     1      -3.404  -2.527  -6.507  0.00  0.00    +0.195 A 
ATOM     27  O   UNL     1      -2.549  -2.316  -5.493  0.00  0.00    -0.468 OA
ENDBRANCH  20  23
BRANCH   2  28
ATOM     28  N   UNL     1      -2.138  -2.071   2.272  0.00  0.00    -0.329 N 
ATOM     29  H   UNL     1      -2.043  -1.593   3.111  0.00  0.00    +0.145 HD
ATOM     30  H   UNL     1      -2.679  -2.876   2.231  0.00  0.00    +0.145 HD
ENDBRANCH   2  28
BRANCH   1  31
ATOM     31  C   UNL     1      -0.449   0.064   2.488  0.00  0.00    +0.342 C 
ATOM     32  O   UNL     1       0.567  -0.179   3.115  0.00  0.00    -0.245 OA
BRANCH  31  33
ATOM     33  O   UNL     1      -1.364   0.921   2.990  0.00  0.00    -0.462 OA
BRANCH  33  35
ATOM     34  C   UNL     1      -2.218   2.441   4.664  0.00  0.00    +0.048 C 
ATOM     35  C   UNL     1      -1.075   1.506   4.262  0.00  0.00    +0.229 C 
ENDBRANCH  33  35
ENDBRANCH  31  33
ENDBRANCH   1  31
TORSDOF 5
