REMARK  Name = ZINC39674252
REMARK  11 active torsions:
REMARK  status: ('A' for Active; 'I' for Inactive)
REMARK    1  A    between atoms: C_1  and  C_2
REMARK    2  A    between atoms: C_4  and  C_9
REMARK    3  A    between atoms: C_5  and  C_8
REMARK    4  A    between atoms: C_9  and  C_11
REMARK    5  A    between atoms: C_9  and  N_12
REMARK    6  A    between atoms: C_13  and  C_15
REMARK    7  A    between atoms: C_26  and  C_28
REMARK    8  A    between atoms: C_31  and  O_36
REMARK    9  A    between atoms: C_33  and  O_34
REMARK   10  A    between atoms: O_34  and  C_35
REMARK   11  A    between atoms: O_36  and  C_37
REMARK                            x       y       z     vdW  Elec       q    Type
REMARK                         _______ _______ _______ _____ _____    ______ ____
ROOT
ATOM      1  C   UNL     1      -3.946   3.011  -1.770  0.00  0.00    +0.100 C 
ATOM      2  C   UNL     1      -3.665   3.863  -0.512  0.00  0.00    +0.121 C 
ATOM      3  N   UNL     1      -4.744   4.879  -0.500  0.00  0.00    -0.296 N 
ATOM      4  C   UNL     1      -5.952   4.139  -0.935  0.00  0.00    +0.115 C 
ATOM      5  C   UNL     1      -5.448   3.194  -2.044  0.00  0.00    -0.004 C 
ATOM      6  C   UNL     1      -6.168   1.852  -1.960  0.00  0.00    -0.010 C 
ATOM      7  C   UNL     1      -7.650   2.050  -2.292  0.00  0.00    -0.082 C 
ATOM      8  N   UNL     1      -7.779   2.614  -3.642  0.00  0.00    +0.379 N 
ATOM      9  C   UNL     1      -7.164   3.946  -3.689  0.00  0.00    -0.082 C 
ATOM     10  C   UNL     1      -5.662   3.827  -3.415  0.00  0.00    -0.010 C 
ATOM     11  C   UNL     1      -4.647   6.182  -0.168  0.00  0.00    +0.250 C 
ATOM     12  O   UNL     1      -3.560   6.668   0.078  0.00  0.00    -0.270 OA
ATOM     13  H   UNL     1      -7.316   2.008  -4.303  0.00  0.00    -0.086 HD
ATOM     14  H   UNL     1      -8.756   2.687  -3.882  0.00  0.00    -0.086 HD
ENDROOT
BRANCH  11  15
ATOM     15  C   UNL     1      -5.859   7.017  -0.103  0.00  0.00    +0.079 A 
ATOM     16  C   UNL     1      -7.067   6.469   0.341  0.00  0.00    +0.020 A 
ATOM     17  C   UNL     1      -8.196   7.252   0.400  0.00  0.00    +0.046 A 
ATOM     18  C   UNL     1      -8.142   8.589   0.019  0.00  0.00    +0.124 A 
ATOM     19  C   UNL     1      -6.950   9.143  -0.423  0.00  0.00    +0.092 A 
ATOM     20  C   UNL     1      -5.805   8.367  -0.482  0.00  0.00    +0.136 A 
BRANCH  20  21
ATOM     21  O   UNL     1      -4.637   8.908  -0.909  0.00  0.00    -0.494 OA
ATOM     22  C   UNL     1      -4.658  10.289  -1.278  0.00  0.00    +0.277 C 
ENDBRANCH  20  21
BRANCH  18  23
ATOM     23  O   UNL     1      -9.261   9.355   0.081  0.00  0.00    -0.495 OA
ATOM     24  C   UNL     1     -10.456   8.722   0.545  0.00  0.00    +0.277 C 
ENDBRANCH  18  23
ENDBRANCH  11  15
BRANCH   1  26
ATOM     25  N   UNL     1      -3.396   0.722  -2.530  0.00  0.00    -0.309 N 
ATOM     26  C   UNL     1      -3.634   1.561  -1.502  0.00  0.00    +0.219 C 
ATOM     27  O   UNL     1      -3.598   1.149  -0.362  0.00  0.00    -0.275 OA
ATOM     28  H   UNL     1      -3.425   1.051  -3.442  0.00  0.00    +0.149 HD
BRANCH  25  29
ATOM     29  C   UNL     1      -3.093  -0.688  -2.269  0.00  0.00    +0.100 C 
ATOM     30  C   UNL     1      -4.394  -1.492  -2.242  0.00  0.00    +0.033 C 
BRANCH  29  33
ATOM     31  C   UNL     1      -2.643   0.154  -5.409  0.00  0.00    +0.039 C 
ATOM     32  C   UNL     1      -2.463  -1.260  -4.852  0.00  0.00    +0.154 C 
ATOM     33  C   UNL     1      -2.196  -1.218  -3.358  0.00  0.00    -0.001 C 
ATOM     34  C   UNL     1      -0.983  -1.761  -3.233  0.00  0.00    +0.063 C 
ATOM     35  N   UNL     1      -0.491  -2.119  -4.440  0.00  0.00    -0.159 NA
ATOM     36  N   UNL     1      -1.243  -1.881  -5.394  0.00  0.00    -0.180 NA
ATOM     37  C   UNL     1      -0.261  -1.949  -1.924  0.00  0.00    +0.067 C 
ENDBRANCH  29  33
ENDBRANCH  25  29
ENDBRANCH   1  26
TORSDOF 6
