REMARK  Name = ZINC01034718
REMARK  7 active torsions:
REMARK  status: ('A' for Active; 'I' for Inactive)
REMARK    1  A    between atoms: C_1  and  C_2
REMARK    2  A    between atoms: C_11  and  N_20
REMARK    3  A    between atoms: C_13  and  S_15
REMARK    4  A    between atoms: S_15  and  C_16
REMARK    5  A    between atoms: C_16  and  C_17
REMARK    6  A    between atoms: N_20  and  C_21
REMARK    7  A    between atoms: C_21  and  C_22
REMARK                            x       y       z     vdW  Elec       q    Type
REMARK                         _______ _______ _______ _____ _____    ______ ____
ROOT
ATOM      1  C   UNL     1       2.278   3.343  -8.049  0.00  0.00    +0.008 C 
ATOM      2  C   UNL     1       2.636   4.025  -6.726  0.00  0.00    -0.009 C 
ATOM      3  C   UNL     1       2.459   3.033  -5.573  0.00  0.00    +0.008 C 
ATOM      4  C   UNL     1       2.575   3.766  -4.236  0.00  0.00    +0.037 C 
ATOM      5  C   UNL     1       3.874   4.567  -4.223  0.00  0.00    -0.025 A 
ATOM      6  C   UNL     1       4.515   4.858  -5.372  0.00  0.00    -0.004 A 
ATOM      7  S   UNL     1       5.945   5.784  -4.883  0.00  0.00    -0.073 S 
ATOM      8  C   UNL     1       5.679   5.780  -3.130  0.00  0.00    +0.115 A 
ATOM      9  C   UNL     1       4.481   5.053  -2.982  0.00  0.00    +0.051 A 
ATOM     10  C   UNL     1       4.023   4.891  -1.645  0.00  0.00    +0.132 A 
ATOM     11  N   UNL     1       4.722   5.418  -0.653  0.00  0.00    -0.206 NA
ATOM     12  C   UNL     1       5.849   6.089  -0.863  0.00  0.00    +0.191 A 
ATOM     13  N   UNL     1       6.323   6.271  -2.089  0.00  0.00    -0.214 NA
ATOM     14  C   UNL     1       4.103   4.479  -6.763  0.00  0.00    +0.046 C 
ENDROOT
BRANCH  10  15
ATOM     15  N   UNL     1       2.858   4.194  -1.384  0.00  0.00    -0.324 N 
ATOM     16  H   UNL     1       2.304   3.884  -2.118  0.00  0.00    +0.148 HD
BRANCH  15  17
ATOM     17  C   UNL     1       2.459   3.923  -0.001  0.00  0.00    +0.138 C 
BRANCH  17  18
ATOM     18  C   UNL     1       1.163   3.155   0.007  0.00  0.00    -0.030 A 
ATOM     19  C   UNL     1       1.178   1.773  -0.014  0.00  0.00    +0.005 A 
ATOM     20  C   UNL     1      -0.011   1.068  -0.007  0.00  0.00    +0.000 A 
ATOM     21  C   UNL     1      -1.216   1.746   0.017  0.00  0.00    +0.000 A 
ATOM     22  C   UNL     1      -1.231   3.127   0.044  0.00  0.00    +0.000 A 
ATOM     23  C   UNL     1      -0.042   3.832   0.037  0.00  0.00    +0.005 A 
ENDBRANCH  17  18
ENDBRANCH  15  17
ENDBRANCH  10  15
BRANCH  12  24
ATOM     24  S   UNL     1       6.726   6.756   0.511  0.00  0.00    -0.077 S 
BRANCH  24  25
ATOM     25  C   UNL     1       8.114   7.536  -0.350  0.00  0.00    +0.172 C 
BRANCH  25  26
ATOM     26  C   UNL     1       9.025   8.191   0.656  0.00  0.00    +0.221 C 
ATOM     27  O   UNL     1       8.763   8.135   1.839  0.00  0.00    -0.275 OA
ATOM     28  N   UNL     1      10.132   8.838   0.241  0.00  0.00    -0.329 N 
ATOM     29  H   UNL     1      10.342   8.883  -0.705  0.00  0.00    +0.145 HD
ATOM     30  H   UNL     1      10.719   9.259   0.888  0.00  0.00    +0.145 HD
ENDBRANCH  25  26
ENDBRANCH  24  25
ENDBRANCH  12  24
TORSDOF 6
