REMARK  Name = ZINC38705917
REMARK  17 active torsions:
REMARK  status: ('A' for Active; 'I' for Inactive)
REMARK    1  A    between atoms: C_1  and  C_2
REMARK    2  A    between atoms: C_2  and  C_3
REMARK    3  A    between atoms: C_3  and  C_4
REMARK    4  A    between atoms: C_4  and  C_5
REMARK    5  A    between atoms: C_5  and  O_6
REMARK    6  A    between atoms: O_6  and  C_7
REMARK    7  A    between atoms: C_10  and  C_16
REMARK    8  A    between atoms: C_12  and  O_13
REMARK    9  A    between atoms: O_13  and  C_14
REMARK   10  A    between atoms: C_14  and  C_15
REMARK   11  A    between atoms: C_19  and  C_30
REMARK   12  A    between atoms: N_26  and  C_27
REMARK   13  A    between atoms: C_27  and  C_28
REMARK   14  A    between atoms: C_28  and  O_29
REMARK   15  A    between atoms: C_31  and  C_38
REMARK   16  A    between atoms: C_33  and  C_37
REMARK   17  A    between atoms: C_35  and  O_36
REMARK                            x       y       z     vdW  Elec       q    Type
REMARK                         _______ _______ _______ _____ _____    ______ ____
ROOT
ATOM      1  C   UNL     1       3.805  -6.561  -6.948  0.00  0.00    +0.141 C 
ATOM      2  C   UNL     1       5.273  -6.490  -6.629  0.00  0.00    +0.035 A 
ATOM      3  C   UNL     1       6.311  -6.853  -5.764  0.00  0.00    +0.102 A 
ATOM      4  N   UNL     1       7.424  -6.333  -6.243  0.00  0.00    -0.173 NA
ATOM      5  N   UNL     1       7.192  -5.679  -7.325  0.00  0.00    -0.272 N 
ATOM      6  H   UNL     1       7.862  -5.214  -7.850  0.00  0.00    +0.189 HD
ATOM      7  C   UNL     1       5.861  -5.735  -7.626  0.00  0.00    +0.126 A 
ATOM      8  C   UNL     1       4.819  -5.321  -8.572  0.00  0.00    +0.266 C 
ATOM      9  O   UNL     1       5.012  -4.644  -9.565  0.00  0.00    -0.268 OA
ATOM     10  N   UNL     1       3.619  -5.796  -8.188  0.00  0.00    -0.283 N 
ENDROOT
BRANCH   3  11
ATOM     11  C   UNL     1       6.182  -7.671  -4.532  0.00  0.00    +0.047 A 
ATOM     12  C   UNL     1       6.751  -7.233  -3.339  0.00  0.00    -0.037 A 
ATOM     13  C   UNL     1       6.629  -7.998  -2.196  0.00  0.00    +0.007 A 
ATOM     14  C   UNL     1       5.943  -9.199  -2.232  0.00  0.00    -0.047 A 
ATOM     15  C   UNL     1       5.376  -9.643  -3.411  0.00  0.00    +0.049 A 
ATOM     16  C   UNL     1       5.485  -8.882  -4.564  0.00  0.00    +0.127 A 
ATOM     17  C   UNL     1       5.815 -10.027  -0.979  0.00  0.00    +0.044 C 
ATOM     18  C   UNL     1       7.499  -5.926  -3.295  0.00  0.00    +0.044 C 
BRANCH  16  19
ATOM     19  O   UNL     1       4.922  -9.314  -5.722  0.00  0.00    -0.506 OA
ATOM     20  H   UNL     1       5.477  -9.926  -6.226  0.00  0.00    +0.292 HD
ENDBRANCH  16  19
ENDBRANCH   3  11
BRANCH   1  24
ATOM     21  C   UNL     1       1.526  -4.802  -3.785  0.00  0.00    +0.162 A 
ATOM     22  C   UNL     1       2.331  -4.008  -4.587  0.00  0.00    +0.050 A 
ATOM     23  C   UNL     1       3.066  -4.580  -5.609  0.00  0.00    +0.009 A 
ATOM     24  C   UNL     1       3.001  -5.943  -5.832  0.00  0.00    -0.019 A 
ATOM     25  C   UNL     1       2.200  -6.740  -5.036  0.00  0.00    +0.055 A 
ATOM     26  C   UNL     1       1.466  -6.174  -4.006  0.00  0.00    +0.162 A 
BRANCH  21  27
ATOM     27  O   UNL     1       0.803  -4.241  -2.779  0.00  0.00    -0.488 OA
BRANCH  27  28
ATOM     28  C   UNL     1       0.914  -2.827  -2.610  0.00  0.00    +0.229 C 
BRANCH  28  29
ATOM     29  C   UNL     1       0.035  -2.382  -1.439  0.00  0.00    +0.041 C 
BRANCH  29  30
ATOM     30  C   UNL     1       0.154  -0.868  -1.258  0.00  0.00    +0.003 C 
BRANCH  30  32
ATOM     31  C   UNL     1      -0.605   1.092   0.093  0.00  0.00    +0.004 C 
ATOM     32  C   UNL     1      -0.725  -0.423  -0.088  0.00  0.00    -0.003 C 
ENDBRANCH  30  32
ENDBRANCH  29  30
ENDBRANCH  28  29
ENDBRANCH  27  28
ENDBRANCH  21  27
BRANCH  26  33
ATOM     33  O   UNL     1       0.682  -6.958  -3.218  0.00  0.00    -0.489 OA
BRANCH  33  34
ATOM     34  C   UNL     1       0.669  -8.358  -3.504  0.00  0.00    +0.226 C 
ATOM     35  C   UNL     1      -0.262  -9.070  -2.520  0.00  0.00    +0.048 C 
ENDBRANCH  33  34
ENDBRANCH  26  33
ENDBRANCH   1  24
BRANCH  10  36
ATOM     36  C   UNL     1       2.348  -5.587  -8.885  0.00  0.00    +0.137 C 
BRANCH  36  37
ATOM     37  C   UNL     1       1.746  -4.246  -8.458  0.00  0.00    +0.175 C 
BRANCH  37  38
ATOM     38  O   UNL     1       2.589  -3.182  -8.905  0.00  0.00    -0.393 OA
ATOM     39  H   UNL     1       2.269  -2.301  -8.668  0.00  0.00    +0.209 HD
ENDBRANCH  37  38
ENDBRANCH  36  37
ENDBRANCH  10  36
TORSDOF 13
