REMARK  Name = ZINC14466897
REMARK  7 active torsions:
REMARK  status: ('A' for Active; 'I' for Inactive)
REMARK    1  A    between atoms: C_1  and  C_2
REMARK    2  A    between atoms: C_5  and  N_9
REMARK    3  A    between atoms: C_7  and  C_8
REMARK    4  A    between atoms: N_9  and  S_10
REMARK    5  A    between atoms: S_10  and  C_13
REMARK    6  A    between atoms: C_26  and  C_29
REMARK    7  A    between atoms: C_34  and  O_35
REMARK                            x       y       z     vdW  Elec       q    Type
REMARK                         _______ _______ _______ _____ _____    ______ ____
ROOT
ATOM      1  C   UNL     1      -3.309   5.385   2.350  0.00  0.00    +0.109 A 
ATOM      2  C   UNL     1      -2.168   6.153   2.497  0.00  0.00    +0.030 A 
ATOM      3  C   UNL     1      -1.932   7.201   1.630  0.00  0.00    +0.025 A 
ATOM      4  C   UNL     1      -2.842   7.487   0.620  0.00  0.00    +0.031 A 
ATOM      5  C   UNL     1      -3.989   6.722   0.471  0.00  0.00    -0.018 A 
ATOM      6  C   UNL     1      -4.213   5.669   1.347  0.00  0.00    +0.034 A 
ATOM      7  C   UNL     1      -4.997   6.991  -0.600  0.00  0.00    +0.049 C 
ATOM      8  C   UNL     1      -4.902   5.975  -1.714  0.00  0.00    -0.023 C 
ATOM      9  C   UNL     1      -5.136   6.545  -2.870  0.00  0.00    -0.030 C 
ATOM     10  C   UNL     1      -5.424   8.022  -2.685  0.00  0.00    +0.033 C 
ATOM     11  C   UNL     1      -4.781   8.345  -1.304  0.00  0.00    +0.029 C 
ATOM     12  C   UNL     1      -3.286   8.578  -1.541  0.00  0.00    +0.109 C 
ATOM     13  N   UNL     1      -2.591   8.553  -0.250  0.00  0.00    -0.336 N 
ATOM     14  H   UNL     1      -1.972   9.259  -0.005  0.00  0.00    +0.147 HD
ENDROOT
BRANCH  12  15
ATOM     15  C   UNL     1      -2.740   7.489  -2.429  0.00  0.00    +0.017 A 
ATOM     16  C   UNL     1      -2.254   6.322  -1.872  0.00  0.00    +0.029 A 
ATOM     17  C   UNL     1      -1.753   5.322  -2.686  0.00  0.00    +0.043 A 
ATOM     18  C   UNL     1      -1.738   5.488  -4.060  0.00  0.00    +0.043 A 
ATOM     19  C   UNL     1      -2.223   6.655  -4.621  0.00  0.00    +0.084 A 
ATOM     20  C   UNL     1      -2.731   7.657  -3.805  0.00  0.00    +0.140 A 
ATOM     21 CL   UNL     1      -2.205   6.863  -6.344  0.00  0.00    -0.080 Cl
ATOM     22 CL   UNL     1      -1.143   3.856  -1.984  0.00  0.00    -0.083 Cl
BRANCH  20  23
ATOM     23  O   UNL     1      -3.215   8.802  -4.355  0.00  0.00    -0.505 OA
ATOM     24  H   UNL     1      -2.550   9.497  -4.465  0.00  0.00    +0.292 HD
ENDBRANCH  20  23
ENDBRANCH  12  15
BRANCH   1  25
ATOM     25  S   UNL     1      -3.611   4.043   3.451  0.00  0.00    +0.072 S 
ATOM     26  O   UNL     1      -5.015   3.824   3.448  0.00  0.00    -0.150 OA
ATOM     27  O   UNL     1      -2.886   4.322   4.640  0.00  0.00    -0.150 OA
BRANCH  25  28
ATOM     28  N   UNL     1      -2.921   2.695   2.781  0.00  0.00    -0.216 N 
ATOM     29  H   UNL     1      -3.479   1.954   2.497  0.00  0.00    +0.174 HD
BRANCH  28  34
ATOM     30  C   UNL     1       2.707   2.408   2.149  0.00  0.00    +0.044 C 
ATOM     31  C   UNL     1       1.212   2.484   2.317  0.00  0.00    -0.047 A 
ATOM     32  C   UNL     1       0.673   2.944   3.505  0.00  0.00    +0.005 A 
ATOM     33  C   UNL     1      -0.697   3.015   3.662  0.00  0.00    +0.025 A 
ATOM     34  C   UNL     1      -1.534   2.624   2.625  0.00  0.00    +0.048 A 
ATOM     35  C   UNL     1      -0.991   2.168   1.432  0.00  0.00    +0.028 A 
ATOM     36  C   UNL     1       0.381   2.094   1.283  0.00  0.00    -0.046 A 
ATOM     37  C   UNL     1       0.972   1.594  -0.010  0.00  0.00    +0.044 C 
ENDBRANCH  28  34
ENDBRANCH  25  28
ENDBRANCH   1  25
TORSDOF 5
