REMARK  Name = ZINC01069919
REMARK  4 active torsions:
REMARK  status: ('A' for Active; 'I' for Inactive)
REMARK    1  A    between atoms: C_1  and  C_2
REMARK    2  A    between atoms: C_8  and  C_10
REMARK    3  A    between atoms: C_15  and  C_28
REMARK    4  A    between atoms: C_18  and  C_21
REMARK                            x       y       z     vdW  Elec       q    Type
REMARK                         _______ _______ _______ _____ _____    ______ ____
ROOT
ATOM      1  C   UNL     1      -3.628  -4.364  -0.004  0.00  0.00    +0.149 A 
ATOM      2  C   UNL     1      -5.041  -4.379  -0.002  0.00  0.00    +0.078 A 
ATOM      3  C   UNL     1      -5.434  -5.667  -0.004  0.00  0.00    +0.119 A 
ATOM      4  N   UNL     1      -4.317  -6.454  -0.009  0.00  0.00    -0.238 N 
ATOM      5  N   UNL     1      -3.203  -5.615  -0.013  0.00  0.00    -0.164 NA
ATOM      6  C   UNL     1      -4.354  -7.919  -0.017  0.00  0.00    +0.215 C 
ATOM      7  C   UNL     1      -5.735  -8.378  -0.499  0.00  0.00    +0.063 C 
ATOM      8  C   UNL     1      -6.831  -7.646   0.284  0.00  0.00    +0.104 C 
ATOM      9  N   UNL     1      -6.726  -6.201  -0.001  0.00  0.00    -0.322 N 
ATOM     10  H   UNL     1      -7.508  -5.654  -0.176  0.00  0.00    +0.148 HD
ENDROOT
BRANCH   1  18
ATOM     11  C   UNL     1      -0.018   1.503   0.010  0.00  0.00    +0.089 C 
ATOM     12  C   UNL     1       0.002  -0.004   0.002  0.00  0.00    +0.136 A 
ATOM     13  C   UNL     1      -1.076  -0.807   0.003  0.00  0.00    +0.091 A 
ATOM     14  C   UNL     1      -0.625  -2.147  -0.007  0.00  0.00    +0.168 A 
ATOM     15  N   UNL     1       0.683  -2.130  -0.013  0.00  0.00    -0.063 NA
ATOM     16  O   UNL     1       1.100  -0.776  -0.013  0.00  0.00    -0.358 OA
ATOM     17  N   UNL     1      -1.432  -3.284  -0.009  0.00  0.00    -0.262 N 
ATOM     18  C   UNL     1      -2.773  -3.159  -0.002  0.00  0.00    +0.270 C 
ATOM     19  O   UNL     1      -3.281  -2.054   0.007  0.00  0.00    -0.268 OA
ATOM     20  H   UNL     1      -1.027  -4.165  -0.015  0.00  0.00    +0.157 HD
ENDBRANCH   1  18
BRANCH   8  21
ATOM     21  C   UNL     1      -6.646  -7.888   1.760  0.00  0.00    -0.027 A 
ATOM     22  C   UNL     1      -5.710  -7.158   2.469  0.00  0.00    +0.006 A 
ATOM     23  C   UNL     1      -5.541  -7.380   3.822  0.00  0.00    +0.015 A 
ATOM     24  C   UNL     1      -6.308  -8.333   4.468  0.00  0.00    +0.018 A 
ATOM     25  C   UNL     1      -7.245  -9.063   3.758  0.00  0.00    +0.015 A 
ATOM     26  C   UNL     1      -7.417  -8.837   2.406  0.00  0.00    +0.006 A 
ATOM     27 BR   UNL     1      -6.077  -8.638   6.320  0.00  0.00    -0.050 Br
ENDBRANCH   8  21
BRANCH   6  28
ATOM     28  C   UNL     1      -3.276  -8.453  -0.962  0.00  0.00    +0.412 C 
ATOM     29  F   UNL     1      -2.018  -8.022  -0.526  0.00  0.00    -0.168 F 
ATOM     30  F   UNL     1      -3.312  -9.852  -0.968  0.00  0.00    -0.168 F 
ATOM     31  F   UNL     1      -3.510  -7.975  -2.255  0.00  0.00    -0.168 F 
ENDBRANCH   6  28
TORSDOF 3
