REMARK  Name = ZINC58848657
REMARK  8 active torsions:
REMARK  status: ('A' for Active; 'I' for Inactive)
REMARK    1  A    between atoms: C_1  and  C_2
REMARK    2  A    between atoms: C_2  and  O_3
REMARK    3  A    between atoms: O_3  and  C_4
REMARK    4  A    between atoms: C_7  and  N_10
REMARK    5  A    between atoms: N_10  and  S_11
REMARK    6  A    between atoms: S_11  and  C_14
REMARK    7  A    between atoms: C_27  and  C_30
REMARK    8  A    between atoms: C_35  and  C_36
REMARK                            x       y       z     vdW  Elec       q    Type
REMARK                         _______ _______ _______ _____ _____    ______ ____
ROOT
ATOM      1  C   UNL     1       1.296  -8.229   5.117  0.00  0.00    +0.109 A 
ATOM      2  C   UNL     1       1.794  -7.019   4.669  0.00  0.00    +0.030 A 
ATOM      3  C   UNL     1       2.291  -6.105   5.576  0.00  0.00    +0.025 A 
ATOM      4  C   UNL     1       2.288  -6.398   6.936  0.00  0.00    +0.031 A 
ATOM      5  C   UNL     1       1.777  -7.605   7.387  0.00  0.00    -0.018 A 
ATOM      6  C   UNL     1       1.283  -8.518   6.466  0.00  0.00    +0.034 A 
ATOM      7  C   UNL     1       1.721  -7.939   8.839  0.00  0.00    +0.049 C 
ATOM      8  C   UNL     1       2.794  -8.919   9.239  0.00  0.00    -0.023 C 
ATOM      9  C   UNL     1       3.237  -8.642  10.440  0.00  0.00    -0.030 C 
ATOM     10  C   UNL     1       2.527  -7.435  11.012  0.00  0.00    +0.033 C 
ATOM     11  C   UNL     1       1.913  -6.745   9.772  0.00  0.00    +0.029 C 
ATOM     12  C   UNL     1       2.908  -5.724   9.259  0.00  0.00    +0.105 C 
ATOM     13  N   UNL     1       2.809  -5.476   7.835  0.00  0.00    -0.336 N 
ATOM     14  H   UNL     1       3.143  -4.633   7.490  0.00  0.00    +0.147 HD
ENDROOT
BRANCH  12  15
ATOM     15  C   UNL     1       4.298  -6.199   9.595  0.00  0.00    -0.015 A 
ATOM     16  C   UNL     1       4.883  -7.205   8.850  0.00  0.00    +0.006 A 
ATOM     17  C   UNL     1       6.158  -7.641   9.158  0.00  0.00    +0.000 A 
ATOM     18  C   UNL     1       6.848  -7.070  10.211  0.00  0.00    +0.001 A 
ATOM     19  C   UNL     1       6.264  -6.063  10.955  0.00  0.00    +0.013 A 
ATOM     20  C   UNL     1       4.990  -5.624  10.644  0.00  0.00    +0.060 A 
BRANCH  20  21
ATOM     21  C   UNL     1       4.354  -4.523  11.453  0.00  0.00    +0.418 C 
ATOM     22  F   UNL     1       5.184  -4.197  12.531  0.00  0.00    -0.166 F 
ATOM     23  F   UNL     1       4.176  -3.395  10.644  0.00  0.00    -0.166 F 
ATOM     24  F   UNL     1       3.113  -4.954  11.933  0.00  0.00    -0.166 F 
ENDBRANCH  20  21
ENDBRANCH  12  15
BRANCH   1  25
ATOM     25  S   UNL     1       0.669  -9.402   3.961  0.00  0.00    +0.072 S 
ATOM     26  O   UNL     1       0.641 -10.656   4.630  0.00  0.00    -0.150 OA
ATOM     27  O   UNL     1       1.385  -9.201   2.750  0.00  0.00    -0.150 OA
BRANCH  25  28
ATOM     28  N   UNL     1      -0.906  -8.994   3.654  0.00  0.00    -0.216 N 
ATOM     29  H   UNL     1      -1.172  -8.726   2.760  0.00  0.00    +0.174 HD
BRANCH  28  33
ATOM     30  C   UNL     1      -3.727  -9.116   6.720  0.00  0.00    +0.121 A 
ATOM     31  C   UNL     1      -3.667  -8.016   5.877  0.00  0.00    +0.047 A 
ATOM     32  C   UNL     1      -2.732  -7.975   4.861  0.00  0.00    +0.028 A 
ATOM     33  C   UNL     1      -1.853  -9.035   4.683  0.00  0.00    +0.048 A 
ATOM     34  C   UNL     1      -1.914 -10.136   5.527  0.00  0.00    +0.028 A 
ATOM     35  C   UNL     1      -2.845 -10.173   6.546  0.00  0.00    +0.047 A 
BRANCH  30  36
ATOM     36  O   UNL     1      -4.648  -9.156   7.720  0.00  0.00    -0.492 OA
BRANCH  36  38
ATOM     37  C   UNL     1      -6.482  -8.258   9.012  0.00  0.00    +0.048 C 
ATOM     38  C   UNL     1      -5.524  -8.034   7.840  0.00  0.00    +0.225 C 
ENDBRANCH  36  38
ENDBRANCH  30  36
ENDBRANCH  28  33
ENDBRANCH  25  28
ENDBRANCH   1  25
TORSDOF 7
