REMARK  Name = ZINC63375127
REMARK  9 active torsions:
REMARK  status: ('A' for Active; 'I' for Inactive)
REMARK    1  A    between atoms: C_1  and  C_2
REMARK    2  A    between atoms: C_13  and  C_32
REMARK    3  A    between atoms: N_20  and  C_23
REMARK    4  A    between atoms: C_23  and  C_24
REMARK    5  A    between atoms: C_24  and  C_25
REMARK    6  A    between atoms: C_36  and  O_40
REMARK    7  A    between atoms: C_37  and  O_38
REMARK    8  A    between atoms: O_38  and  C_39
REMARK    9  A    between atoms: O_40  and  C_41
REMARK                            x       y       z     vdW  Elec       q    Type
REMARK                         _______ _______ _______ _____ _____    ______ ____
ROOT
ATOM      1  C   UNL     1      -0.019   1.526   0.010  0.00  0.00    +0.044 C 
ATOM      2  C   UNL     1       0.002  -0.004   0.002  0.00  0.00    +0.135 C 
ATOM      3  C   UNL     1       0.771  -0.482  -1.235  0.00  0.00    +0.139 C 
ATOM      4  C   UNL     1       2.228  -0.097  -1.013  0.00  0.00    -0.027 C 
ATOM      5  C   UNL     1       2.586   0.634  -2.062  0.00  0.00    -0.000 A 
ATOM      6  C   UNL     1       3.877   1.225  -2.450  0.00  0.00    +0.010 A 
ATOM      7  C   UNL     1       3.886   1.939  -3.606  0.00  0.00    +0.001 A 
ATOM      8  C   UNL     1       2.753   2.124  -4.405  0.00  0.00    +0.002 A 
ATOM      9  C   UNL     1       1.528   1.613  -4.128  0.00  0.00    +0.026 A 
ATOM     10  C   UNL     1       1.393   0.837  -2.940  0.00  0.00    +0.043 A 
ATOM     11  N   UNL     1       0.339   0.210  -2.450  0.00  0.00    -0.375 N 
ATOM     12  C   UNL     1       2.979  -0.467   0.242  0.00  0.00    +0.069 C 
ATOM     13  C   UNL     1       2.101  -0.031   1.428  0.00  0.00    +0.121 C 
ATOM     14  N   UNL     1       0.713  -0.474   1.192  0.00  0.00    -0.283 N 
ATOM     15  C   UNL     1       0.152  -1.296   2.087  0.00  0.00    +0.234 C 
ATOM     16  O   UNL     1       0.833  -1.652   3.026  0.00  0.00    -0.274 OA
ATOM     17  C   UNL     1      -1.249  -1.806   2.016  0.00  0.00    +0.203 C 
ATOM     18  N   UNL     1      -1.959  -1.298   0.854  0.00  0.00    -0.291 N 
ATOM     19  C   UNL     1      -1.402  -0.506  -0.060  0.00  0.00    +0.242 C 
ATOM     20  O   UNL     1      -2.087  -0.157  -0.999  0.00  0.00    -0.273 OA
ATOM     21  H   UNL     1      -0.559   0.206  -2.816  0.00  0.00    +0.160 HD
ENDROOT
BRANCH  12  22
ATOM     22  C   UNL     1       4.301   0.256   0.284  0.00  0.00    +0.007 A 
ATOM     23  C   UNL     1       4.333   1.638   0.286  0.00  0.00    +0.008 A 
ATOM     24  C   UNL     1       5.544   2.304   0.324  0.00  0.00    +0.004 A 
ATOM     25  C   UNL     1       6.728   1.590   0.361  0.00  0.00    +0.049 A 
ATOM     26  C   UNL     1       6.702   0.205   0.360  0.00  0.00    +0.162 A 
ATOM     27  C   UNL     1       5.483  -0.465   0.327  0.00  0.00    +0.165 A 
BRANCH  27  28
ATOM     28  O   UNL     1       5.452  -1.825   0.331  0.00  0.00    -0.491 OA
ATOM     29  C   UNL     1       5.481  -2.478  -0.939  0.00  0.00    +0.277 C 
ENDBRANCH  27  28
BRANCH  26  30
ATOM     30  O   UNL     1       7.866  -0.498   0.396  0.00  0.00    -0.491 OA
ATOM     31  C   UNL     1       9.079   0.257   0.434  0.00  0.00    +0.277 C 
ENDBRANCH  26  30
ENDBRANCH  12  22
BRANCH  18  32
ATOM     32  C   UNL     1      -3.357  -1.694   0.668  0.00  0.00    +0.113 C 
BRANCH  32  33
ATOM     33  C   UNL     1      -4.270  -0.684   1.366  0.00  0.00    +0.054 C 
BRANCH  33  34
ATOM     34  C   UNL     1      -5.708  -1.092   1.175  0.00  0.00    -0.043 A 
ATOM     35  C   UNL     1      -6.417  -0.635   0.079  0.00  0.00    +0.004 A 
ATOM     36  C   UNL     1      -7.736  -1.009  -0.097  0.00  0.00    +0.003 A 
ATOM     37  C   UNL     1      -8.348  -1.839   0.823  0.00  0.00    +0.038 A 
ATOM     38  C   UNL     1      -7.640  -2.297   1.920  0.00  0.00    +0.124 A 
ATOM     39  C   UNL     1      -6.317  -1.928   2.092  0.00  0.00    +0.042 A 
ATOM     40  F   UNL     1      -8.238  -3.109   2.820  0.00  0.00    -0.205 F 
ENDBRANCH  33  34
ENDBRANCH  32  33
ENDBRANCH  18  32
TORSDOF 6
