REMARK  Name = ZINC14957811
REMARK  7 active torsions:
REMARK  status: ('A' for Active; 'I' for Inactive)
REMARK    1  A    between atoms: C_8  and  C_11
REMARK    2  A    between atoms: C_11  and  C_12
REMARK    3  A    between atoms: C_12  and  C_14
REMARK    4  A    between atoms: C_12  and  N_53
REMARK    5  A    between atoms: C_14  and  O_15
REMARK    6  A    between atoms: O_15  and  C_16
REMARK    7  A    between atoms: C_18  and  C_22
REMARK                            x       y       z     vdW  Elec       q    Type
REMARK                         _______ _______ _______ _____ _____    ______ ____
ROOT
ATOM      1  C   UNL     1       5.203   3.498  -1.476  0.00  0.00    +0.213 C 
ENDROOT
BRANCH   1   2
ATOM      2  C   UNL     1       4.006   2.545  -1.467  0.00  0.00    -0.033 C 
BRANCH   2   5
ATOM      3  H   UNL     1       5.148   0.843  -1.663  0.00  0.00    -0.089 HD
ATOM      4  H   UNL     1       3.583   0.668  -2.198  0.00  0.00    -0.089 HD
ATOM      5  N   UNL     1       4.382   1.298  -2.157  0.00  0.00    +0.382 N 
ATOM      6  H   UNL     1       4.684   1.519  -3.113  0.00  0.00    -0.089 HD
ENDBRANCH   2   5
BRANCH   2   7
ATOM      7  C   UNL     1       3.597   2.254  -0.022  0.00  0.00    +0.024 C 
BRANCH   7  15
ATOM      8  C   UNL     1       0.077  -2.781  -0.012  0.00  0.00    +0.001 A 
ATOM      9  C   UNL     1      -1.142  -2.106   0.003  0.00  0.00    +0.002 A 
ATOM     10  C   UNL     1      -1.192  -0.746   0.010  0.00  0.00    +0.028 A 
ATOM     11  C   UNL     1       0.002  -0.004   0.002  0.00  0.00    +0.071 A 
ATOM     12  C   UNL     1       1.241  -0.692  -0.013  0.00  0.00    +0.001 A 
ATOM     13  C   UNL     1       1.254  -2.097  -0.020  0.00  0.00    +0.010 A 
ATOM     14  C   UNL     1       2.435   0.052  -0.021  0.00  0.00    +0.015 A 
ATOM     15  C   UNL     1       2.345   1.415  -0.014  0.00  0.00    -0.030 A 
ATOM     16  C   UNL     1       1.095   2.029   0.003  0.00  0.00    +0.115 A 
ATOM     17  N   UNL     1      -0.016   1.332   0.009  0.00  0.00    -0.255 NA
ENDBRANCH   7  15
ENDBRANCH   2   7
ENDBRANCH   1   2
BRANCH   1  18
ATOM     18  O   UNL     1       5.512   3.862  -2.823  0.00  0.00    -0.492 OA
BRANCH  18  19
ATOM     19  C   UNL     1       6.557   4.710  -3.009  0.00  0.00    +0.139 A 
ATOM     20  C   UNL     1       6.920   5.111  -4.289  0.00  0.00    +0.057 A 
ATOM     21  C   UNL     1       8.001   5.984  -4.428  0.00  0.00    +0.004 A 
ATOM     22  C   UNL     1       8.670   6.417  -3.285  0.00  0.00    +0.119 A 
ATOM     23  N   UNL     1       8.292   6.011  -2.090  0.00  0.00    -0.259 NA
ATOM     24  C   UNL     1       7.273   5.192  -1.922  0.00  0.00    +0.156 A 
BRANCH  21  25
ATOM     25  C   UNL     1       8.430   6.443  -5.771  0.00  0.00    -0.016 A 
ATOM     26  C   UNL     1       7.743   5.997  -6.912  0.00  0.00    +0.009 A 
ATOM     27  C   UNL     1       8.114   6.402  -8.155  0.00  0.00    +0.010 A 
ATOM     28  C   UNL     1       9.199   7.280  -8.309  0.00  0.00    +0.000 A 
ATOM     29  C   UNL     1       9.618   7.726  -9.573  0.00  0.00    +0.119 A 
ATOM     30  N   UNL     1      10.638   8.546  -9.673  0.00  0.00    -0.263 NA
ATOM     31  C   UNL     1      11.310   8.989  -8.619  0.00  0.00    +0.111 A 
ATOM     32  C   UNL     1      10.984   8.616  -7.350  0.00  0.00    +0.028 A 
ATOM     33  C   UNL     1       9.901   7.737  -7.162  0.00  0.00    -0.014 A 
ATOM     34  C   UNL     1       9.499   7.313  -5.889  0.00  0.00    +0.017 A 
ENDBRANCH  21  25
ENDBRANCH  18  19
ENDBRANCH   1  18
TORSDOF 7
