REMARK  Name = ZINC36517010
REMARK  16 active torsions:
REMARK  status: ('A' for Active; 'I' for Inactive)
REMARK    1  A    between atoms: C_1  and  C_2
REMARK    2  A    between atoms: C_2  and  C_3
REMARK    3  A    between atoms: C_3  and  C_4
REMARK    4  A    between atoms: C_4  and  C_5
REMARK    5  A    between atoms: C_5  and  C_6
REMARK    6  A    between atoms: C_6  and  N_7
REMARK    7  A    between atoms: N_7  and  C_8
REMARK    8  A    between atoms: C_8  and  C_10
REMARK    9  A    between atoms: C_8  and  C_19
REMARK   10  A    between atoms: C_11  and  O_18
REMARK   11  A    between atoms: C_13  and  O_17
REMARK   12  A    between atoms: C_15  and  O_16
REMARK   13  A    between atoms: N_21  and  C_22
REMARK   14  A    between atoms: C_28  and  C_30
REMARK   15  A    between atoms: C_30  and  C_31
REMARK   16  A    between atoms: C_31  and  C_32
REMARK                            x       y       z     vdW  Elec       q    Type
REMARK                         _______ _______ _______ _____ _____    ______ ____
ROOT
ATOM      1  C   UNL     1       1.477  -4.656   4.840  0.00  0.00    +0.199 C 
ENDROOT
BRANCH   1   2
ATOM      2  C   UNL     1       2.431  -5.822   4.795  0.00  0.00    +0.065 A 
ATOM      3  C   UNL     1       2.586  -6.634   5.909  0.00  0.00    +0.129 A 
ATOM      4  C   UNL     1       3.464  -7.706   5.868  0.00  0.00    +0.091 A 
ATOM      5  C   UNL     1       4.186  -7.968   4.713  0.00  0.00    +0.124 A 
ATOM      6  C   UNL     1       4.030  -7.157   3.599  0.00  0.00    +0.091 A 
ATOM      7  C   UNL     1       3.149  -6.087   3.638  0.00  0.00    +0.129 A 
BRANCH   7   8
ATOM      8  O   UNL     1       2.992  -5.295   2.545  0.00  0.00    -0.506 OA
ATOM      9  H   UNL     1       3.661  -4.601   2.463  0.00  0.00    +0.292 HD
ENDBRANCH   7   8
BRANCH   5  10
ATOM     10  O   UNL     1       5.047  -9.018   4.673  0.00  0.00    -0.507 OA
ATOM     11  H   UNL     1       4.645  -9.845   4.373  0.00  0.00    +0.292 HD
ENDBRANCH   5  10
BRANCH   3  12
ATOM     12  O   UNL     1       1.879  -6.377   7.040  0.00  0.00    -0.506 OA
ATOM     13  H   UNL     1       1.059  -6.885   7.115  0.00  0.00    +0.292 HD
ENDBRANCH   3  12
ENDBRANCH   1   2
BRANCH   1  14
ATOM     14  C   UNL     1       1.636  -3.926   6.148  0.00  0.00    +0.239 C 
ATOM     15  O   UNL     1       2.623  -3.251   6.349  0.00  0.00    -0.273 OA
ATOM     16  N   UNL     1       0.682  -4.024   7.095  0.00  0.00    -0.311 N 
ATOM     17  H   UNL     1      -0.055  -4.644   6.979  0.00  0.00    +0.149 HD
BRANCH  16  18
ATOM     18  C   UNL     1       0.757  -3.193   8.299  0.00  0.00    +0.073 C 
ATOM     19  C   UNL     1       1.650  -3.877   9.336  0.00  0.00    +0.022 C 
ATOM     20  C   UNL     1       1.729  -3.010  10.594  0.00  0.00    +0.002 C 
ATOM     21  C   UNL     1       0.325  -2.822  11.173  0.00  0.00    +0.000 C 
ATOM     22  C   UNL     1      -0.568  -2.138  10.136  0.00  0.00    +0.002 C 
ATOM     23  C   UNL     1      -0.646  -3.006   8.878  0.00  0.00    +0.022 C 
ENDBRANCH  16  18
ENDBRANCH   1  14
BRANCH   1  24
ATOM     24  N   UNL     1       1.769  -3.743   3.732  0.00  0.00    -0.286 N 
ATOM     25  C   UNL     1       2.973  -3.142   3.655  0.00  0.00    +0.216 C 
ATOM     26  O   UNL     1       3.877  -3.497   4.381  0.00  0.00    -0.276 OA
BRANCH  24  27
ATOM     27  C   UNL     1       0.754  -3.484   2.708  0.00  0.00    +0.109 C 
BRANCH  27  28
ATOM     28  C   UNL     1      -0.102  -2.288   3.131  0.00  0.00    +0.019 C 
BRANCH  28  29
ATOM     29  C   UNL     1      -1.163  -2.017   2.062  0.00  0.00    +0.002 C 
BRANCH  29  30
ATOM     30  C   UNL     1      -2.019  -0.822   2.484  0.00  0.00    -0.000 C 
BRANCH  30  32
ATOM     31  C   UNL     1      -3.936   0.645   1.837  0.00  0.00    +0.004 C 
ATOM     32  C   UNL     1      -3.079  -0.551   1.415  0.00  0.00    -0.003 C 
ENDBRANCH  30  32
ENDBRANCH  29  30
ENDBRANCH  28  29
ENDBRANCH  27  28
ENDBRANCH  24  27
BRANCH  25  33
ATOM     33  C   UNL     1       3.196  -2.027   2.666  0.00  0.00    +0.096 C 
BRANCH  33  34
ATOM     34  C   UNL     1       4.636  -1.522   2.782  0.00  0.00    +0.006 C 
ATOM     35  C   UNL     1       4.862  -0.390   1.778  0.00  0.00    +0.004 C 
ENDBRANCH  33  34
ENDBRANCH  25  33
ENDBRANCH   1  24
TORSDOF 14
