REMARK  Name = ZINC36807444
REMARK  13 active torsions:
REMARK  status: ('A' for Active; 'I' for Inactive)
REMARK    1  A    between atoms: C_1  and  C_2
REMARK    2  A    between atoms: C_2  and  C_3
REMARK    3  A    between atoms: C_2  and  C_4
REMARK    4  A    between atoms: C_2  and  N_5
REMARK    5  A    between atoms: C_9  and  C_11
REMARK    6  A    between atoms: C_11  and  S_12
REMARK    7  A    between atoms: S_12  and  C_13
REMARK    8  A    between atoms: N_26  and  C_27
REMARK    9  A    between atoms: C_27  and  C_28
REMARK   10  A    between atoms: C_28  and  C_29
REMARK   11  A    between atoms: C_29  and  N_30
REMARK   12  A    between atoms: N_30  and  C_31
REMARK   13  A    between atoms: N_30  and  C_32
REMARK                            x       y       z     vdW  Elec       q    Type
REMARK                         _______ _______ _______ _____ _____    ______ ____
ROOT
ATOM      1  C   UNL     1       6.975  -0.727  -5.503  0.00  0.00    +0.173 A 
ATOM      2  N   UNL     1       6.227  -1.475  -6.289  0.00  0.00    -0.216 NA
ATOM      3  C   UNL     1       6.715  -1.975  -7.418  0.00  0.00    +0.117 A 
ATOM      4  C   UNL     1       8.037  -1.737  -7.831  0.00  0.00    +0.076 A 
ATOM      5  C   UNL     1       8.432  -2.355  -9.098  0.00  0.00    -0.023 A 
ATOM      6  C   UNL     1       7.498  -3.085  -9.740  0.00  0.00    -0.004 A 
ATOM      7  S   UNL     1       6.056  -2.996  -8.712  0.00  0.00    -0.073 S 
ATOM      8  C   UNL     1       7.651  -3.812 -11.041  0.00  0.00    +0.043 C 
ATOM      9  C   UNL     1       8.924  -3.305 -11.734  0.00  0.00    +0.005 C 
ATOM     10  C   UNL     1      10.067  -3.296 -10.715  0.00  0.00    +0.005 C 
ATOM     11  C   UNL     1       9.833  -2.193  -9.681  0.00  0.00    +0.037 C 
ATOM     12  C   UNL     1       8.825  -0.922  -6.958  0.00  0.00    +0.263 A 
ATOM     13  O   UNL     1       9.984  -0.662  -7.235  0.00  0.00    -0.267 OA
ATOM     14  N   UNL     1       8.269  -0.442  -5.831  0.00  0.00    -0.287 N 
ENDROOT
BRANCH   1  15
ATOM     15  S   UNL     1       6.293  -0.081  -4.012  0.00  0.00    -0.078 S 
BRANCH  15  16
ATOM     16  C   UNL     1       4.591  -0.709  -3.999  0.00  0.00    +0.173 C 
BRANCH  16  21
ATOM     17  N   UNL     1       0.688  -0.476  -1.203  0.00  0.00    -0.294 N 
ATOM     18  C   UNL     1       1.972  -0.132  -1.427  0.00  0.00    +0.306 C 
ATOM     19  O   UNL     1       2.560   0.570  -0.629  0.00  0.00    -0.252 OA
ATOM     20  N   UNL     1       2.602  -0.567  -2.536  0.00  0.00    -0.239 N 
ATOM     21  C   UNL     1       3.886  -0.223  -2.760  0.00  0.00    +0.231 C 
ATOM     22  O   UNL     1       4.473   0.478  -1.963  0.00  0.00    -0.274 OA
ATOM     23  H   UNL     1       0.218  -1.037  -1.840  0.00  0.00    +0.151 HD
ATOM     24  H   UNL     1       2.132  -1.127  -3.173  0.00  0.00    +0.159 HD
BRANCH  17  26
ATOM     25  C   UNL     1      -0.019   1.526   0.010  0.00  0.00    +0.031 C 
ATOM     26  C   UNL     1       0.002  -0.004   0.002  0.00  0.00    +0.028 C 
ATOM     27  C   UNL     1       0.742  -0.511   1.242  0.00  0.00    +0.031 C 
ATOM     28  C   UNL     1      -1.433  -0.534   0.013  0.00  0.00    +0.031 C 
ENDBRANCH  17  26
ENDBRANCH  16  21
ENDBRANCH  15  16
ENDBRANCH   1  15
BRANCH  14  29
ATOM     29  C   UNL     1       9.068   0.398  -4.936  0.00  0.00    +0.125 C 
BRANCH  29  30
ATOM     30  C   UNL     1       9.786  -0.485  -3.913  0.00  0.00    +0.003 C 
BRANCH  30  31
ATOM     31  C   UNL     1      10.621   0.392  -2.978  0.00  0.00    -0.078 C 
BRANCH  31  32
ATOM     32  N   UNL     1      11.310  -0.456  -1.996  0.00  0.00    +0.376 N 
ATOM     33  C   UNL     1      12.278  -1.319  -2.688  0.00  0.00    -0.097 C 
ATOM     34  C   UNL     1      12.015   0.392  -1.026  0.00  0.00    -0.097 C 
ATOM     35  H   UNL     1      10.634  -1.029  -1.514  0.00  0.00    -0.083 HD
ENDBRANCH  31  32
ENDBRANCH  30  31
ENDBRANCH  29  30
ENDBRANCH  14  29
TORSDOF 8
