REMARK  Name = ZINC02103437
REMARK  5 active torsions:
REMARK  status: ('A' for Active; 'I' for Inactive)
REMARK    1  A    between atoms: C_1  and  C_2
REMARK    2  A    between atoms: C_3  and  C_14
REMARK    3  A    between atoms: C_4  and  C_7
REMARK    4  A    between atoms: N_16  and  C_17
REMARK    5  A    between atoms: C_18  and  C_32
REMARK                            x       y       z     vdW  Elec       q    Type
REMARK                         _______ _______ _______ _____ _____    ______ ____
ROOT
ATOM      1  C   UNL     1       5.687  -2.024  -1.620  0.00  0.00    +0.085 A 
ATOM      2  C   UNL     1       6.390  -1.709  -2.778  0.00  0.00    +0.068 A 
ATOM      3  C   UNL     1       7.782  -1.362  -2.618  0.00  0.00    -0.023 A 
ATOM      4  C   UNL     1       8.282  -1.386  -1.370  0.00  0.00    -0.004 A 
ATOM      5  S   UNL     1       6.883  -1.865  -0.378  0.00  0.00    -0.077 S 
ATOM      6  C   UNL     1       9.687  -1.082  -0.918  0.00  0.00    +0.043 C 
ATOM      7  C   UNL     1      10.211   0.144  -1.668  0.00  0.00    +0.005 C 
ATOM      8  C   UNL     1      11.535   0.594  -1.047  0.00  0.00    +0.000 C 
ATOM      9  C   UNL     1      12.576   0.789  -2.151  0.00  0.00    +0.000 C 
ATOM     10  C   UNL     1      12.590  -0.439  -3.062  0.00  0.00    +0.000 C 
ATOM     11  C   UNL     1      11.848  -0.119  -4.361  0.00  0.00    +0.000 C 
ATOM     12  C   UNL     1      11.825  -1.360  -5.255  0.00  0.00    +0.000 C 
ATOM     13  C   UNL     1      10.403  -1.923  -5.311  0.00  0.00    +0.000 C 
ATOM     14  C   UNL     1       9.817  -1.970  -3.898  0.00  0.00    +0.005 C 
ATOM     15  C   UNL     1       8.641  -0.997  -3.801  0.00  0.00    +0.037 C 
ENDROOT
BRANCH   2  16
ATOM     16  C   UNL     1       5.747  -1.724  -4.096  0.00  0.00    +0.244 C 
ATOM     17  O   UNL     1       5.218  -0.716  -4.526  0.00  0.00    -0.270 OA
ATOM     18  N   UNL     1       5.742  -2.854  -4.830  0.00  0.00    -0.325 N 
ATOM     19  H   UNL     1       6.163  -3.658  -4.486  0.00  0.00    +0.145 HD
ATOM     20  H   UNL     1       5.317  -2.865  -5.702  0.00  0.00    +0.145 HD
ENDBRANCH   2  16
BRANCH   1  23
ATOM     21  C   UNL     1       3.846  -2.660  -0.276  0.00  0.00    +0.254 C 
ATOM     22  O   UNL     1       4.555  -2.596   0.710  0.00  0.00    -0.270 OA
ATOM     23  N   UNL     1       4.355  -2.383  -1.493  0.00  0.00    -0.275 N 
ATOM     24  H   UNL     1       3.789  -2.434  -2.279  0.00  0.00    +0.156 HD
BRANCH  21  27
ATOM     25  C   UNL     1       2.628  -5.609  -0.160  0.00  0.00    +0.090 C 
ATOM     26  C   UNL     1       1.884  -4.300  -0.088  0.00  0.00    +0.147 A 
ATOM     27  C   UNL     1       2.430  -3.042  -0.140  0.00  0.00    +0.106 A 
ATOM     28  C   UNL     1       1.246  -2.165  -0.026  0.00  0.00    +0.127 A 
ATOM     29  N   UNL     1       0.227  -2.979   0.077  0.00  0.00    -0.077 NA
ATOM     30  O   UNL     1       0.565  -4.137   0.039  0.00  0.00    -0.359 OA
BRANCH  28  31
ATOM     31  C   UNL     1       1.219  -0.682  -0.022  0.00  0.00    +0.023 A 
ATOM     32  C   UNL     1       2.108   0.032   0.779  0.00  0.00    +0.011 A 
ATOM     33  C   UNL     1       2.079   1.411   0.779  0.00  0.00    +0.001 A 
ATOM     34  C   UNL     1       1.168   2.087  -0.015  0.00  0.00    +0.001 A 
ATOM     35  C   UNL     1       0.283   1.385  -0.812  0.00  0.00    +0.020 A 
ATOM     36  C   UNL     1       0.303   0.004  -0.821  0.00  0.00    +0.050 A 
ATOM     37 CL   UNL     1      -0.808  -0.877  -1.823  0.00  0.00    -0.083 Cl
ENDBRANCH  28  31
ENDBRANCH  21  27
ENDBRANCH   1  23
TORSDOF 4
