REMARK  Name = ZINC59384994
REMARK  9 active torsions:
REMARK  status: ('A' for Active; 'I' for Inactive)
REMARK    1  A    between atoms: C_1  and  C_2
REMARK    2  A    between atoms: C_3  and  C_18
REMARK    3  A    between atoms: C_4  and  C_10
REMARK    4  A    between atoms: C_13  and  O_17
REMARK    5  A    between atoms: C_15  and  O_16
REMARK    6  A    between atoms: N_20  and  N_21
REMARK    7  A    between atoms: C_22  and  C_23
REMARK    8  A    between atoms: C_28  and  O_29
REMARK    9  A    between atoms: O_29  and  C_30
REMARK                            x       y       z     vdW  Elec       q    Type
REMARK                         _______ _______ _______ _____ _____    ______ ____
ROOT
ATOM      1  C   UNL     1       0.563   1.311   0.467  0.00  0.00    +0.061 C 
ATOM      2  C   UNL     1       0.313  -0.148   0.181  0.00  0.00    +0.017 C 
ATOM      3  C   UNL     1      -0.955  -0.594   0.066  0.00  0.00    +0.057 C 
ATOM      4  C   UNL     1      -1.161  -2.068  -0.222  0.00  0.00    +0.143 C 
ATOM      5  N   UNL     1       0.049  -2.897  -0.354  0.00  0.00    -0.315 N 
ATOM      6  C   UNL     1       1.251  -2.305  -0.213  0.00  0.00    +0.135 C 
ATOM      7  S   UNL     1       2.666  -3.256  -0.364  0.00  0.00    -0.019 S 
ATOM      8  N   UNL     1       1.375  -0.995   0.036  0.00  0.00    -0.300 N 
ATOM      9  H   UNL     1      -0.018  -3.847  -0.538  0.00  0.00    +0.149 HD
ATOM     10  H   UNL     1       2.269  -0.628   0.123  0.00  0.00    +0.154 HD
ENDROOT
BRANCH   4  11
ATOM     11  C   UNL     1      -1.946  -2.185  -1.503  0.00  0.00    +0.019 A 
ATOM     12  C   UNL     1      -2.067  -1.093  -2.341  0.00  0.00    +0.013 A 
ATOM     13  C   UNL     1      -2.786  -1.198  -3.516  0.00  0.00    +0.046 A 
ATOM     14  C   UNL     1      -3.389  -2.400  -3.857  0.00  0.00    +0.120 A 
ATOM     15  C   UNL     1      -3.270  -3.497  -3.018  0.00  0.00    +0.091 A 
ATOM     16  C   UNL     1      -2.543  -3.391  -1.842  0.00  0.00    +0.126 A 
BRANCH  16  17
ATOM     17  O   UNL     1      -2.419  -4.466  -1.020  0.00  0.00    -0.506 OA
ATOM     18  H   UNL     1      -3.157  -4.578  -0.405  0.00  0.00    +0.292 HD
ENDBRANCH  16  17
BRANCH  14  19
ATOM     19  O   UNL     1      -4.097  -2.503  -5.013  0.00  0.00    -0.507 OA
ATOM     20  H   UNL     1      -3.569  -2.779  -5.774  0.00  0.00    +0.292 HD
ENDBRANCH  14  19
ENDBRANCH   4  11
BRANCH   3  21
ATOM     21  C   UNL     1      -2.057   0.284   0.211  0.00  0.00    +0.263 C 
ATOM     22  O   UNL     1      -1.869   1.481   0.335  0.00  0.00    -0.269 OA
ATOM     23  N   UNL     1      -3.313  -0.204   0.212  0.00  0.00    -0.203 N 
ATOM     24  H   UNL     1      -3.467  -1.145   0.035  0.00  0.00    +0.178 HD
BRANCH  23  25
ATOM     25  N   UNL     1      -4.396   0.647   0.468  0.00  0.00    -0.187 NA
ATOM     26  C   UNL     1      -5.595   0.161   0.566  0.00  0.00    +0.142 C 
BRANCH  26  27
ATOM     27  C   UNL     1      -6.734   1.056   0.836  0.00  0.00    +0.036 A 
ATOM     28  C   UNL     1      -8.025   0.536   0.947  0.00  0.00    +0.013 A 
ATOM     29  C   UNL     1      -9.086   1.380   1.200  0.00  0.00    +0.001 A 
ATOM     30  C   UNL     1      -8.877   2.741   1.344  0.00  0.00    +0.004 A 
ATOM     31  C   UNL     1      -7.604   3.268   1.236  0.00  0.00    +0.046 A 
ATOM     32  C   UNL     1      -6.526   2.434   0.987  0.00  0.00    +0.129 A 
BRANCH  32  33
ATOM     33  O   UNL     1      -5.274   2.950   0.886  0.00  0.00    -0.494 OA
ATOM     34  C   UNL     1      -5.139   4.363   1.053  0.00  0.00    +0.277 C 
ENDBRANCH  32  33
ENDBRANCH  26  27
ENDBRANCH  23  25
ENDBRANCH   3  21
TORSDOF 7
