REMARK  Name = ZINC04024721
REMARK  6 active torsions:
REMARK  status: ('A' for Active; 'I' for Inactive)
REMARK    1  A    between atoms: C_1  and  O_2
REMARK    2  A    between atoms: O_2  and  C_3
REMARK    3  A    between atoms: C_6  and  C_9
REMARK    4  A    between atoms: C_14  and  C_24
REMARK    5  A    between atoms: C_15  and  O_23
REMARK    6  A    between atoms: C_16  and  N_18
REMARK                            x       y       z     vdW  Elec       q    Type
REMARK                         _______ _______ _______ _____ _____    ______ ____
ROOT
ATOM      1  C   UNL     1      -2.523   7.302   2.846  0.00  0.00    +0.058 C 
ATOM      2  C   UNL     1      -2.113   5.904   3.319  0.00  0.00    +0.090 C 
ATOM      3  C   UNL     1      -1.196   5.287   2.294  0.00  0.00    +0.162 C 
ATOM      4  O   UNL     1      -0.360   4.478   2.643  0.00  0.00    -0.292 OA
ATOM      5  C   UNL     1      -1.298   5.641   0.941  0.00  0.00    +0.025 C 
ATOM      6  C   UNL     1      -2.208   6.534   0.511  0.00  0.00    +0.124 C 
ATOM      7  C   UNL     1      -3.173   7.186   1.464  0.00  0.00    +0.182 C 
ENDROOT
BRANCH   5   8
ATOM      8  C   UNL     1      -0.361   5.010  -0.056  0.00  0.00    -0.003 C 
ATOM      9  C   UNL     1      -0.650   3.534  -0.146  0.00  0.00    -0.054 A 
ATOM     10  C   UNL     1      -1.974   3.121  -0.167  0.00  0.00    +0.002 A 
ATOM     11  C   UNL     1      -2.285   1.780  -0.262  0.00  0.00    +0.000 A 
ATOM     12  C   UNL     1      -1.272   0.841  -0.326  0.00  0.00    +0.000 A 
ATOM     13  C   UNL     1       0.046   1.250  -0.303  0.00  0.00    +0.004 A 
ATOM     14  C   UNL     1       0.359   2.598  -0.211  0.00  0.00    -0.047 A 
ATOM     15  C   UNL     1       1.812   2.998  -0.179  0.00  0.00    +0.016 C 
ATOM     16  C   UNL     1       1.951   4.487  -0.494  0.00  0.00    -0.077 C 
ATOM     17  N   UNL     1       1.025   5.240   0.373  0.00  0.00    +0.387 N 
ATOM     18  H   UNL     1       1.137   4.925   1.344  0.00  0.00    -0.085 HD
ATOM     19  H   UNL     1       1.239   6.242   0.311  0.00  0.00    -0.085 HD
ENDBRANCH   5   8
BRANCH   1  23
ATOM     20  C   UNL     1      -5.318   8.984   5.606  0.00  0.00    +0.120 A 
ATOM     21  C   UNL     1      -4.110   9.622   5.365  0.00  0.00    +0.046 A 
ATOM     22  C   UNL     1      -3.208   9.076   4.473  0.00  0.00    +0.007 A 
ATOM     23  C   UNL     1      -3.509   7.895   3.819  0.00  0.00    -0.041 A 
ATOM     24  C   UNL     1      -4.715   7.260   4.054  0.00  0.00    +0.007 A 
ATOM     25  C   UNL     1      -5.618   7.799   4.950  0.00  0.00    +0.046 A 
BRANCH  20  27
ATOM     26  C   UNL     1      -7.431   8.807   6.683  0.00  0.00    +0.277 C 
ATOM     27  O   UNL     1      -6.207   9.518   6.485  0.00  0.00    -0.495 OA
ENDBRANCH  20  27
ENDBRANCH   1  23
BRANCH   7  28
ATOM     28  N   UNL     1      -3.516   8.522   0.972  0.00  0.00    -0.241 N 
ATOM     29  C   UNL     1      -2.703   9.375   0.324  0.00  0.00    +0.219 A 
ATOM     30  N   UNL     1      -3.384  10.458   0.052  0.00  0.00    -0.223 NA
ATOM     31  C   UNL     1      -4.627  10.339   0.517  0.00  0.00    +0.245 A 
ATOM     32  N   UNL     1      -4.756   9.170   1.088  0.00  0.00    -0.158 NA
ENDBRANCH   7  28
BRANCH   6  33
ATOM     33  O   UNL     1      -2.258   6.848  -0.798  0.00  0.00    -0.509 OA
ATOM     34  H   UNL     1      -2.982   7.520  -0.952  0.00  0.00    +0.292 HD
ENDBRANCH   6  33
TORSDOF 5
