REMARK  Name = ZINC08306515
REMARK  7 active torsions:
REMARK  status: ('A' for Active; 'I' for Inactive)
REMARK    1  A    between atoms: C_1  and  C_2
REMARK    2  A    between atoms: C_3  and  C_25
REMARK    3  A    between atoms: C_4  and  C_16
REMARK    4  A    between atoms: C_19  and  C_22
REMARK    5  A    between atoms: C_22  and  C_23
REMARK    6  A    between atoms: C_22  and  C_24
REMARK    7  A    between atoms: C_25  and  C_27
REMARK                            x       y       z     vdW  Elec       q    Type
REMARK                         _______ _______ _______ _____ _____    ______ ____
ROOT
ATOM      1  C   UNL     1       0.790   6.257   0.171  0.00  0.00    +0.061 C 
ATOM      2  C   UNL     1       2.183   5.682   0.140  0.00  0.00    +0.017 C 
ATOM      3  C   UNL     1       2.335   4.362  -0.056  0.00  0.00    +0.044 C 
ATOM      4  C   UNL     1       3.678   3.688  -0.123  0.00  0.00    +0.156 C 
ATOM      5  N   UNL     1       4.712   4.605   0.358  0.00  0.00    -0.300 N 
ATOM      6  C   UNL     1       6.013   4.358   0.688  0.00  0.00    +0.071 A 
ATOM      7  C   UNL     1       6.784   3.201   0.692  0.00  0.00    +0.028 A 
ATOM      8  C   UNL     1       8.103   3.323   1.099  0.00  0.00    +0.002 A 
ATOM      9  C   UNL     1       8.642   4.538   1.487  0.00  0.00    +0.002 A 
ATOM     10  C   UNL     1       7.896   5.702   1.493  0.00  0.00    +0.030 A 
ATOM     11  C   UNL     1       6.561   5.604   1.086  0.00  0.00    +0.091 A 
ATOM     12  N   UNL     1       5.583   6.525   0.980  0.00  0.00    -0.214 NA
ATOM     13  C   UNL     1       4.490   5.950   0.556  0.00  0.00    +0.202 A 
ATOM     14  N   UNL     1       3.250   6.524   0.318  0.00  0.00    -0.288 N 
ATOM     15  H   UNL     1       3.142   7.487   0.275  0.00  0.00    +0.155 HD
ENDROOT
BRANCH   4  16
ATOM     16  C   UNL     1       3.974   3.302  -1.550  0.00  0.00    -0.020 A 
ATOM     17  C   UNL     1       4.146   4.281  -2.510  0.00  0.00    +0.006 A 
ATOM     18  C   UNL     1       4.423   3.927  -3.817  0.00  0.00    +0.004 A 
ATOM     19  C   UNL     1       4.518   2.592  -4.166  0.00  0.00    -0.045 A 
ATOM     20  C   UNL     1       4.341   1.613  -3.207  0.00  0.00    +0.004 A 
ATOM     21  C   UNL     1       4.069   1.968  -1.899  0.00  0.00    +0.006 A 
BRANCH  19  22
ATOM     22  C   UNL     1       4.814   2.206  -5.592  0.00  0.00    +0.013 C 
ATOM     23  C   UNL     1       3.715   2.751  -6.506  0.00  0.00    +0.012 C 
ATOM     24  C   UNL     1       6.163   2.793  -6.010  0.00  0.00    +0.012 C 
ENDBRANCH  19  22
ENDBRANCH   4  16
BRANCH   3  25
ATOM     25  C   UNL     1       1.176   3.569  -0.213  0.00  0.00    +0.193 C 
ATOM     26  O   UNL     1       0.480   3.696  -1.205  0.00  0.00    -0.287 OA
BRANCH  25  27
ATOM     27  C   UNL     1       0.808   2.583   0.827  0.00  0.00    +0.022 A 
ATOM     28  C   UNL     1      -0.270   1.720   0.625  0.00  0.00    +0.012 A 
ATOM     29  C   UNL     1      -0.608   0.804   1.599  0.00  0.00    +0.001 A 
ATOM     30  C   UNL     1       0.119   0.738   2.774  0.00  0.00    +0.000 A 
ATOM     31  C   UNL     1       1.189   1.591   2.981  0.00  0.00    +0.001 A 
ATOM     32  C   UNL     1       1.537   2.512   2.015  0.00  0.00    +0.012 A 
ENDBRANCH  25  27
ENDBRANCH   3  25
TORSDOF 4
