REMARK  Name = ZINC03405890
REMARK  9 active torsions:
REMARK  status: ('A' for Active; 'I' for Inactive)
REMARK    1  A    between atoms: C_1  and  C_2
REMARK    2  A    between atoms: C_7  and  C_8
REMARK    3  A    between atoms: C_11  and  S_14
REMARK    4  A    between atoms: N_12  and  C_13
REMARK    5  A    between atoms: S_14  and  C_15
REMARK    6  A    between atoms: C_15  and  C_16
REMARK    7  A    between atoms: N_18  and  C_19
REMARK    8  A    between atoms: C_22  and  S_26
REMARK    9  A    between atoms: S_26  and  N_29
REMARK                            x       y       z     vdW  Elec       q    Type
REMARK                         _______ _______ _______ _____ _____    ______ ____
ROOT
ATOM      1  C   UNL     1      -1.473  -0.614  -0.710  0.00  0.00    +0.228 C 
ATOM      2  O   UNL     1      -2.365  -0.007  -1.264  0.00  0.00    -0.275 OA
ATOM      3  N   UNL     1      -1.738  -1.775  -0.079  0.00  0.00    -0.282 N 
ATOM      4  H   UNL     1      -1.016  -2.286   0.320  0.00  0.00    +0.155 HD
ENDROOT
BRANCH   3   5
ATOM      5  C   UNL     1      -3.055  -2.243   0.001  0.00  0.00    +0.071 A 
ATOM      6  C   UNL     1      -4.091  -1.362   0.287  0.00  0.00    +0.065 A 
ATOM      7  C   UNL     1      -5.391  -1.827   0.361  0.00  0.00    +0.050 A 
ATOM      8  C   UNL     1      -5.659  -3.169   0.161  0.00  0.00    +0.108 A 
ATOM      9  C   UNL     1      -4.630  -4.049  -0.118  0.00  0.00    +0.050 A 
ATOM     10  C   UNL     1      -3.328  -3.591  -0.199  0.00  0.00    +0.065 A 
ATOM     11 CL   UNL     1      -2.037  -4.697  -0.549  0.00  0.00    -0.082 Cl
ATOM     12 CL   UNL     1      -3.755   0.321   0.544  0.00  0.00    -0.082 Cl
BRANCH   8  13
ATOM     13  S   UNL     1      -7.316  -3.759   0.263  0.00  0.00    +0.056 S 
ATOM     14  O   UNL     1      -8.160  -2.647  -0.004  0.00  0.00    -0.153 OA
ATOM     15  O   UNL     1      -7.369  -4.955  -0.501  0.00  0.00    -0.153 OA
BRANCH  13  16
ATOM     16  N   UNL     1      -7.587  -4.191   1.838  0.00  0.00    -0.204 NA
ATOM     17  H   UNL     1      -8.479  -4.124   2.213  0.00  0.00    +0.144 HD
ATOM     18  H   UNL     1      -6.853  -4.510   2.386  0.00  0.00    +0.144 HD
ENDBRANCH  13  16
ENDBRANCH   8  13
ENDBRANCH   3   5
BRANCH   1  19
ATOM     19  C   UNL     1      -0.068  -0.069  -0.727  0.00  0.00    +0.173 C 
BRANCH  19  20
ATOM     20  S   UNL     1      -0.036   1.491  -1.644  0.00  0.00    -0.077 S 
BRANCH  20  24
ATOM     21  C   UNL     1       3.616   2.879  -1.671  0.00  0.00    +0.165 A 
ATOM     22  N   UNL     1       3.736   1.766  -0.985  0.00  0.00    -0.128 NA
ATOM     23  N   UNL     1       2.593   1.187  -0.885  0.00  0.00    -0.122 NA
ATOM     24  C   UNL     1       1.674   1.891  -1.509  0.00  0.00    +0.192 A 
ATOM     25  N   UNL     1       2.292   2.993  -2.028  0.00  0.00    -0.305 N 
ATOM     26  C   UNL     1       1.674   4.072  -2.803  0.00  0.00    +0.153 C 
BRANCH  21  33
ATOM     27  C   UNL     1       5.404   3.784   0.415  0.00  0.00    +0.044 C 
ATOM     28  C   UNL     1       5.567   4.274  -1.000  0.00  0.00    -0.040 A 
ATOM     29  C   UNL     1       6.579   5.158  -1.314  0.00  0.00    +0.004 A 
ATOM     30  C   UNL     1       6.728   5.613  -2.612  0.00  0.00    +0.000 A 
ATOM     31  C   UNL     1       5.867   5.180  -3.605  0.00  0.00    +0.001 A 
ATOM     32  C   UNL     1       4.854   4.293  -3.307  0.00  0.00    +0.012 A 
ATOM     33  C   UNL     1       4.699   3.830  -1.999  0.00  0.00    +0.022 A 
ENDBRANCH  21  33
ENDBRANCH  20  24
ENDBRANCH  19  20
ENDBRANCH   1  19
TORSDOF 7
