REMARK  Name = ZINC02394645
REMARK  7 active torsions:
REMARK  status: ('A' for Active; 'I' for Inactive)
REMARK    1  A    between atoms: C_9  and  C_25
REMARK    2  A    between atoms: C_10  and  N_24
REMARK    3  A    between atoms: N_11  and  C_14
REMARK    4  A    between atoms: C_17  and  S_20
REMARK    5  A    between atoms: S_20  and  N_23
REMARK    6  A    between atoms: C_25  and  O_27
REMARK    7  A    between atoms: O_27  and  C_28
REMARK                            x       y       z     vdW  Elec       q    Type
REMARK                         _______ _______ _______ _____ _____    ______ ____
ROOT
ATOM      1  C   UNL     1      -7.246   7.746   4.929  0.00  0.00    +0.002 A 
ATOM      2  C   UNL     1      -6.744   7.676   3.630  0.00  0.00    +0.002 A 
ATOM      3  C   UNL     1      -5.811   6.747   3.289  0.00  0.00    +0.030 A 
ATOM      4  C   UNL     1      -5.342   5.840   4.255  0.00  0.00    +0.092 A 
ATOM      5  C   UNL     1      -5.852   5.911   5.577  0.00  0.00    +0.090 A 
ATOM      6  C   UNL     1      -6.816   6.886   5.892  0.00  0.00    +0.030 A 
ATOM      7  N   UNL     1      -5.414   5.054   6.506  0.00  0.00    -0.241 NA
ATOM      8  C   UNL     1      -4.510   4.149   6.182  0.00  0.00    +0.125 A 
ATOM      9  C   UNL     1      -3.830   3.083   6.941  0.00  0.00    +0.126 A 
ATOM     10  C   UNL     1      -2.972   2.452   6.045  0.00  0.00    +0.119 A 
ATOM     11  N   UNL     1      -3.077   3.043   4.822  0.00  0.00    -0.280 N 
ATOM     12  C   UNL     1      -3.993   4.080   4.861  0.00  0.00    +0.167 A 
ATOM     13  N   UNL     1      -4.425   4.918   3.941  0.00  0.00    -0.225 NA
ENDROOT
BRANCH  11  14
ATOM     14  C   UNL     1      -2.355   2.659   3.684  0.00  0.00    +0.050 A 
ATOM     15  C   UNL     1      -2.560   1.407   3.120  0.00  0.00    +0.028 A 
ATOM     16  C   UNL     1      -1.846   1.032   1.999  0.00  0.00    +0.030 A 
ATOM     17  C   UNL     1      -0.927   1.900   1.439  0.00  0.00    +0.105 A 
ATOM     18  C   UNL     1      -0.716   3.145   2.003  0.00  0.00    +0.030 A 
ATOM     19  C   UNL     1      -1.431   3.529   3.120  0.00  0.00    +0.028 A 
BRANCH  17  20
ATOM     20  S   UNL     1      -0.017   1.417   0.010  0.00  0.00    +0.056 S 
ATOM     21  O   UNL     1       0.002  -0.004   0.002  0.00  0.00    -0.153 OA
ATOM     22  O   UNL     1       1.172   2.195   0.003  0.00  0.00    -0.153 OA
BRANCH  20  23
ATOM     23  N   UNL     1      -0.897   1.885  -1.312  0.00  0.00    -0.204 NA
ATOM     24  H   UNL     1      -1.747   2.338  -1.194  0.00  0.00    +0.144 HD
ATOM     25  H   UNL     1      -0.563   1.708  -2.205  0.00  0.00    +0.144 HD
ENDBRANCH  20  23
ENDBRANCH  17  20
ENDBRANCH  11  14
BRANCH  10  26
ATOM     26  N   UNL     1      -2.150   1.398   6.347  0.00  0.00    -0.343 N 
ATOM     27  H   UNL     1      -1.581   1.015   5.661  0.00  0.00    +0.144 HD
ATOM     28  H   UNL     1      -2.136   1.036   7.247  0.00  0.00    +0.144 HD
ENDBRANCH  10  26
BRANCH   9  29
ATOM     29  C   UNL     1      -4.015   2.765   8.309  0.00  0.00    +0.345 C 
ATOM     30  O   UNL     1      -3.327   3.303   9.157  0.00  0.00    -0.245 OA
BRANCH  29  31
ATOM     31  O   UNL     1      -4.953   1.866   8.672  0.00  0.00    -0.458 OA
BRANCH  31  32
ATOM     32  C   UNL     1      -5.085   1.593  10.068  0.00  0.00    +0.177 C 
ATOM     33  C   UNL     1      -4.160   0.436  10.451  0.00  0.00    +0.044 C 
ATOM     34  C   UNL     1      -4.301   0.144  11.946  0.00  0.00    +0.004 C 
ATOM     35  C   UNL     1      -5.750  -0.236  12.258  0.00  0.00    +0.000 C 
ATOM     36  C   UNL     1      -6.674   0.921  11.875  0.00  0.00    +0.004 C 
ATOM     37  C   UNL     1      -6.534   1.214  10.380  0.00  0.00    +0.044 C 
ENDBRANCH  31  32
ENDBRANCH  29  31
ENDBRANCH   9  29
TORSDOF 7
