REMARK  Name = ZINC36610379
REMARK  12 active torsions:
REMARK  status: ('A' for Active; 'I' for Inactive)
REMARK    1  A    between atoms: C_1  and  C_2
REMARK    2  A    between atoms: C_2  and  C_3
REMARK    3  A    between atoms: C_3  and  C_4
REMARK    4  A    between atoms: C_3  and  C_6
REMARK    5  A    between atoms: C_4  and  C_5
REMARK    6  A    between atoms: C_6  and  C_8
REMARK    7  A    between atoms: C_6  and  N_17
REMARK    8  A    between atoms: N_10  and  C_11
REMARK    9  A    between atoms: N_17  and  C_18
REMARK   10  A    between atoms: C_24  and  C_26
REMARK   11  A    between atoms: C_30  and  O_33
REMARK   12  A    between atoms: C_31  and  O_32
REMARK                            x       y       z     vdW  Elec       q    Type
REMARK                         _______ _______ _______ _____ _____    ______ ____
ROOT
ATOM      1  N   UNL     1       1.076   1.325  -1.932  0.00  0.00    -0.255 N 
ATOM      2  C   UNL     1       0.718   2.616  -1.779  0.00  0.00    +0.255 C 
ATOM      3  O   UNL     1       1.556   3.448  -1.489  0.00  0.00    -0.269 OA
ENDROOT
BRANCH   1   4
ATOM      4  C   UNL     1       2.389   0.927  -1.664  0.00  0.00    +0.037 A 
ATOM      5  C   UNL     1       3.022   0.011  -2.495  0.00  0.00    +0.023 A 
ATOM      6  C   UNL     1       4.319  -0.380  -2.227  0.00  0.00    +0.002 A 
ATOM      7  C   UNL     1       4.988   0.139  -1.134  0.00  0.00    +0.000 A 
ATOM      8  C   UNL     1       4.361   1.051  -0.305  0.00  0.00    +0.002 A 
ATOM      9  C   UNL     1       3.066   1.451  -0.570  0.00  0.00    +0.023 A 
ENDBRANCH   1   4
BRANCH   2  10
ATOM     10  C   UNL     1      -0.689   3.018  -1.963  0.00  0.00    +0.082 A 
ATOM     11  C   UNL     1      -1.714   2.082  -1.800  0.00  0.00    +0.017 A 
ATOM     12  C   UNL     1      -3.027   2.461  -1.973  0.00  0.00    +0.005 A 
ATOM     13  C   UNL     1      -3.340   3.769  -2.308  0.00  0.00    +0.049 A 
ATOM     14  C   UNL     1      -2.336   4.707  -2.472  0.00  0.00    +0.159 A 
ATOM     15  C   UNL     1      -1.005   4.341  -2.296  0.00  0.00    +0.171 A 
BRANCH  15  16
ATOM     16  O   UNL     1      -0.018   5.260  -2.450  0.00  0.00    -0.503 OA
ATOM     17  H   UNL     1       0.323   5.323  -3.353  0.00  0.00    +0.292 HD
ENDBRANCH  15  16
BRANCH  14  18
ATOM     18  O   UNL     1      -2.650   5.989  -2.801  0.00  0.00    -0.503 OA
ATOM     19  H   UNL     1      -2.795   6.567  -2.039  0.00  0.00    +0.292 HD
ENDBRANCH  14  18
ENDBRANCH   2  10
BRANCH   1  20
ATOM     20  C   UNL     1       0.088   0.340  -2.380  0.00  0.00    +0.170 C 
BRANCH  20  21
ATOM     21  C   UNL     1       0.530  -0.253  -3.692  0.00  0.00    +0.234 C 
ATOM     22  O   UNL     1       1.241   0.386  -4.438  0.00  0.00    -0.274 OA
ATOM     23  N   UNL     1       0.135  -1.495  -4.038  0.00  0.00    -0.311 N 
ATOM     24  H   UNL     1      -0.491  -1.978  -3.476  0.00  0.00    +0.149 HD
BRANCH  23  25
ATOM     25  C   UNL     1       0.651  -2.114  -5.261  0.00  0.00    +0.073 C 
ATOM     26  C   UNL     1      -0.198  -1.671  -6.454  0.00  0.00    +0.022 C 
ATOM     27  C   UNL     1       0.342  -2.317  -7.732  0.00  0.00    +0.002 C 
ATOM     28  C   UNL     1       0.278  -3.840  -7.599  0.00  0.00    +0.000 C 
ATOM     29  C   UNL     1       1.127  -4.284  -6.405  0.00  0.00    +0.002 C 
ATOM     30  C   UNL     1       0.588  -3.637  -5.128  0.00  0.00    +0.022 C 
ENDBRANCH  23  25
ENDBRANCH  20  21
BRANCH  20  31
ATOM     31  C   UNL     1      -0.034  -0.770  -1.334  0.00  0.00    +0.018 C 
BRANCH  31  33
ATOM     32  C   UNL     1       1.835  -2.244  -2.094  0.00  0.00    +0.004 C 
ATOM     33  C   UNL     1       1.358  -1.300  -0.987  0.00  0.00    +0.002 C 
ENDBRANCH  31  33
BRANCH  31  34
ATOM     34  C   UNL     1      -0.696  -0.212  -0.072  0.00  0.00    +0.002 C 
ATOM     35  C   UNL     1      -2.202  -0.476  -0.126  0.00  0.00    +0.004 C 
ENDBRANCH  31  34
ENDBRANCH  20  31
ENDBRANCH   1  20
TORSDOF 10
