REMARK  Name = ZINC40464340
REMARK  10 active torsions:
REMARK  status: ('A' for Active; 'I' for Inactive)
REMARK    1  A    between atoms: C_1  and  O_2
REMARK    2  A    between atoms: O_2  and  C_3
REMARK    3  A    between atoms: C_3  and  C_5
REMARK    4  A    between atoms: C_10  and  N_11
REMARK    5  A    between atoms: C_12  and  C_14
REMARK    6  A    between atoms: C_14  and  C_16
REMARK    7  A    between atoms: C_14  and  N_20
REMARK    8  A    between atoms: C_16  and  C_17
REMARK    9  A    between atoms: C_17  and  S_18
REMARK   10  A    between atoms: S_18  and  C_19
REMARK                            x       y       z     vdW  Elec       q    Type
REMARK                         _______ _______ _______ _____ _____    ______ ____
ROOT
ATOM      1  N   UNL     1      -3.715  -2.119   0.211  0.00  0.00    -0.285 N 
ATOM      2  C   UNL     1      -4.883  -2.784   0.109  0.00  0.00    +0.203 C 
ATOM      3  O   UNL     1      -4.886  -3.993   0.015  0.00  0.00    -0.277 OA
ATOM      4  H   UNL     1      -3.713  -1.157   0.337  0.00  0.00    +0.155 HD
ENDROOT
BRANCH   1  10
ATOM      5  C   UNL     1      -1.653  -2.863   1.246  0.00  0.00    +0.082 A 
ATOM      6  C   UNL     1      -0.449  -3.567   1.159  0.00  0.00    +0.032 A 
ATOM      7  C   UNL     1      -0.107  -4.202  -0.016  0.00  0.00    +0.020 A 
ATOM      8  C   UNL     1      -0.953  -4.146  -1.113  0.00  0.00    +0.032 A 
ATOM      9  C   UNL     1      -2.145  -3.454  -1.042  0.00  0.00    +0.041 A 
ATOM     10  C   UNL     1      -2.509  -2.813   0.135  0.00  0.00    +0.062 A 
ATOM     11 BR   UNL     1      -3.288  -3.385  -2.547  0.00  0.00    -0.048 Br
ATOM     12 BR   UNL     1       1.522  -5.154  -0.131  0.00  0.00    -0.050 Br
BRANCH   5  13
ATOM     13  C   UNL     1      -2.025  -2.182   2.499  0.00  0.00    +0.341 C 
ATOM     14  O   UNL     1      -3.119  -1.665   2.608  0.00  0.00    -0.245 OA
BRANCH  13  16
ATOM     15  C   UNL     1      -1.579  -1.458   4.709  0.00  0.00    +0.280 C 
ATOM     16  O   UNL     1      -1.152  -2.134   3.524  0.00  0.00    -0.464 OA
ENDBRANCH  13  16
ENDBRANCH   5  13
ENDBRANCH   1  10
BRANCH   2  17
ATOM     17  C   UNL     1      -6.184  -2.025   0.112  0.00  0.00    +0.014 C 
BRANCH  17  18
ATOM     18  N   UNL     1      -7.240  -2.861  -0.473  0.00  0.00    +0.386 N 
ATOM     19  H   UNL     1      -8.112  -2.353  -0.472  0.00  0.00    -0.089 HD
ATOM     20  H   UNL     1      -6.993  -3.101  -1.422  0.00  0.00    -0.089 HD
ATOM     21  H   UNL     1      -7.342  -3.705   0.071  0.00  0.00    -0.089 HD
ENDBRANCH  17  18
BRANCH  17  22
ATOM     22  C   UNL     1      -6.560  -1.662   1.550  0.00  0.00    +0.003 C 
BRANCH  22  23
ATOM     23  C   UNL     1      -7.814  -0.786   1.544  0.00  0.00    +0.068 C 
BRANCH  23  24
ATOM     24  S   UNL     1      -8.259  -0.355   3.249  0.00  0.00    -0.164 S 
ATOM     25  C   UNL     1      -9.745   0.670   3.069  0.00  0.00    +0.084 C 
ENDBRANCH  23  24
ENDBRANCH  22  23
ENDBRANCH  17  22
ENDBRANCH   2  17
TORSDOF 8
