REMARK  Name = ZINC09504688
REMARK  8 active torsions:
REMARK  status: ('A' for Active; 'I' for Inactive)
REMARK    1  A    between atoms: C_1  and  C_2
REMARK    2  A    between atoms: C_2  and  C_38
REMARK    3  A    between atoms: C_6  and  C_27
REMARK    4  A    between atoms: N_8  and  C_16
REMARK    5  A    between atoms: C_16  and  C_17
REMARK    6  A    between atoms: N_19  and  C_20
REMARK    7  A    between atoms: C_30  and  O_33
REMARK    8  A    between atoms: O_33  and  C_34
REMARK                            x       y       z     vdW  Elec       q    Type
REMARK                         _______ _______ _______ _____ _____    ______ ____
ROOT
ATOM      1  C   UNL     1       1.767   0.662   3.154  0.00  0.00    +0.011 C 
ATOM      2  C   UNL     1       2.212  -0.009   1.853  0.00  0.00    -0.023 C 
ATOM      3  C   UNL     1       3.361   0.783   1.228  0.00  0.00    +0.058 C 
ATOM      4  C   UNL     1       2.905   2.199   0.928  0.00  0.00    +0.017 C 
ATOM      5  C   UNL     1       1.633   2.453   0.570  0.00  0.00    +0.037 C 
ATOM      6  C   UNL     1       1.062   3.799   0.195  0.00  0.00    +0.139 C 
ATOM      7  N   UNL     1       2.038   4.840  -0.031  0.00  0.00    -0.308 N 
ATOM      8  C   UNL     1       2.722   5.239   1.112  0.00  0.00    +0.052 A 
ATOM      9  C   UNL     1       2.478   6.480   1.687  0.00  0.00    +0.025 A 
ATOM     10  C   UNL     1       3.140   6.832   2.850  0.00  0.00    +0.002 A 
ATOM     11  C   UNL     1       4.037   5.959   3.438  0.00  0.00    +0.002 A 
ATOM     12  C   UNL     1       4.288   4.726   2.862  0.00  0.00    +0.025 A 
ATOM     13  C   UNL     1       3.630   4.378   1.694  0.00  0.00    +0.052 A 
ATOM     14  N   UNL     1       3.856   3.160   1.059  0.00  0.00    -0.316 N 
ATOM     15  C   UNL     1       0.694   1.396   0.511  0.00  0.00    +0.163 C 
ATOM     16  O   UNL     1      -0.445   1.644   0.167  0.00  0.00    -0.292 OA
ATOM     17  C   UNL     1       1.052  -0.019   0.850  0.00  0.00    +0.086 C 
ATOM     18  C   UNL     1       2.666  -1.442   2.136  0.00  0.00    +0.011 C 
ATOM     19  H   UNL     1       4.737   2.989   0.691  0.00  0.00    +0.152 HD
ENDROOT
BRANCH   6  20
ATOM     20  C   UNL     1       0.138   4.247   1.298  0.00  0.00    -0.022 A 
ATOM     21  C   UNL     1       0.617   4.376   2.589  0.00  0.00    +0.009 A 
ATOM     22  C   UNL     1      -0.227   4.792   3.600  0.00  0.00    +0.046 A 
ATOM     23  C   UNL     1      -1.558   5.069   3.323  0.00  0.00    +0.120 A 
ATOM     24  C   UNL     1      -2.037   4.933   2.028  0.00  0.00    +0.046 A 
ATOM     25  C   UNL     1      -1.187   4.522   1.018  0.00  0.00    +0.009 A 
BRANCH  23  26
ATOM     26  O   UNL     1      -2.391   5.473   4.317  0.00  0.00    -0.495 OA
ATOM     27  C   UNL     1      -1.829   5.591   5.626  0.00  0.00    +0.277 C 
ENDBRANCH  23  26
ENDBRANCH   6  20
BRANCH   7  28
ATOM     28  C   UNL     1       1.431   5.992  -0.710  0.00  0.00    +0.202 C 
BRANCH  28  29
ATOM     29  C   UNL     1       2.517   6.895  -1.236  0.00  0.00    +0.235 C 
ATOM     30  O   UNL     1       3.680   6.564  -1.141  0.00  0.00    -0.274 OA
ATOM     31  N   UNL     1       2.197   8.071  -1.810  0.00  0.00    -0.284 N 
ATOM     32  H   UNL     1       1.273   8.368  -1.825  0.00  0.00    +0.155 HD
BRANCH  31  33
ATOM     33  C   UNL     1       3.196   8.864  -2.386  0.00  0.00    +0.034 A 
ATOM     34  C   UNL     1       3.094  10.249  -2.348  0.00  0.00    +0.025 A 
ATOM     35  C   UNL     1       4.084  11.029  -2.912  0.00  0.00    +0.022 A 
ATOM     36  C   UNL     1       5.171  10.432  -3.525  0.00  0.00    +0.041 A 
ATOM     37  C   UNL     1       5.273   9.053  -3.570  0.00  0.00    +0.022 A 
ATOM     38  C   UNL     1       4.289   8.268  -3.002  0.00  0.00    +0.025 A 
ATOM     39 CL   UNL     1       6.411  11.416  -4.240  0.00  0.00    -0.084 Cl
ENDBRANCH  31  33
ENDBRANCH  28  29
ENDBRANCH   7  28
TORSDOF 5
