REMARK  Name = ZINC04236953
REMARK  9 active torsions:
REMARK  status: ('A' for Active; 'I' for Inactive)
REMARK    1  A    between atoms: C_1  and  C_2
REMARK    2  A    between atoms: C_7  and  C_36
REMARK    3  A    between atoms: C_12  and  O_29
REMARK    4  A    between atoms: C_14  and  C_16
REMARK    5  A    between atoms: C_16  and  C_17
REMARK    6  A    between atoms: N_19  and  C_20
REMARK    7  A    between atoms: C_20  and  C_21
REMARK    8  A    between atoms: C_32  and  C_35
REMARK    9  A    between atoms: C_35  and  N_66
REMARK                            x       y       z     vdW  Elec       q    Type
REMARK                         _______ _______ _______ _____ _____    ______ ____
ROOT
ATOM      1  C   UNL     1      -0.039   7.213   5.131  0.00  0.00    +0.012 C 
ATOM      2  C   UNL     1       1.173   7.940   4.518  0.00  0.00    -0.023 C 
ATOM      3  C   UNL     1       0.742   9.331   4.056  0.00  0.00    +0.010 C 
ATOM      4  C   UNL     1       0.426  10.239   5.241  0.00  0.00    +0.033 C 
ATOM      5  C   UNL     1       1.665  10.367   6.127  0.00  0.00    +0.130 C 
ATOM      6  C   UNL     1       2.043   8.983   6.665  0.00  0.00    +0.021 C 
ATOM      7  C   UNL     1       2.314   8.013   5.520  0.00  0.00    +0.006 C 
ATOM      8  C   UNL     1       3.616   8.438   4.831  0.00  0.00    +0.007 C 
ATOM      9  C   UNL     1       3.959   7.504   3.670  0.00  0.00    +0.032 C 
ATOM     10  C   UNL     1       2.835   7.565   2.638  0.00  0.00    +0.119 C 
ATOM     11  C   UNL     1       1.532   7.114   3.275  0.00  0.00    +0.032 C 
ATOM     12  C   UNL     1       0.944   8.520   7.622  0.00  0.00    +0.172 C 
ATOM     13  O   UNL     1       0.900   9.491   8.691  0.00  0.00    -0.353 OA
ATOM     14  C   UNL     1       0.494  10.780   8.211  0.00  0.00    +0.233 C 
ATOM     15  O   UNL     1       1.401  11.247   7.218  0.00  0.00    -0.349 OA
ATOM     16  C   UNL     1       3.319   9.144   7.516  0.00  0.00    +0.016 C 
ENDROOT
BRANCH  10  17
ATOM     17  O   UNL     1       3.157   6.710   1.536  0.00  0.00    -0.391 OA
ATOM     18  H   UNL     1       3.979   6.944   1.084  0.00  0.00    +0.210 HD
ENDBRANCH  10  17
BRANCH  11  19
ATOM     19  C   UNL     1       1.590   5.631   3.639  0.00  0.00    +0.102 C 
BRANCH  19  20
ATOM     20  C   UNL     1       1.587   4.803   2.380  0.00  0.00    +0.214 C 
ATOM     21  O   UNL     1       1.374   5.331   1.308  0.00  0.00    -0.276 OA
ATOM     22  N   UNL     1       1.820   3.477   2.444  0.00  0.00    -0.311 N 
ATOM     23  H   UNL     1       1.990   3.056   3.301  0.00  0.00    +0.149 HD
BRANCH  22  24
ATOM     24  C   UNL     1       1.817   2.673   1.219  0.00  0.00    +0.139 C 
BRANCH  24  25
ATOM     25  C   UNL     1       2.101   1.234   1.563  0.00  0.00    -0.025 A 
ATOM     26  C   UNL     1       1.058   0.374   1.855  0.00  0.00    +0.043 A 
ATOM     27  C   UNL     1       1.319  -0.949   2.170  0.00  0.00    +0.126 A 
ATOM     28  C   UNL     1       2.623  -1.410   2.194  0.00  0.00    +0.076 A 
ATOM     29  C   UNL     1       3.667  -0.549   1.901  0.00  0.00    +0.126 A 
ATOM     30  C   UNL     1       3.404   0.774   1.586  0.00  0.00    +0.043 A 
ATOM     31  F   UNL     1       4.941  -0.998   1.924  0.00  0.00    -0.205 F 
ATOM     32  F   UNL     1       0.299  -1.788   2.455  0.00  0.00    -0.205 F 
ENDBRANCH  24  25
ENDBRANCH  22  24
ENDBRANCH  19  20
ENDBRANCH  11  19
BRANCH  14  33
ATOM     33  C   UNL     1       0.470  11.763   9.385  0.00  0.00    -0.024 C 
BRANCH  33  36
ATOM     34  H   UNL     1       2.495  12.116   9.281  0.00  0.00    -0.090 HD
ATOM     35  H   UNL     1       1.822  12.498  10.752  0.00  0.00    -0.090 HD
ATOM     36  N   UNL     1       1.815  11.830   9.983  0.00  0.00    +0.381 N 
ATOM     37  H   UNL     1       2.072  10.903  10.341  0.00  0.00    -0.090 HD
ENDBRANCH  33  36
ENDBRANCH  14  33
TORSDOF 7
