REMARK  Name = ZINC04191656
REMARK  13 active torsions:
REMARK  status: ('A' for Active; 'I' for Inactive)
REMARK    1  A    between atoms: C_1  and  C_2
REMARK    2  A    between atoms: C_2  and  C_3
REMARK    3  A    between atoms: C_6  and  N_9
REMARK    4  A    between atoms: N_9  and  C_10
REMARK    5  A    between atoms: C_10  and  C_12
REMARK    6  A    between atoms: C_10  and  C_13
REMARK    7  A    between atoms: N_15  and  C_16
REMARK    8  A    between atoms: C_16  and  C_17
REMARK    9  A    between atoms: C_16  and  C_18
REMARK   10  A    between atoms: C_16  and  C_19
REMARK   11  A    between atoms: C_20  and  C_22
REMARK   12  A    between atoms: C_23  and  N_30
REMARK   13  A    between atoms: C_24  and  C_27
REMARK                            x       y       z     vdW  Elec       q    Type
REMARK                         _______ _______ _______ _____ _____    ______ ____
ROOT
ATOM      1  N   UNL     1      -2.218   2.826   4.354  0.00  0.00    -0.255 N 
ATOM      2  C   UNL     1      -3.471   2.370   4.156  0.00  0.00    +0.261 C 
ATOM      3  O   UNL     1      -3.862   2.135   3.028  0.00  0.00    -0.269 OA
ENDROOT
BRANCH   1   7
ATOM      4  C   UNL     1       0.237   3.651   1.092  0.00  0.00    -0.048 A 
ATOM      5  C   UNL     1       0.693   3.887   2.376  0.00  0.00    +0.005 A 
ATOM      6  C   UNL     1      -0.120   3.620   3.459  0.00  0.00    +0.024 A 
ATOM      7  C   UNL     1      -1.394   3.103   3.259  0.00  0.00    +0.037 A 
ATOM      8  C   UNL     1      -1.847   2.863   1.968  0.00  0.00    +0.024 A 
ATOM      9  C   UNL     1      -1.030   3.137   0.889  0.00  0.00    +0.005 A 
BRANCH   4  11
ATOM     10  C   UNL     1       0.893   5.389  -0.551  0.00  0.00    +0.009 C 
ATOM     11  C   UNL     1       1.125   3.949  -0.088  0.00  0.00    +0.032 C 
ENDBRANCH   4  11
ENDBRANCH   1   7
BRANCH   2  12
ATOM     12  C   UNL     1      -4.361   2.156   5.299  0.00  0.00    +0.116 A 
ATOM     13  C   UNL     1      -5.312   1.155   5.504  0.00  0.00    +0.076 A 
ATOM     14  C   UNL     1      -5.970   1.286   6.728  0.00  0.00    +0.155 A 
ATOM     15  N   UNL     1      -5.650   2.281   7.526  0.00  0.00    -0.203 NA
ATOM     16  S   UNL     1      -4.514   3.098   6.802  0.00  0.00    +0.019 S 
BRANCH  14  17
ATOM     17  C   UNL     1      -7.011   0.320   7.121  0.00  0.00    +0.262 C 
ATOM     18  O   UNL     1      -7.302  -0.597   6.377  0.00  0.00    -0.269 OA
ATOM     19  N   UNL     1      -7.642   0.453   8.305  0.00  0.00    -0.324 N 
ATOM     20  H   UNL     1      -7.410   1.185   8.898  0.00  0.00    +0.145 HD
ATOM     21  H   UNL     1      -8.327  -0.182   8.564  0.00  0.00    +0.145 HD
ENDBRANCH  14  17
BRANCH  13  22
ATOM     22  N   UNL     1      -5.575   0.142   4.592  0.00  0.00    -0.355 N 
ATOM     23  H   UNL     1      -5.085   0.102   3.756  0.00  0.00    +0.142 HD
ATOM     24  H   UNL     1      -6.250  -0.526   4.791  0.00  0.00    +0.142 HD
ENDBRANCH  13  22
ENDBRANCH   2  12
BRANCH   1  25
ATOM     25  C   UNL     1      -1.720   3.032   5.716  0.00  0.00    +0.164 C 
ATOM     26  C   UNL     1      -1.473   4.524   5.949  0.00  0.00    +0.038 C 
BRANCH  25  27
ATOM     27  C   UNL     1      -0.430   2.275   5.899  0.00  0.00    +0.234 C 
ATOM     28  O   UNL     1       0.002   1.585   4.999  0.00  0.00    -0.274 OA
ATOM     29  N   UNL     1       0.244   2.363   7.062  0.00  0.00    -0.309 N 
ATOM     30  H   UNL     1      -0.101   2.914   7.782  0.00  0.00    +0.149 HD
BRANCH  29  31
ATOM     31  C   UNL     1       1.498   1.627   7.240  0.00  0.00    +0.026 C 
ATOM     32  C   UNL     1       2.512   2.085   6.190  0.00  0.00    +0.031 C 
ATOM     33  C   UNL     1       2.055   1.899   8.639  0.00  0.00    +0.031 C 
ATOM     34  C   UNL     1       1.238   0.128   7.077  0.00  0.00    +0.031 C 
ENDBRANCH  29  31
ENDBRANCH  25  27
ENDBRANCH   1  25
TORSDOF 8
