REMARK  Name = ZINC39939411
REMARK  7 active torsions:
REMARK  status: ('A' for Active; 'I' for Inactive)
REMARK    1  A    between atoms: C_4  and  N_9
REMARK    2  A    between atoms: C_5  and  C_7
REMARK    3  A    between atoms: C_10  and  C_12
REMARK    4  A    between atoms: C_12  and  S_13
REMARK    5  A    between atoms: S_13  and  C_14
REMARK    6  A    between atoms: C_18  and  C_23
REMARK    7  A    between atoms: N_19  and  C_20
REMARK                            x       y       z     vdW  Elec       q    Type
REMARK                         _______ _______ _______ _____ _____    ______ ____
ROOT
ATOM      1  C   UNL     1       8.942  -0.459  -0.547  0.00  0.00    +0.237 C 
ATOM      2  N   UNL     1       8.832  -1.362  -1.704  0.00  0.00    -0.237 N 
ATOM      3  N   UNL     1       8.903  -2.666  -1.199  0.00  0.00    -0.169 NA
ATOM      4  C   UNL     1       9.040  -2.665   0.100  0.00  0.00    +0.147 C 
ATOM      5  N   UNL     1       9.078  -1.361   0.609  0.00  0.00    -0.282 N 
ATOM      6  H   UNL     1       8.730  -1.105  -2.634  0.00  0.00    +0.171 HD
ENDROOT
BRANCH   4   7
ATOM      7  C   UNL     1       9.138  -3.823   0.886  0.00  0.00    +0.022 C 
ATOM      8  C   UNL     1       9.206  -5.143   0.439  0.00  0.00    +0.006 A 
ATOM      9  C   UNL     1       9.200  -5.713  -0.852  0.00  0.00    +0.010 A 
ATOM     10  C   UNL     1       9.280  -7.062  -0.993  0.00  0.00    +0.001 A 
ATOM     11  C   UNL     1       9.370  -7.909   0.114  0.00  0.00    +0.002 A 
ATOM     12  C   UNL     1       9.380  -7.430   1.382  0.00  0.00    +0.026 A 
ATOM     13  C   UNL     1       9.300  -6.031   1.609  0.00  0.00    +0.043 A 
ATOM     14  N   UNL     1       9.292  -5.327   2.724  0.00  0.00    -0.380 N 
ATOM     15  C   UNL     1       9.199  -3.902   2.396  0.00  0.00    +0.152 C 
ATOM     16  H   UNL     1       9.344  -5.695   3.620  0.00  0.00    +0.160 HD
ENDBRANCH   4   7
BRANCH   5  17
ATOM     17  C   UNL     1       9.223  -0.969   2.013  0.00  0.00    +0.078 C 
ATOM     18  C   UNL     1       9.159   0.524   2.340  0.00  0.00    +0.024 C 
ATOM     19  C   UNL     1      10.496  -0.217   2.409  0.00  0.00    +0.024 C 
ENDBRANCH   5  17
BRANCH   1  20
ATOM     20  S   UNL     1       7.446   0.554  -0.388  0.00  0.00    -0.109 S 
BRANCH  20  21
ATOM     21  C   UNL     1       6.104  -0.660  -0.266  0.00  0.00    +0.168 C 
BRANCH  21  23
ATOM     22  N   UNL     1       3.643  -0.645  -0.021  0.00  0.00    -0.284 N 
ATOM     23  C   UNL     1       4.787   0.059  -0.128  0.00  0.00    +0.227 C 
ATOM     24  O   UNL     1       4.757   1.272  -0.113  0.00  0.00    -0.275 OA
ATOM     25  H   UNL     1       3.673  -1.612   0.049  0.00  0.00    +0.155 HD
BRANCH  22  29
ATOM     26  C   UNL     1      -0.029   1.335   0.008  0.00  0.00    +0.001 A 
ATOM     27  C   UNL     1       1.075   1.919  -0.592  0.00  0.00    +0.002 A 
ATOM     28  C   UNL     1       2.292   1.266  -0.603  0.00  0.00    +0.024 A 
ATOM     29  C   UNL     1       2.416   0.017  -0.011  0.00  0.00    +0.051 A 
ATOM     30  C   UNL     1       1.300  -0.577   0.598  0.00  0.00    +0.073 A 
ATOM     31  C   UNL     1       0.076   0.096   0.601  0.00  0.00    +0.021 A 
BRANCH  30  32
ATOM     32  C   UNL     1       1.415  -1.866   1.212  0.00  0.00    +0.101 C 
ATOM     33  N   UNL     1       1.506  -2.888   1.699  0.00  0.00    -0.191 NA
ENDBRANCH  30  32
ENDBRANCH  22  29
ENDBRANCH  21  23
ENDBRANCH  20  21
ENDBRANCH   1  20
TORSDOF 7
