REMARK  Name = ZINC14703427
REMARK  10 active torsions:
REMARK  status: ('A' for Active; 'I' for Inactive)
REMARK    1  A    between atoms: C_1  and  C_2
REMARK    2  A    between atoms: C_5  and  N_9
REMARK    3  A    between atoms: C_10  and  C_12
REMARK    4  A    between atoms: C_12  and  C_14
REMARK    5  A    between atoms: C_12  and  O_20
REMARK    6  A    between atoms: O_20  and  C_21
REMARK    7  A    between atoms: C_21  and  C_23
REMARK    8  A    between atoms: C_25  and  S_30
REMARK    9  A    between atoms: S_30  and  N_33
REMARK   10  A    between atoms: N_33  and  C_34
REMARK                            x       y       z     vdW  Elec       q    Type
REMARK                         _______ _______ _______ _____ _____    ______ ____
ROOT
ATOM      1  C   UNL     1      -3.924   0.313  -6.111  0.00  0.00    +0.292 C 
ENDROOT
BRANCH   1   2
ATOM      2  C   UNL     1      -2.859  -0.378  -6.923  0.00  0.00    +0.002 A 
ATOM      3  C   UNL     1      -1.881  -1.123  -6.290  0.00  0.00    +0.008 A 
ATOM      4  C   UNL     1      -0.907  -1.760  -7.036  0.00  0.00    +0.000 A 
ATOM      5  C   UNL     1      -0.906  -1.645  -8.414  0.00  0.00    +0.000 A 
ATOM      6  C   UNL     1      -1.880  -0.896  -9.046  0.00  0.00    +0.000 A 
ATOM      7  C   UNL     1      -2.857  -0.262  -8.300  0.00  0.00    +0.008 A 
ENDBRANCH   1   2
BRANCH   1   9
ATOM      8  N   UNL     1      -5.681  -1.329  -6.688  0.00  0.00    -0.282 N 
ATOM      9  C   UNL     1      -4.989  -0.682  -5.729  0.00  0.00    +0.263 C 
ATOM     10  O   UNL     1      -5.225  -0.899  -4.560  0.00  0.00    -0.271 OA
ATOM     11  H   UNL     1      -5.540  -1.107  -7.622  0.00  0.00    +0.155 HD
BRANCH   8  16
ATOM     12  C   UNL     1      -9.414  -5.358  -5.266  0.00  0.00    +0.045 C 
ATOM     13  C   UNL     1      -8.423  -4.288  -5.643  0.00  0.00    -0.032 A 
ATOM     14  C   UNL     1      -7.678  -4.415  -6.802  0.00  0.00    +0.006 A 
ATOM     15  C   UNL     1      -6.773  -3.433  -7.154  0.00  0.00    +0.023 A 
ATOM     16  C   UNL     1      -6.601  -2.323  -6.337  0.00  0.00    +0.035 A 
ATOM     17  C   UNL     1      -7.349  -2.198  -5.174  0.00  0.00    +0.043 A 
ATOM     18  C   UNL     1      -8.258  -3.181  -4.830  0.00  0.00    +0.046 A 
ATOM     19 CL   UNL     1      -9.194  -3.026  -3.376  0.00  0.00    -0.083 Cl
ENDBRANCH   8  16
ENDBRANCH   1   9
BRANCH   1  20
ATOM     20  O   UNL     1      -3.330   0.871  -4.909  0.00  0.00    -0.443 OA
BRANCH  20  21
ATOM     21  C   UNL     1      -2.860   2.131  -4.986  0.00  0.00    +0.343 C 
ATOM     22  O   UNL     1      -2.944   2.747  -6.030  0.00  0.00    -0.245 OA
BRANCH  21  23
ATOM     23  C   UNL     1      -2.243   2.762  -3.804  0.00  0.00    +0.096 A 
ATOM     24  C   UNL     1      -2.144   2.057  -2.602  0.00  0.00    +0.046 A 
ATOM     25  C   UNL     1      -1.566   2.653  -1.502  0.00  0.00    +0.106 A 
ATOM     26  C   UNL     1      -1.088   3.950  -1.582  0.00  0.00    +0.031 A 
ATOM     27  C   UNL     1      -1.176   4.654  -2.768  0.00  0.00    +0.041 A 
ATOM     28  C   UNL     1      -1.753   4.070  -3.881  0.00  0.00    +0.137 A 
ATOM     29  F   UNL     1      -1.843   4.761  -5.038  0.00  0.00    -0.205 F 
BRANCH  25  30
ATOM     30  S   UNL     1      -1.441   1.763   0.014  0.00  0.00    +0.058 S 
ATOM     31  O   UNL     1      -2.457   0.769  -0.013  0.00  0.00    -0.153 OA
ATOM     32  O   UNL     1      -1.353   2.734   1.048  0.00  0.00    -0.153 OA
BRANCH  30  33
ATOM     33  N   UNL     1       0.007   0.961  -0.006  0.00  0.00    -0.193 NA
ATOM     34  C   UNL     1       1.263   1.716  -0.017  0.00  0.00    +0.127 C 
ATOM     35  H   UNL     1       0.024  -0.009  -0.016  0.00  0.00    +0.148 HD
ENDBRANCH  30  33
ENDBRANCH  25  30
ENDBRANCH  21  23
ENDBRANCH  20  21
ENDBRANCH   1  20
TORSDOF 8
