REMARK  Name = ZINC12475181
REMARK  6 active torsions:
REMARK  status: ('A' for Active; 'I' for Inactive)
REMARK    1  A    between atoms: C_1  and  C_2
REMARK    2  A    between atoms: C_5  and  C_8
REMARK    3  A    between atoms: C_8  and  N_60
REMARK    4  A    between atoms: C_14  and  C_16
REMARK    5  A    between atoms: C_16  and  C_17
REMARK    6  A    between atoms: N_19  and  C_20
REMARK                            x       y       z     vdW  Elec       q    Type
REMARK                         _______ _______ _______ _____ _____    ______ ____
ROOT
ATOM      1  C   UNL     1      -1.777  -0.514   1.363  0.00  0.00    -0.058 C 
ATOM      2  C   UNL     1      -1.893   0.223   0.028  0.00  0.00    +0.085 C 
ATOM      3  N   UNL     1      -1.492   1.617   0.190  0.00  0.00    -0.318 N 
ATOM      4  C   UNL     1      -0.768   2.050   1.228  0.00  0.00    +0.200 C 
ATOM      5  O   UNL     1      -0.452   3.220   1.268  0.00  0.00    -0.278 OA
ATOM      6  C   UNL     1      -0.332   1.147   2.347  0.00  0.00    +0.028 C 
ATOM      7  H   UNL     1      -1.762   2.259  -0.486  0.00  0.00    +0.149 HD
ATOM      8  N   UNL     1      -0.430  -0.259   1.911  0.00  0.00    +0.391 N 
ATOM      9  H   UNL     1       0.269  -0.433   1.179  0.00  0.00    -0.080 HD
ENDROOT
BRANCH   8  10
ATOM     10  C   UNL     1      -0.166  -1.163   3.054  0.00  0.00    -0.042 C 
BRANCH  10  15
ATOM     11  C   UNL     1      -1.001  -6.629   1.377  0.00  0.00    +0.044 C 
ATOM     12  C   UNL     1      -0.784  -5.203   1.814  0.00  0.00    -0.050 A 
ATOM     13  C   UNL     1       0.462  -4.620   1.674  0.00  0.00    +0.003 A 
ATOM     14  C   UNL     1       0.662  -3.312   2.075  0.00  0.00    +0.002 A 
ATOM     15  C   UNL     1      -0.384  -2.588   2.616  0.00  0.00    -0.064 A 
ATOM     16  C   UNL     1      -1.628  -3.173   2.760  0.00  0.00    +0.002 A 
ATOM     17  C   UNL     1      -1.829  -4.479   2.354  0.00  0.00    +0.003 A 
ENDBRANCH  10  15
ENDBRANCH   8  10
BRANCH   6  18
ATOM     18  C   UNL     1       1.123   1.455   2.709  0.00  0.00    +0.089 C 
BRANCH  18  19
ATOM     19  C   UNL     1       2.010   1.152   1.530  0.00  0.00    +0.212 C 
ATOM     20  O   UNL     1       1.542   0.638   0.535  0.00  0.00    -0.276 OA
ATOM     21  N   UNL     1       3.323   1.452   1.579  0.00  0.00    -0.312 N 
ATOM     22  H   UNL     1       3.697   1.863   2.374  0.00  0.00    +0.149 HD
BRANCH  21  23
ATOM     23  C   UNL     1       4.185   1.158   0.432  0.00  0.00    +0.073 C 
ATOM     24  C   UNL     1       4.664  -0.293   0.513  0.00  0.00    +0.022 C 
ATOM     25  C   UNL     1       5.219  -0.723  -0.846  0.00  0.00    +0.002 C 
ATOM     26  C   UNL     1       4.282  -0.243  -1.956  0.00  0.00    +0.000 C 
ATOM     27  C   UNL     1       4.990   0.825  -2.793  0.00  0.00    +0.000 C 
ATOM     28  C   UNL     1       5.013   2.145  -2.020  0.00  0.00    +0.000 C 
ATOM     29  C   UNL     1       6.075   2.074  -0.921  0.00  0.00    +0.002 C 
ATOM     30  C   UNL     1       5.394   2.095   0.449  0.00  0.00    +0.022 C 
ENDBRANCH  21  23
ENDBRANCH  18  19
ENDBRANCH   6  18
TORSDOF 5
