REMARK  Name = ZINC59170433
REMARK  7 active torsions:
REMARK  status: ('A' for Active; 'I' for Inactive)
REMARK    1  A    between atoms: C_1  and  C_2
REMARK    2  A    between atoms: C_6  and  N_8
REMARK    3  A    between atoms: C_9  and  C_11
REMARK    4  A    between atoms: C_16  and  O_32
REMARK    5  A    between atoms: N_21  and  C_22
REMARK    6  A    between atoms: C_25  and  S_28
REMARK    7  A    between atoms: S_28  and  N_31
REMARK                            x       y       z     vdW  Elec       q    Type
REMARK                         _______ _______ _______ _____ _____    ______ ____
ROOT
ATOM      1  C   UNL     1      -0.184  -4.857   3.637  0.00  0.00    +0.098 A 
ATOM      2  C   UNL     1      -0.153  -6.244   3.642  0.00  0.00    +0.030 A 
ATOM      3  C   UNL     1      -0.215  -6.911   4.892  0.00  0.00    +0.018 A 
ATOM      4  C   UNL     1       0.013  -8.293   4.971  0.00  0.00    +0.015 A 
ATOM      5  C   UNL     1      -0.008  -8.917   6.183  0.00  0.00    +0.046 A 
ATOM      6  C   UNL     1      -0.263  -8.193   7.347  0.00  0.00    +0.120 A 
ATOM      7  C   UNL     1      -0.511  -6.830   7.287  0.00  0.00    +0.092 A 
ATOM      8  C   UNL     1      -0.500  -6.182   6.063  0.00  0.00    +0.141 A 
ATOM      9  O   UNL     1      -0.784  -4.858   5.988  0.00  0.00    -0.438 OA
ATOM     10  C   UNL     1      -0.241  -4.175   4.945  0.00  0.00    +0.212 A 
ATOM     11  N   UNL     1       0.213  -2.949   5.094  0.00  0.00    -0.325 N 
ATOM     12  H   UNL     1       0.697  -2.520   4.371  0.00  0.00    +0.169 HD
ENDROOT
BRANCH  11  13
ATOM     13  C   UNL     1       0.004  -2.279   6.268  0.00  0.00    +0.042 A 
ATOM     14  C   UNL     1      -1.253  -2.309   6.877  0.00  0.00    +0.027 A 
ATOM     15  C   UNL     1      -1.458  -1.632   8.061  0.00  0.00    +0.030 A 
ATOM     16  C   UNL     1      -0.421  -0.924   8.645  0.00  0.00    +0.105 A 
ATOM     17  C   UNL     1       0.826  -0.890   8.047  0.00  0.00    +0.030 A 
ATOM     18  C   UNL     1       1.046  -1.568   6.866  0.00  0.00    +0.027 A 
BRANCH  16  19
ATOM     19  S   UNL     1      -0.692  -0.062  10.158  0.00  0.00    +0.056 S 
ATOM     20  O   UNL     1       0.283   0.971  10.217  0.00  0.00    -0.153 OA
ATOM     21  O   UNL     1      -2.086   0.202  10.231  0.00  0.00    -0.153 OA
BRANCH  19  22
ATOM     22  N   UNL     1      -0.343  -1.112  11.389  0.00  0.00    -0.204 NA
ATOM     23  H   UNL     1      -0.052  -2.015  11.189  0.00  0.00    +0.144 HD
ATOM     24  H   UNL     1      -0.431  -0.825  12.312  0.00  0.00    +0.144 HD
ENDBRANCH  19  22
ENDBRANCH  16  19
ENDBRANCH  11  13
BRANCH   1  26
ATOM     25  N   UNL     1      -0.330  -2.759   2.395  0.00  0.00    -0.281 N 
ATOM     26  C   UNL     1      -0.155  -4.095   2.378  0.00  0.00    +0.253 C 
ATOM     27  O   UNL     1       0.026  -4.672   1.323  0.00  0.00    -0.270 OA
ATOM     28  H   UNL     1      -0.420  -2.292   3.240  0.00  0.00    +0.155 HD
BRANCH  25  34
ATOM     29  C   UNL     1      -2.161   0.966  -0.239  0.00  0.00    +0.044 C 
ATOM     30  C   UNL     1      -1.262  -0.236  -0.112  0.00  0.00    -0.049 A 
ATOM     31  C   UNL     1      -0.486  -0.635  -1.185  0.00  0.00    +0.003 A 
ATOM     32  C   UNL     1       0.340  -1.738  -1.073  0.00  0.00    +0.002 A 
ATOM     33  C   UNL     1       0.394  -2.445   0.113  0.00  0.00    +0.023 A 
ATOM     34  C   UNL     1      -0.383  -2.046   1.193  0.00  0.00    +0.034 A 
ATOM     35  C   UNL     1      -1.209  -0.935   1.078  0.00  0.00    +0.026 A 
ENDBRANCH  25  34
ENDBRANCH   1  26
BRANCH   6  36
ATOM     36  O   UNL     1      -0.269  -8.827   8.547  0.00  0.00    -0.507 OA
ATOM     37  H   UNL     1       0.593  -8.850   8.984  0.00  0.00    +0.292 HD
ENDBRANCH   6  36
TORSDOF 6
