REMARK  Name = ZINC14902734
REMARK  10 active torsions:
REMARK  status: ('A' for Active; 'I' for Inactive)
REMARK    1  A    between atoms: C_1  and  C_2
REMARK    2  A    between atoms: C_4  and  N_7
REMARK    3  A    between atoms: C_8  and  C_10
REMARK    4  A    between atoms: C_10  and  S_11
REMARK    5  A    between atoms: S_11  and  C_12
REMARK    6  A    between atoms: N_22  and  C_23
REMARK    7  A    between atoms: C_23  and  C_24
REMARK    8  A    between atoms: C_24  and  C_25
REMARK    9  A    between atoms: C_28  and  S_31
REMARK   10  A    between atoms: S_31  and  N_34
REMARK                            x       y       z     vdW  Elec       q    Type
REMARK                         _______ _______ _______ _____ _____    ______ ____
ROOT
ATOM      1  C   UNL     1       0.122   0.990  -2.724  0.00  0.00    +0.173 A 
ATOM      2  N   UNL     1       1.165   0.280  -2.370  0.00  0.00    -0.223 NA
ATOM      3  C   UNL     1       1.978  -0.285  -3.285  0.00  0.00    +0.079 A 
ATOM      4  C   UNL     1       3.089  -1.046  -2.908  0.00  0.00    +0.028 A 
ATOM      5  C   UNL     1       3.889  -1.596  -3.869  0.00  0.00    +0.002 A 
ATOM      6  C   UNL     1       3.617  -1.410  -5.219  0.00  0.00    +0.001 A 
ATOM      7  C   UNL     1       2.538  -0.671  -5.619  0.00  0.00    +0.015 A 
ATOM      8  C   UNL     1       1.704  -0.098  -4.659  0.00  0.00    +0.065 A 
ATOM      9  C   UNL     1       0.532   0.706  -5.030  0.00  0.00    +0.262 A 
ATOM     10  O   UNL     1       0.245   0.903  -6.197  0.00  0.00    -0.267 OA
ATOM     11  N   UNL     1      -0.216   1.220  -4.027  0.00  0.00    -0.287 N 
ENDROOT
BRANCH   1  12
ATOM     12  S   UNL     1      -0.888   1.685  -1.458  0.00  0.00    -0.078 S 
BRANCH  12  13
ATOM     13  C   UNL     1      -0.013   1.086   0.008  0.00  0.00    +0.173 C 
BRANCH  13  15
ATOM     14  N   UNL     1      -0.242   1.246   2.466  0.00  0.00    -0.254 N 
ATOM     15  C   UNL     1      -0.718   1.572   1.248  0.00  0.00    +0.230 C 
ATOM     16  O   UNL     1      -1.714   2.256   1.150  0.00  0.00    -0.274 OA
ATOM     17  H   UNL     1       0.555   0.699   2.544  0.00  0.00    +0.158 HD
BRANCH  14  21
ATOM     18  C   UNL     1      -1.607   2.190   7.160  0.00  0.00    +0.069 C 
ATOM     19  C   UNL     1      -1.514   2.124   5.657  0.00  0.00    +0.082 A 
ATOM     20  C   UNL     1      -0.533   1.449   4.902  0.00  0.00    +0.092 A 
ATOM     21  C   UNL     1      -0.891   1.693   3.607  0.00  0.00    +0.224 A 
ATOM     22  O   UNL     1      -1.993   2.458   3.660  0.00  0.00    -0.339 OA
ATOM     23  N   UNL     1      -2.324   2.680   4.801  0.00  0.00    -0.081 NA
ENDBRANCH  14  21
ENDBRANCH  13  15
ENDBRANCH  12  13
ENDBRANCH   1  12
BRANCH  11  24
ATOM     24  C   UNL     1      -1.395   2.030  -4.340  0.00  0.00    +0.132 C 
BRANCH  24  25
ATOM     25  C   UNL     1      -0.990   3.502  -4.450  0.00  0.00    +0.057 C 
BRANCH  25  26
ATOM     26  C   UNL     1      -2.203   4.335  -4.773  0.00  0.00    -0.046 A 
ATOM     27  C   UNL     1      -2.546   4.576  -6.090  0.00  0.00    +0.005 A 
ATOM     28  C   UNL     1      -3.662   5.336  -6.386  0.00  0.00    +0.029 A 
ATOM     29  C   UNL     1      -4.429   5.864  -5.364  0.00  0.00    +0.105 A 
ATOM     30  C   UNL     1      -4.083   5.627  -4.047  0.00  0.00    +0.029 A 
ATOM     31  C   UNL     1      -2.970   4.863  -3.751  0.00  0.00    +0.005 A 
BRANCH  29  32
ATOM     32  S   UNL     1      -5.849   6.837  -5.741  0.00  0.00    +0.056 S 
ATOM     33  O   UNL     1      -6.268   6.456  -7.044  0.00  0.00    -0.153 OA
ATOM     34  O   UNL     1      -6.707   6.758  -4.611  0.00  0.00    -0.153 OA
BRANCH  32  35
ATOM     35  N   UNL     1      -5.349   8.412  -5.846  0.00  0.00    -0.204 NA
ATOM     36  H   UNL     1      -5.810   9.029  -6.436  0.00  0.00    +0.144 HD
ATOM     37  H   UNL     1      -4.595   8.718  -5.318  0.00  0.00    +0.144 HD
ENDBRANCH  32  35
ENDBRANCH  29  32
ENDBRANCH  25  26
ENDBRANCH  24  25
ENDBRANCH  11  24
TORSDOF 9
