REMARK  Name = ZINC58949307
REMARK  10 active torsions:
REMARK  status: ('A' for Active; 'I' for Inactive)
REMARK    1  A    between atoms: C_1  and  C_2
REMARK    2  A    between atoms: N_7  and  C_9
REMARK    3  A    between atoms: C_9  and  C_10
REMARK    4  A    between atoms: C_13  and  C_16
REMARK    5  A    between atoms: C_16  and  N_17
REMARK    6  A    between atoms: C_18  and  C_20
REMARK    7  A    between atoms: C_20  and  C_21
REMARK    8  A    between atoms: C_21  and  C_22
REMARK    9  A    between atoms: C_22  and  N_23
REMARK   10  A    between atoms: N_26  and  C_27
REMARK                            x       y       z     vdW  Elec       q    Type
REMARK                         _______ _______ _______ _____ _____    ______ ____
ROOT
ATOM      1  N   UNL     1       1.359  -8.702   0.903  0.00  0.00    -0.311 N 
ATOM      2  C   UNL     1       1.347 -10.021   0.628  0.00  0.00    +0.213 C 
ATOM      3  O   UNL     1       1.901 -10.802   1.373  0.00  0.00    -0.276 OA
ATOM      4  H   UNL     1       0.917  -8.078   0.306  0.00  0.00    +0.149 HD
ENDROOT
BRANCH   1   5
ATOM      5  C   UNL     1       2.042  -8.210   2.102  0.00  0.00    +0.139 C 
BRANCH   5   9
ATOM      6  C   UNL     1       1.666  -3.960   2.315  0.00  0.00    -0.064 A 
ATOM      7  C   UNL     1       0.713  -4.769   2.905  0.00  0.00    +0.002 A 
ATOM      8  C   UNL     1       0.834  -6.144   2.837  0.00  0.00    +0.005 A 
ATOM      9  C   UNL     1       1.909  -6.711   2.177  0.00  0.00    -0.030 A 
ATOM     10  C   UNL     1       2.861  -5.902   1.585  0.00  0.00    +0.005 A 
ATOM     11  C   UNL     1       2.737  -4.527   1.651  0.00  0.00    +0.002 A 
BRANCH   6  12
ATOM     12  C   UNL     1       1.534  -2.461   2.390  0.00  0.00    -0.043 C 
BRANCH  12  18
ATOM     13  C   UNL     1      -0.019   1.526   0.010  0.00  0.00    +0.005 C 
ATOM     14  C   UNL     1       0.002  -0.004   0.002  0.00  0.00    -0.031 C 
ATOM     15  C   UNL     1      -1.434  -0.535   0.015  0.00  0.00    -0.001 C 
ATOM     16  C   UNL     1      -1.402  -2.064   0.086  0.00  0.00    -0.018 C 
ATOM     17  C   UNL     1      -0.613  -2.496   1.324  0.00  0.00    -0.078 C 
ATOM     18  N   UNL     1       0.758  -1.980   1.239  0.00  0.00    +0.383 N 
ATOM     19  C   UNL     1       0.740  -0.512   1.242  0.00  0.00    -0.075 C 
ATOM     20  H   UNL     1       1.188  -2.307   0.386  0.00  0.00    -0.081 HD
ENDBRANCH  12  18
ENDBRANCH   6  12
ENDBRANCH   5   9
ENDBRANCH   1   5
BRANCH   2  21
ATOM     21  C   UNL     1       0.645 -10.527  -0.606  0.00  0.00    +0.097 C 
BRANCH  21  22
ATOM     22  C   UNL     1       0.780 -12.050  -0.681  0.00  0.00    +0.028 C 
BRANCH  22  23
ATOM     23  C   UNL     1       0.068 -12.563  -1.934  0.00  0.00    +0.106 C 
BRANCH  23  24
ATOM     24  N   UNL     1       0.197 -14.021  -2.006  0.00  0.00    -0.299 N 
ATOM     25  C   UNL     1      -0.357 -14.696  -3.033  0.00  0.00    +0.300 C 
ATOM     26  O   UNL     1      -0.963 -14.096  -3.899  0.00  0.00    -0.253 OA
ATOM     27  N   UNL     1      -0.238 -16.037  -3.099  0.00  0.00    -0.297 N 
ATOM     28  H   UNL     1       0.681 -14.500  -1.315  0.00  0.00    +0.150 HD
ATOM     29  H   UNL     1       0.246 -16.516  -2.409  0.00  0.00    +0.151 HD
BRANCH  27  30
ATOM     30  C   UNL     1      -0.839 -16.771  -4.215  0.00  0.00    +0.074 C 
ATOM     31  C   UNL     1      -2.308 -17.064  -3.901  0.00  0.00    +0.022 C 
ATOM     32  C   UNL     1      -2.936 -17.831  -5.066  0.00  0.00    +0.002 C 
ATOM     33  C   UNL     1      -2.186 -19.149  -5.273  0.00  0.00    +0.000 C 
ATOM     34  C   UNL     1      -0.718 -18.856  -5.587  0.00  0.00    +0.002 C 
ATOM     35  C   UNL     1      -0.090 -18.089  -4.422  0.00  0.00    +0.022 C 
ENDBRANCH  27  30
ENDBRANCH  23  24
ENDBRANCH  22  23
ENDBRANCH  21  22
ENDBRANCH   2  21
TORSDOF 9
