REMARK  Name = ZINC08747160
REMARK  6 active torsions:
REMARK  status: ('A' for Active; 'I' for Inactive)
REMARK    1  A    between atoms: C_1  and  C_2
REMARK    2  A    between atoms: C_8  and  C_10
REMARK    3  A    between atoms: C_10  and  C_12
REMARK    4  A    between atoms: C_10  and  N_18
REMARK    5  A    between atoms: N_18  and  C_19
REMARK    6  A    between atoms: C_28  and  C_31
REMARK                            x       y       z     vdW  Elec       q    Type
REMARK                         _______ _______ _______ _____ _____    ______ ____
ROOT
ATOM      1  C   UNL     1       2.451   3.937  -0.001  0.00  0.00    +0.188 C 
ENDROOT
BRANCH   1   9
ATOM      2  C   UNL     1       3.802   6.333  -6.413  0.00  0.00    +0.089 C 
ATOM      3  C   UNL     1       3.559   5.200  -5.449  0.00  0.00    +0.136 A 
ATOM      4  C   UNL     1       3.310   5.306  -4.124  0.00  0.00    +0.091 A 
ATOM      5  C   UNL     1       3.160   3.961  -3.695  0.00  0.00    +0.168 A 
ATOM      6  N   UNL     1       3.332   3.218  -4.756  0.00  0.00    -0.063 NA
ATOM      7  O   UNL     1       3.549   3.891  -5.737  0.00  0.00    -0.358 OA
ATOM      8  N   UNL     1       2.890   3.520  -2.399  0.00  0.00    -0.266 N 
ATOM      9  C   UNL     1       2.743   4.413  -1.400  0.00  0.00    +0.243 C 
ATOM     10  O   UNL     1       2.846   5.599  -1.628  0.00  0.00    -0.273 OA
ATOM     11  H   UNL     1       2.807   2.571  -2.217  0.00  0.00    +0.156 HD
ENDBRANCH   1   9
BRANCH   1  12
ATOM     12  C   UNL     1       1.156   3.165   0.008  0.00  0.00    -0.018 A 
ATOM     13  C   UNL     1       1.175   1.783   0.000  0.00  0.00    +0.006 A 
ATOM     14  C   UNL     1      -0.013   1.076   0.008  0.00  0.00    +0.000 A 
ATOM     15  C   UNL     1      -1.219   1.751   0.017  0.00  0.00    +0.000 A 
ATOM     16  C   UNL     1      -1.238   3.133   0.030  0.00  0.00    +0.000 A 
ATOM     17  C   UNL     1      -0.050   3.840   0.023  0.00  0.00    +0.006 A 
ENDBRANCH   1  12
BRANCH   1  18
ATOM     18  N   UNL     1       2.337   5.091   0.894  0.00  0.00    -0.329 N 
ATOM     19  H   UNL     1       2.087   5.958   0.538  0.00  0.00    +0.147 HD
BRANCH  18  20
ATOM     20  C   UNL     1       2.590   4.943   2.263  0.00  0.00    +0.030 A 
ATOM     21  C   UNL     1       2.948   3.702   2.772  0.00  0.00    +0.026 A 
ATOM     22  C   UNL     1       3.199   3.551   4.123  0.00  0.00    +0.049 A 
ATOM     23  C   UNL     1       3.094   4.639   4.972  0.00  0.00    +0.143 A 
ATOM     24  C   UNL     1       2.734   5.886   4.464  0.00  0.00    +0.077 A 
ATOM     25  C   UNL     1       2.488   6.039   3.109  0.00  0.00    +0.050 A 
ATOM     26  N   UNL     1       2.630   6.979   5.337  0.00  0.00    -0.279 N 
ATOM     27  C   UNL     1       3.175   6.886   6.569  0.00  0.00    +0.258 C 
ATOM     28  O   UNL     1       3.071   7.807   7.351  0.00  0.00    -0.271 OA
ATOM     29  C   UNL     1       3.914   5.634   6.968  0.00  0.00    +0.256 C 
ATOM     30  O   UNL     1       3.339   4.505   6.304  0.00  0.00    -0.478 OA
ATOM     31  C   UNL     1       5.386   5.763   6.572  0.00  0.00    +0.062 C 
ATOM     32  H   UNL     1       2.173   7.788   5.060  0.00  0.00    +0.155 HD
ENDBRANCH  18  20
ENDBRANCH   1  18
TORSDOF 4
