REMARK  Name = ZINC39223893
REMARK  9 active torsions:
REMARK  status: ('A' for Active; 'I' for Inactive)
REMARK    1  A    between atoms: C_1  and  C_2
REMARK    2  A    between atoms: C_8  and  N_10
REMARK    3  A    between atoms: C_14  and  C_16
REMARK    4  A    between atoms: C_16  and  O_17
REMARK    5  A    between atoms: O_17  and  C_18
REMARK    6  A    between atoms: C_18  and  C_20
REMARK    7  A    between atoms: C_20  and  C_22
REMARK    8  A    between atoms: C_20  and  N_23
REMARK    9  A    between atoms: C_24  and  C_26
REMARK                            x       y       z     vdW  Elec       q    Type
REMARK                         _______ _______ _______ _____ _____    ______ ____
ROOT
ATOM      1  N   UNL     1       0.056  -0.038   2.447  0.00  0.00    -0.296 N 
ATOM      2  C   UNL     1       0.738   0.093   3.602  0.00  0.00    +0.306 C 
ATOM      3  O   UNL     1       1.921  -0.180   3.644  0.00  0.00    -0.252 OA
ATOM      4  N   UNL     1       0.107   0.528   4.711  0.00  0.00    -0.237 N 
ATOM      5  C   UNL     1       0.789   0.659   5.866  0.00  0.00    +0.258 C 
ATOM      6  O   UNL     1       1.969   0.387   5.908  0.00  0.00    -0.272 OA
ATOM      7  H   UNL     1      -0.888   0.180   2.413  0.00  0.00    +0.151 HD
ATOM      8  H   UNL     1      -0.838   0.746   4.678  0.00  0.00    +0.159 HD
ENDROOT
BRANCH   1  15
ATOM      9  C   UNL     1      -0.019   1.526   0.010  0.00  0.00    +0.009 C 
ATOM     10  C   UNL     1       0.002  -0.004   0.002  0.00  0.00    +0.006 C 
ATOM     11  C   UNL     1       0.718  -0.497  -1.257  0.00  0.00    +0.005 C 
ATOM     12  C   UNL     1       0.739  -2.027  -1.265  0.00  0.00    +0.000 C 
ATOM     13  C   UNL     1       1.479  -2.534  -0.026  0.00  0.00    +0.002 C 
ATOM     14  C   UNL     1       0.763  -2.041   1.233  0.00  0.00    +0.022 C 
ATOM     15  C   UNL     1       0.742  -0.511   1.242  0.00  0.00    +0.077 C 
ENDBRANCH   1  15
BRANCH   5  16
ATOM     16  C   UNL     1       0.083   1.145   7.106  0.00  0.00    +0.328 C 
BRANCH  16  17
ATOM     17  O   UNL     1       1.011   1.200   8.191  0.00  0.00    -0.454 OA
BRANCH  17  18
ATOM     18  C   UNL     1       0.539   1.616   9.377  0.00  0.00    +0.328 C 
ATOM     19  O   UNL     1      -0.624   1.924   9.489  0.00  0.00    -0.249 OA
BRANCH  18  20
ATOM     20  C   UNL     1       1.458   1.700  10.568  0.00  0.00    +0.179 C 
ATOM     21  C   UNL     1       2.600   2.672  10.263  0.00  0.00    +0.040 C 
BRANCH  20  22
ATOM     22  N   UNL     1       0.708   2.177  11.732  0.00  0.00    -0.296 N 
ATOM     23  C   UNL     1       1.128   1.872  12.976  0.00  0.00    +0.280 C 
ATOM     24  O   UNL     1       2.130   1.199  13.132  0.00  0.00    -0.267 OA
ATOM     25  H   UNL     1      -0.090   2.713  11.607  0.00  0.00    +0.150 HD
BRANCH  23  26
ATOM     26  C   UNL     1       0.377   2.350  14.141  0.00  0.00    +0.189 A 
ATOM     27  C   UNL     1       0.693   2.119  15.449  0.00  0.00    +0.054 A 
ATOM     28  C   UNL     1      -0.290   2.758  16.221  0.00  0.00    +0.042 A 
ATOM     29  C   UNL     1      -1.152   3.344  15.361  0.00  0.00    +0.196 A 
ATOM     30  O   UNL     1      -0.744   3.100  14.109  0.00  0.00    -0.458 OA
ENDBRANCH  23  26
ENDBRANCH  20  22
ENDBRANCH  18  20
ENDBRANCH  17  18
ENDBRANCH  16  17
ENDBRANCH   5  16
TORSDOF 7
