REMARK  Name = ZINC44452705
REMARK  11 active torsions:
REMARK  status: ('A' for Active; 'I' for Inactive)
REMARK    1  A    between atoms: C_1  and  N_2
REMARK    2  A    between atoms: N_2  and  C_3
REMARK    3  A    between atoms: C_7  and  C_9
REMARK    4  A    between atoms: C_13  and  N_14
REMARK    5  A    between atoms: C_15  and  C_17
REMARK    6  A    between atoms: C_19  and  O_27
REMARK    7  A    between atoms: C_20  and  O_25
REMARK    8  A    between atoms: C_21  and  O_23
REMARK    9  A    between atoms: O_23  and  C_24
REMARK   10  A    between atoms: O_25  and  C_26
REMARK   11  A    between atoms: O_27  and  C_28
REMARK                            x       y       z     vdW  Elec       q    Type
REMARK                         _______ _______ _______ _____ _____    ______ ____
ROOT
ATOM      1  C   UNL     1      -2.276  -4.196   0.001  0.00  0.00    +0.069 A 
ATOM      2  C   UNL     1      -2.259  -4.964   1.245  0.00  0.00    -0.023 A 
ATOM      3  C   UNL     1      -2.240  -6.297   1.067  0.00  0.00    -0.004 A 
ATOM      4  S   UNL     1      -2.248  -6.514  -0.694  0.00  0.00    -0.077 S 
ATOM      5  C   UNL     1      -2.278  -4.910  -1.184  0.00  0.00    +0.085 A 
ATOM      6  C   UNL     1      -2.219  -7.038   2.377  0.00  0.00    +0.043 C 
ATOM      7  C   UNL     1      -1.794  -5.978   3.418  0.00  0.00    +0.010 C 
ATOM      8  C   UNL     1      -2.259  -4.671   2.744  0.00  0.00    +0.037 C 
ENDROOT
BRANCH   1  15
ATOM      9  C   UNL     1      -0.018   1.461   0.010  0.00  0.00    +0.133 C 
ATOM     10  N   UNL     1       0.002  -0.004   0.002  0.00  0.00    -0.291 N 
ATOM     11  C   UNL     1       1.281  -0.719  -0.014  0.00  0.00    +0.133 C 
ATOM     12  C   UNL     1      -1.156  -0.694   0.009  0.00  0.00    +0.308 C 
ATOM     13  O   UNL     1      -2.217  -0.100   0.023  0.00  0.00    -0.252 OA
ATOM     14  N   UNL     1      -1.137  -2.041   0.002  0.00  0.00    -0.236 N 
ATOM     15  C   UNL     1      -2.295  -2.731   0.009  0.00  0.00    +0.254 C 
ATOM     16  O   UNL     1      -3.357  -2.137   0.023  0.00  0.00    -0.270 OA
ATOM     17  H   UNL     1      -0.291  -2.515  -0.009  0.00  0.00    +0.159 HD
ENDBRANCH   1  15
BRANCH   5  18
ATOM     18  N   UNL     1      -2.297  -4.414  -2.477  0.00  0.00    -0.275 N 
ATOM     19  C   UNL     1      -2.296  -5.263  -3.524  0.00  0.00    +0.249 C 
ATOM     20  O   UNL     1      -2.278  -6.463  -3.334  0.00  0.00    -0.270 OA
ATOM     21  H   UNL     1      -2.312  -3.456  -2.629  0.00  0.00    +0.156 HD
BRANCH  19  22
ATOM     22  C   UNL     1      -2.317  -4.735  -4.902  0.00  0.00    +0.044 A 
ATOM     23  C   UNL     1      -2.332  -3.355  -5.122  0.00  0.00    +0.062 A 
ATOM     24  C   UNL     1      -2.351  -2.863  -6.414  0.00  0.00    +0.166 A 
ATOM     25  C   UNL     1      -2.356  -3.741  -7.495  0.00  0.00    +0.204 A 
ATOM     26  C   UNL     1      -2.341  -5.116  -7.278  0.00  0.00    +0.166 A 
ATOM     27  C   UNL     1      -2.316  -5.613  -5.988  0.00  0.00    +0.062 A 
BRANCH  26  28
ATOM     28  O   UNL     1      -2.345  -5.971  -8.336  0.00  0.00    -0.491 OA
ATOM     29  C   UNL     1      -2.329  -7.369  -8.040  0.00  0.00    +0.277 C 
ENDBRANCH  26  28
BRANCH  25  30
ATOM     30  O   UNL     1      -2.376  -3.254  -8.763  0.00  0.00    -0.488 OA
ATOM     31  C   UNL     1      -1.112  -3.010  -9.384  0.00  0.00    +0.277 C 
ENDBRANCH  25  30
BRANCH  24  32
ATOM     32  O   UNL     1      -2.367  -1.520  -6.629  0.00  0.00    -0.491 OA
ATOM     33  C   UNL     1      -2.361  -0.678  -5.475  0.00  0.00    +0.277 C 
ENDBRANCH  24  32
ENDBRANCH  19  22
ENDBRANCH   5  18
TORSDOF 6
