REMARK  Name = ZINC59350325
REMARK  11 active torsions:
REMARK  status: ('A' for Active; 'I' for Inactive)
REMARK    1  A    between atoms: C_1  and  C_2
REMARK    2  A    between atoms: C_2  and  C_3
REMARK    3  A    between atoms: C_3  and  N_4
REMARK    4  A    between atoms: N_4  and  C_5
REMARK    5  A    between atoms: N_4  and  C_19
REMARK    6  A    between atoms: C_5  and  C_6
REMARK    7  A    between atoms: N_8  and  C_9
REMARK    8  A    between atoms: C_12  and  S_15
REMARK    9  A    between atoms: S_15  and  N_18
REMARK   10  A    between atoms: C_19  and  C_21
REMARK   11  A    between atoms: C_19  and  C_22
REMARK                            x       y       z     vdW  Elec       q    Type
REMARK                         _______ _______ _______ _____ _____    ______ ____
ROOT
ATOM      1  C   UNL     1      -0.759  -2.382   1.377  0.00  0.00    +0.020 C 
ENDROOT
BRANCH   1   2
ATOM      2  C   UNL     1       0.601  -1.756   1.548  0.00  0.00    +0.201 C 
ATOM      3  O   UNL     1       1.092  -1.116   0.642  0.00  0.00    -0.278 OA
ATOM      4  N   UNL     1       1.272  -1.907   2.707  0.00  0.00    -0.287 N 
ATOM      5  H   UNL     1       0.912  -2.476   3.405  0.00  0.00    +0.155 HD
BRANCH   4   6
ATOM      6  C   UNL     1       2.487  -1.242   2.903  0.00  0.00    +0.033 A 
ATOM      7  C   UNL     1       3.498  -1.844   3.640  0.00  0.00    +0.025 A 
ATOM      8  C   UNL     1       4.697  -1.186   3.833  0.00  0.00    +0.030 A 
ATOM      9  C   UNL     1       4.891   0.072   3.292  0.00  0.00    +0.105 A 
ATOM     10  C   UNL     1       3.886   0.675   2.558  0.00  0.00    +0.030 A 
ATOM     11  C   UNL     1       2.687   0.019   2.357  0.00  0.00    +0.025 A 
BRANCH   9  12
ATOM     12  S   UNL     1       6.422   0.909   3.539  0.00  0.00    +0.056 S 
ATOM     13  O   UNL     1       6.154   2.297   3.394  0.00  0.00    -0.153 OA
ATOM     14  O   UNL     1       6.997   0.364   4.719  0.00  0.00    -0.153 OA
BRANCH  12  15
ATOM     15  N   UNL     1       7.419   0.486   2.287  0.00  0.00    -0.204 NA
ATOM     16  H   UNL     1       8.095   1.107   1.974  0.00  0.00    +0.144 HD
ATOM     17  H   UNL     1       7.327  -0.383   1.867  0.00  0.00    +0.144 HD
ENDBRANCH  12  15
ENDBRANCH   9  12
ENDBRANCH   4   6
ENDBRANCH   1   2
BRANCH   1  18
ATOM     18  N   UNL     1      -1.341  -1.949   0.100  0.00  0.00    +0.390 N 
ATOM     19  H   UNL     1      -0.693  -2.146  -0.649  0.00  0.00    -0.080 HD
BRANCH  18  20
ATOM     20  C   UNL     1      -2.596  -2.674  -0.137  0.00  0.00    -0.040 C 
ATOM     21  C   UNL     1      -3.203  -2.223  -1.468  0.00  0.00    -0.008 C 
BRANCH  20  22
ATOM     22  C   UNL     1      -2.320  -4.155  -0.187  0.00  0.00    -0.060 A 
ATOM     23  C   UNL     1      -1.183  -4.624  -0.819  0.00  0.00    +0.003 A 
ATOM     24  C   UNL     1      -0.929  -5.982  -0.866  0.00  0.00    +0.021 A 
ATOM     25  C   UNL     1      -1.812  -6.872  -0.281  0.00  0.00    +0.059 A 
ATOM     26  C   UNL     1      -2.950  -6.402   0.352  0.00  0.00    +0.059 A 
ATOM     27  C   UNL     1      -3.200  -5.042   0.403  0.00  0.00    +0.023 A 
ATOM     28 CL   UNL     1      -4.059  -7.517   1.087  0.00  0.00    -0.082 Cl
ATOM     29 CL   UNL     1      -1.493  -8.577  -0.340  0.00  0.00    -0.082 Cl
ENDBRANCH  20  22
ENDBRANCH  18  20
BRANCH  18  30
ATOM     30  C   UNL     1      -1.610  -0.506   0.148  0.00  0.00    -0.078 C 
BRANCH  30  32
ATOM     31  C   UNL     1      -2.713   1.317   1.454  0.00  0.00    +0.002 C 
ATOM     32  C   UNL     1      -2.516  -0.197   1.342  0.00  0.00    -0.022 C 
ENDBRANCH  30  32
ENDBRANCH  18  30
ENDBRANCH   1  18
TORSDOF 9
