REMARK  Name = ZINC09256538
REMARK  12 active torsions:
REMARK  status: ('A' for Active; 'I' for Inactive)
REMARK    1  A    between atoms: C_1  and  C_2
REMARK    2  A    between atoms: C_3  and  C_32
REMARK    3  A    between atoms: C_4  and  C_31
REMARK    4  A    between atoms: C_7  and  C_8
REMARK    5  A    between atoms: C_8  and  C_10
REMARK    6  A    between atoms: C_10  and  C_12
REMARK    7  A    between atoms: C_10  and  N_57
REMARK    8  A    between atoms: C_13  and  C_14
REMARK    9  A    between atoms: C_13  and  N_57
REMARK   10  A    between atoms: C_14  and  C_16
REMARK   11  A    between atoms: C_14  and  C_21
REMARK   12  A    between atoms: C_32  and  C_34
REMARK                            x       y       z     vdW  Elec       q    Type
REMARK                         _______ _______ _______ _____ _____    ______ ____
ROOT
ATOM      1  N   UNL     1       0.957   1.993   0.927  0.00  0.00    +0.386 N 
ATOM      2  H   UNL     1       1.499   1.755   1.766  0.00  0.00    -0.085 HD
ATOM      3  H   UNL     1       1.337   1.486   0.119  0.00  0.00    -0.085 HD
ENDROOT
BRANCH   1   4
ATOM      4  C   UNL     1       1.055   3.444   0.680  0.00  0.00    -0.001 C 
ATOM      5  C   UNL     1       0.829   3.726  -0.806  0.00  0.00    -0.006 C 
BRANCH   4   6
ATOM      6  C   UNL     1       2.428   3.922   1.079  0.00  0.00    +0.165 C 
ATOM      7  O   UNL     1       3.342   3.129   1.175  0.00  0.00    -0.292 OA
BRANCH   6  14
ATOM      8  C   UNL     1       5.159   5.146   1.913  0.00  0.00    +0.047 C 
ATOM      9  C   UNL     1       3.849   5.863   1.712  0.00  0.00    -0.012 A 
ATOM     10  C   UNL     1       3.614   7.248   1.868  0.00  0.00    +0.041 A 
ATOM     11  C   UNL     1       2.274   7.469   1.584  0.00  0.00    +0.024 A 
ATOM     12  N   UNL     1       1.706   6.299   1.264  0.00  0.00    -0.355 N 
ATOM     13  H   UNL     1       0.775   6.175   1.020  0.00  0.00    +0.166 HD
ATOM     14  C   UNL     1       2.651   5.295   1.341  0.00  0.00    +0.084 A 
ATOM     15  C   UNL     1       1.576   8.804   1.621  0.00  0.00    +0.064 C 
BRANCH  10  16
ATOM     16  C   UNL     1       4.601   8.261   2.256  0.00  0.00    +0.162 C 
ATOM     17  O   UNL     1       4.774   8.521   3.429  0.00  0.00    -0.292 OA
ATOM     18  C   UNL     1       5.399   8.980   1.199  0.00  0.00    +0.091 C 
ENDBRANCH  10  16
ENDBRANCH   6  14
ENDBRANCH   4   6
ENDBRANCH   1   4
BRANCH   1  19
ATOM     19  C   UNL     1      -0.450   1.602   1.129  0.00  0.00    -0.068 C 
BRANCH  19  20
ATOM     20  C   UNL     1      -0.520   0.094   1.382  0.00  0.00    +0.041 C 
BRANCH  20  21
ATOM     21  C   UNL     1      -1.939  -0.294   1.711  0.00  0.00    -0.016 A 
ATOM     22  C   UNL     1      -3.015  -0.125   0.927  0.00  0.00    +0.087 A 
ATOM     23  N   UNL     1      -4.132  -0.602   1.558  0.00  0.00    -0.360 N 
ATOM     24  H   UNL     1      -5.028  -0.592   1.188  0.00  0.00    +0.165 HD
ATOM     25  C   UNL     1      -3.794  -1.094   2.799  0.00  0.00    +0.047 A 
ATOM     26  C   UNL     1      -2.405  -0.923   2.949  0.00  0.00    +0.003 A 
ATOM     27  C   UNL     1      -1.776  -1.336   4.125  0.00  0.00    +0.010 A 
ATOM     28  C   UNL     1      -2.513  -1.905   5.125  0.00  0.00    +0.001 A 
ATOM     29  C   UNL     1      -3.882  -2.076   4.982  0.00  0.00    +0.002 A 
ATOM     30  C   UNL     1      -4.524  -1.676   3.830  0.00  0.00    +0.026 A 
ENDBRANCH  20  21
BRANCH  20  31
ATOM     31  C   UNL     1      -0.071  -0.644   0.148  0.00  0.00    -0.005 A 
ATOM     32  C   UNL     1       0.965  -1.505  -0.002  0.00  0.00    +0.012 A 
ATOM     33  C   UNL     1       1.191  -2.073  -1.242  0.00  0.00    +0.008 A 
ATOM     34  C   UNL     1       0.376  -1.744  -2.273  0.00  0.00    +0.045 A 
ATOM     35  S   UNL     1      -0.759  -0.605  -1.499  0.00  0.00    -0.101 S 
ENDBRANCH  20  31
ENDBRANCH  19  20
ENDBRANCH   1  19
TORSDOF 8
