REMARK  Name = ZINC08997945
REMARK  13 active torsions:
REMARK  status: ('A' for Active; 'I' for Inactive)
REMARK    1  A    between atoms: C_1  and  C_2
REMARK    2  A    between atoms: C_2  and  N_3
REMARK    3  A    between atoms: N_3  and  C_4
REMARK    4  A    between atoms: N_3  and  S_11
REMARK    5  A    between atoms: C_4  and  C_5
REMARK    6  A    between atoms: S_11  and  C_14
REMARK    7  A    between atoms: C_17  and  C_20
REMARK    8  A    between atoms: C_20  and  N_22
REMARK    9  A    between atoms: N_24  and  C_32
REMARK   10  A    between atoms: C_32  and  C_33
REMARK   11  A    between atoms: C_33  and  O_34
REMARK   12  A    between atoms: O_34  and  C_35
REMARK   13  A    between atoms: C_35  and  C_36
REMARK                            x       y       z     vdW  Elec       q    Type
REMARK                         _______ _______ _______ _____ _____    ______ ____
ROOT
ATOM      1  C   UNL     1      -9.845   3.912  -0.434  0.00  0.00    +0.106 A 
ATOM      2  C   UNL     1      -9.113   5.034  -0.777  0.00  0.00    +0.029 A 
ATOM      3  C   UNL     1      -7.737   4.969  -0.846  0.00  0.00    +0.015 A 
ATOM      4  C   UNL     1      -7.083   3.768  -0.570  0.00  0.00    +0.039 A 
ATOM      5  C   UNL     1      -7.828   2.638  -0.230  0.00  0.00    +0.015 A 
ATOM      6  C   UNL     1      -9.203   2.717  -0.160  0.00  0.00    +0.029 A 
ENDROOT
BRANCH   1   7
ATOM      7  S   UNL     1     -11.603   4.003  -0.347  0.00  0.00    +0.061 S 
ATOM      8  O   UNL     1     -12.013   3.038   0.611  0.00  0.00    -0.153 OA
ATOM      9  O   UNL     1     -11.932   5.380  -0.231  0.00  0.00    -0.153 OA
BRANCH   7  10
ATOM     10  N   UNL     1     -12.192   3.498  -1.810  0.00  0.00    -0.173 NA
BRANCH  10  12
ATOM     11  C   UNL     1     -13.830   1.682  -1.764  0.00  0.00    +0.022 C 
ATOM     12  C   UNL     1     -12.381   2.068  -2.069  0.00  0.00    +0.106 C 
ENDBRANCH  10  12
BRANCH  10  13
ATOM     13  C   UNL     1     -12.524   4.480  -2.845  0.00  0.00    +0.144 C 
BRANCH  13  14
ATOM     14  C   UNL     1     -13.992   4.815  -2.767  0.00  0.00    -0.032 A 
ATOM     15  C   UNL     1     -14.892   4.171  -3.595  0.00  0.00    +0.005 A 
ATOM     16  C   UNL     1     -16.239   4.475  -3.521  0.00  0.00    +0.000 A 
ATOM     17  C   UNL     1     -16.683   5.430  -2.625  0.00  0.00    +0.000 A 
ATOM     18  C   UNL     1     -15.782   6.077  -1.800  0.00  0.00    +0.000 A 
ATOM     19  C   UNL     1     -14.436   5.769  -1.872  0.00  0.00    +0.005 A 
ENDBRANCH  13  14
ENDBRANCH  10  13
ENDBRANCH   7  10
ENDBRANCH   1   7
BRANCH   4  20
ATOM     20  C   UNL     1      -5.606   3.691  -0.642  0.00  0.00    +0.269 C 
ATOM     21  O   UNL     1      -4.958   4.678  -0.944  0.00  0.00    -0.268 OA
BRANCH  20  22
ATOM     22  N   UNL     1      -4.983   2.538  -0.377  0.00  0.00    -0.152 NA
ATOM     23  C   UNL     1      -3.658   2.469  -0.443  0.00  0.00    +0.167 A 
ATOM     24  N   UNL     1      -2.856   1.395  -0.209  0.00  0.00    -0.319 N 
ATOM     25  C   UNL     1      -1.484   1.514  -0.333  0.00  0.00    +0.058 A 
ATOM     26  C   UNL     1      -0.503   0.531  -0.130  0.00  0.00    +0.027 A 
ATOM     27  C   UNL     1       0.830   0.824  -0.290  0.00  0.00    +0.002 A 
ATOM     28  C   UNL     1       1.247   2.095  -0.652  0.00  0.00    +0.001 A 
ATOM     29  C   UNL     1       0.301   3.084  -0.854  0.00  0.00    +0.017 A 
ATOM     30  C   UNL     1      -1.032   2.792  -0.693  0.00  0.00    +0.039 A 
ATOM     31  S   UNL     1      -2.534   3.727  -0.845  0.00  0.00    -0.052 S 
BRANCH  24  32
ATOM     32  C   UNL     1      -3.448   0.109   0.167  0.00  0.00    +0.152 C 
BRANCH  32  33
ATOM     33  C   UNL     1      -4.655   0.349   1.076  0.00  0.00    +0.181 C 
BRANCH  33  34
ATOM     34  O   UNL     1      -5.158  -0.905   1.541  0.00  0.00    -0.378 OA
BRANCH  34  35
ATOM     35  C   UNL     1      -6.293  -0.792   2.403  0.00  0.00    +0.156 C 
ATOM     36  C   UNL     1      -6.744  -2.188   2.837  0.00  0.00    +0.034 C 
ENDBRANCH  34  35
ENDBRANCH  33  34
ENDBRANCH  32  33
ENDBRANCH  24  32
ENDBRANCH  20  22
ENDBRANCH   4  20
TORSDOF 11
