REMARK  Name = ZINC35708006
REMARK  14 active torsions:
REMARK  status: ('A' for Active; 'I' for Inactive)
REMARK    1  A    between atoms: C_1  and  C_2
REMARK    2  A    between atoms: C_2  and  C_3
REMARK    3  A    between atoms: C_3  and  C_4
REMARK    4  A    between atoms: C_4  and  N_5
REMARK    5  A    between atoms: C_6  and  C_38
REMARK    6  A    between atoms: C_7  and  C_32
REMARK    7  A    between atoms: C_8  and  C_13
REMARK    8  A    between atoms: C_17  and  N_19
REMARK    9  A    between atoms: C_20  and  C_22
REMARK   10  A    between atoms: C_25  and  N_29
REMARK   11  A    between atoms: C_32  and  O_34
REMARK   12  A    between atoms: O_34  and  C_35
REMARK   13  A    between atoms: C_35  and  C_36
REMARK   14  A    between atoms: C_35  and  C_37
REMARK                            x       y       z     vdW  Elec       q    Type
REMARK                         _______ _______ _______ _____ _____    ______ ____
ROOT
ATOM      1  C   UNL     1      -6.783  -3.157  -0.012  0.00  0.00    -0.021 A 
ATOM      2  C   UNL     1      -6.908  -1.800  -0.246  0.00  0.00    +0.006 A 
ATOM      3  C   UNL     1      -8.159  -1.237  -0.418  0.00  0.00    +0.002 A 
ATOM      4  C   UNL     1      -9.289  -2.030  -0.357  0.00  0.00    +0.023 A 
ATOM      5  C   UNL     1      -9.167  -3.393  -0.122  0.00  0.00    +0.034 A 
ATOM      6  C   UNL     1      -7.908  -3.956   0.046  0.00  0.00    +0.029 A 
ENDROOT
BRANCH   1  10
ATOM      7  N   UNL     1      -3.082  -2.390   0.730  0.00  0.00    -0.259 N 
ATOM      8  C   UNL     1      -3.827  -2.823   1.790  0.00  0.00    +0.024 C 
ATOM      9  C   UNL     1      -4.979  -3.502   1.601  0.00  0.00    +0.078 C 
ATOM     10  C   UNL     1      -5.417  -3.765   0.175  0.00  0.00    +0.144 C 
ATOM     11  N   UNL     1      -4.544  -3.257  -0.896  0.00  0.00    -0.288 N 
ATOM     12  C   UNL     1      -3.424  -2.591  -0.549  0.00  0.00    +0.307 C 
ATOM     13  O   UNL     1      -2.699  -2.164  -1.426  0.00  0.00    -0.252 OA
ATOM     14  C   UNL     1      -3.354  -2.539   3.192  0.00  0.00    +0.061 C 
ATOM     15  H   UNL     1      -4.771  -3.394  -1.829  0.00  0.00    +0.151 HD
BRANCH   9  16
ATOM     16  C   UNL     1      -5.751  -3.951   2.698  0.00  0.00    +0.339 C 
ATOM     17  O   UNL     1      -5.379  -3.728   3.835  0.00  0.00    -0.245 OA
BRANCH  16  18
ATOM     18  O   UNL     1      -6.899  -4.627   2.484  0.00  0.00    -0.459 OA
BRANCH  18  19
ATOM     19  C   UNL     1      -7.627  -5.051   3.638  0.00  0.00    +0.171 C 
ATOM     20  C   UNL     1      -8.618  -3.959   4.045  0.00  0.00    +0.052 C 
ATOM     21  C   UNL     1      -8.390  -6.338   3.315  0.00  0.00    +0.052 C 
ENDBRANCH  18  19
ENDBRANCH  16  18
ENDBRANCH   9  16
BRANCH   7  22
ATOM     22  C   UNL     1      -1.843  -1.660   1.008  0.00  0.00    +0.115 C 
BRANCH  22  23
ATOM     23  C   UNL     1      -0.706  -2.657   1.244  0.00  0.00    +0.019 C 
BRANCH  23  25
ATOM     24  C   UNL     1       1.725  -2.890   1.770  0.00  0.00    +0.004 C 
ATOM     25  C   UNL     1       0.588  -1.894   1.534  0.00  0.00    -0.002 C 
ENDBRANCH  23  25
ENDBRANCH  22  23
ENDBRANCH   7  22
ENDBRANCH   1  10
BRANCH   5  26
ATOM     26  N   UNL     1     -10.308  -4.199  -0.059  0.00  0.00    -0.281 N 
ATOM     27  C   UNL     1     -11.459  -3.699   0.433  0.00  0.00    +0.250 C 
ATOM     28  O   UNL     1     -11.482  -2.581   0.910  0.00  0.00    -0.270 OA
ATOM     29  H   UNL     1     -10.271  -5.117  -0.369  0.00  0.00    +0.155 HD
BRANCH  27  30
ATOM     30  C   UNL     1     -12.694  -4.510   0.392  0.00  0.00    +0.055 A 
ATOM     31  C   UNL     1     -12.670  -5.796  -0.150  0.00  0.00    +0.017 A 
ATOM     32  C   UNL     1     -13.826  -6.548  -0.185  0.00  0.00    +0.033 A 
ATOM     33  C   UNL     1     -15.008  -6.031   0.316  0.00  0.00    +0.128 A 
ATOM     34  C   UNL     1     -15.040  -4.757   0.854  0.00  0.00    +0.053 A 
ATOM     35  C   UNL     1     -13.889  -3.995   0.901  0.00  0.00    +0.055 A 
ATOM     36 CL   UNL     1     -13.928  -2.399   1.583  0.00  0.00    -0.083 Cl
BRANCH  33  37
ATOM     37  N   UNL     1     -16.244  -6.844   0.275  0.00  0.00    +0.056 N 
ATOM     38  O   UNL     1     -16.219  -7.958  -0.195  0.00  0.00    -0.126 OA
ATOM     39  O   UNL     1     -17.278  -6.395   0.712  0.00  0.00    -0.126 OA
ENDBRANCH  33  37
ENDBRANCH  27  30
ENDBRANCH   5  26
TORSDOF 10
