REMARK  Name = ZINC35418853
REMARK  11 active torsions:
REMARK  status: ('A' for Active; 'I' for Inactive)
REMARK    1  A    between atoms: C_1  and  C_2
REMARK    2  A    between atoms: C_2  and  C_4
REMARK    3  A    between atoms: C_2  and  C_8
REMARK    4  A    between atoms: C_4  and  N_5
REMARK    5  A    between atoms: N_5  and  C_6
REMARK    6  A    between atoms: N_5  and  C_7
REMARK    7  A    between atoms: C_8  and  S_9
REMARK    8  A    between atoms: S_9  and  C_10
REMARK    9  A    between atoms: C_17  and  C_31
REMARK   10  A    between atoms: C_25  and  C_29
REMARK   11  A    between atoms: C_25  and  C_30
REMARK                            x       y       z     vdW  Elec       q    Type
REMARK                         _______ _______ _______ _____ _____    ______ ____
ROOT
ATOM      1  C   UNL     1      -0.235  -0.530  -5.085  0.00  0.00    +0.171 A 
ATOM      2  N   UNL     1       0.846  -0.936  -4.452  0.00  0.00    -0.208 NA
ATOM      3  C   UNL     1       1.883  -1.462  -5.119  0.00  0.00    +0.131 A 
ATOM      4  C   UNL     1       1.824  -1.583  -6.496  0.00  0.00    +0.065 A 
ATOM      5  C   UNL     1       0.672  -1.148  -7.162  0.00  0.00    +0.258 A 
ATOM      6  O   UNL     1       0.585  -1.239  -8.376  0.00  0.00    -0.267 OA
ATOM      7  N   UNL     1      -0.343  -0.632  -6.439  0.00  0.00    -0.302 N 
ATOM      8  C   UNL     1       2.960  -2.167  -7.293  0.00  0.00    +0.070 C 
ATOM      9  C   UNL     1       3.858  -3.002  -6.380  0.00  0.00    +0.087 C 
ATOM     10  C   UNL     1       4.235  -2.145  -5.161  0.00  0.00    +0.083 C 
ATOM     11  N   UNL     1       3.000  -1.876  -4.414  0.00  0.00    -0.325 N 
ATOM     12  C   UNL     1       5.240  -2.911  -4.303  0.00  0.00    +0.029 C 
ATOM     13  C   UNL     1       6.535  -3.119  -5.092  0.00  0.00    -0.027 C 
ATOM     14  C   UNL     1       6.255  -3.986  -6.324  0.00  0.00    +0.081 C 
ATOM     15  C   UNL     1       5.124  -3.389  -7.107  0.00  0.00    +0.140 C 
ATOM     16  O   UNL     1       5.245  -3.195  -8.293  0.00  0.00    -0.297 OA
ATOM     17  C   UNL     1       7.082  -1.762  -5.539  0.00  0.00    +0.011 C 
ATOM     18  C   UNL     1       7.567  -3.815  -4.203  0.00  0.00    +0.011 C 
ATOM     19  H   UNL     1       2.968  -1.985  -3.450  0.00  0.00    +0.148 HD
ATOM     20  H   UNL     1      -1.150  -0.330  -6.884  0.00  0.00    +0.171 HD
ENDROOT
BRANCH   8  21
ATOM     21  C   UNL     1       3.769  -1.052  -7.905  0.00  0.00    -0.039 A 
ATOM     22  C   UNL     1       4.157  -1.126  -9.229  0.00  0.00    +0.004 A 
ATOM     23  C   UNL     1       4.899  -0.103  -9.790  0.00  0.00    +0.000 A 
ATOM     24  C   UNL     1       5.252   0.994  -9.027  0.00  0.00    +0.000 A 
ATOM     25  C   UNL     1       4.862   1.069  -7.702  0.00  0.00    +0.000 A 
ATOM     26  C   UNL     1       4.117   0.048  -7.143  0.00  0.00    +0.004 A 
ENDBRANCH   8  21
BRANCH   1  27
ATOM     27  S   UNL     1      -1.570   0.154  -4.160  0.00  0.00    -0.088 S 
BRANCH  27  28
ATOM     28  C   UNL     1      -0.992   0.092  -2.442  0.00  0.00    +0.078 C 
BRANCH  28  30
ATOM     29  C   UNL     1      -2.269   2.149  -1.827  0.00  0.00    +0.006 C 
ATOM     30  C   UNL     1      -2.070   0.664  -1.520  0.00  0.00    -0.021 C 
BRANCH  30  31
ATOM     31  C   UNL     1      -1.635   0.498  -0.062  0.00  0.00    -0.076 C 
BRANCH  31  32
ATOM     32  N   UNL     1      -2.721   0.936   0.825  0.00  0.00    +0.376 N 
ATOM     33  C   UNL     1      -3.878   0.046   0.661  0.00  0.00    -0.097 C 
ATOM     34  C   UNL     1      -2.261   0.890   2.220  0.00  0.00    -0.097 C 
ATOM     35  H   UNL     1      -2.987   1.881   0.590  0.00  0.00    -0.083 HD
ENDBRANCH  31  32
ENDBRANCH  30  31
ENDBRANCH  28  30
ENDBRANCH  27  28
ENDBRANCH   1  27
TORSDOF 6
