REMARK  Name = ZINC20649180
REMARK  9 active torsions:
REMARK  status: ('A' for Active; 'I' for Inactive)
REMARK    1  A    between atoms: C_1  and  C_2
REMARK    2  A    between atoms: C_2  and  N_3
REMARK    3  A    between atoms: C_5  and  C_12
REMARK    4  A    between atoms: C_19  and  O_33
REMARK    5  A    between atoms: C_20  and  C_23
REMARK    6  A    between atoms: C_23  and  N_24
REMARK    7  A    between atoms: N_27  and  C_30
REMARK    8  A    between atoms: C_30  and  C_31
REMARK    9  A    between atoms: C_31  and  O_32
REMARK                            x       y       z     vdW  Elec       q    Type
REMARK                         _______ _______ _______ _____ _____    ______ ____
ROOT
ATOM      1  C   UNL     1      -2.243   5.664   0.280  0.00  0.00    +0.060 C 
ATOM      2  C   UNL     1      -1.363   4.625   0.236  0.00  0.00    +0.176 C 
ATOM      3  C   UNL     1       0.016   4.718  -0.090  0.00  0.00    +0.231 C 
ATOM      4  O   UNL     1       0.642   5.724  -0.382  0.00  0.00    -0.283 OA
ATOM      5  C   UNL     1       0.528   3.340   0.001  0.00  0.00    +0.068 A 
ATOM      6  C   UNL     1       1.784   2.767  -0.198  0.00  0.00    +0.019 A 
ATOM      7  C   UNL     1       1.951   1.421  -0.035  0.00  0.00    +0.046 A 
ATOM      8  C   UNL     1       0.872   0.619   0.329  0.00  0.00    +0.122 A 
ATOM      9  C   UNL     1      -0.381   1.175   0.530  0.00  0.00    +0.020 A 
ATOM     10  C   UNL     1      -0.567   2.541   0.368  0.00  0.00    +0.144 A 
ATOM     11  O   UNL     1      -1.657   3.328   0.492  0.00  0.00    -0.451 OA
ENDROOT
BRANCH   1  14
ATOM     12  N   UNL     1      -0.523   8.883   0.330  0.00  0.00    -0.346 N 
ATOM     13  C   UNL     1      -0.636   7.584   0.705  0.00  0.00    +0.094 A 
ATOM     14  C   UNL     1      -1.762   7.036   0.130  0.00  0.00    +0.004 A 
ATOM     15  C   UNL     1      -2.381   8.109  -0.672  0.00  0.00    +0.007 A 
ATOM     16  C   UNL     1      -1.564   9.239  -0.502  0.00  0.00    +0.050 A 
ATOM     17  C   UNL     1      -1.901  10.425  -1.145  0.00  0.00    +0.026 A 
ATOM     18  C   UNL     1      -3.029  10.484  -1.934  0.00  0.00    +0.002 A 
ATOM     19  C   UNL     1      -3.838   9.369  -2.096  0.00  0.00    +0.001 A 
ATOM     20  C   UNL     1      -3.521   8.184  -1.467  0.00  0.00    +0.010 A 
BRANCH  12  22
ATOM     21  C   UNL     1       0.102  10.585   1.971  0.00  0.00    +0.027 C 
ATOM     22  C   UNL     1       0.555   9.782   0.751  0.00  0.00    +0.118 C 
ENDBRANCH  12  22
ENDBRANCH   1  14
BRANCH   8  23
ATOM     23  O   UNL     1       1.050  -0.717   0.488  0.00  0.00    -0.506 OA
ATOM     24  H   UNL     1       0.200  -1.354   0.775  0.00  0.00    +0.292 HD
ENDBRANCH   8  23
BRANCH   9  25
ATOM     25  C   UNL     1      -1.541   0.297   0.923  0.00  0.00    -0.035 C 
BRANCH  25  26
ATOM     26  N   UNL     1      -2.220  -0.188  -0.286  0.00  0.00    +0.384 N 
ATOM     27  C   UNL     1      -2.855   0.920  -1.014  0.00  0.00    -0.063 C 
ATOM     28  C   UNL     1      -3.482   0.386  -2.304  0.00  0.00    +0.066 C 
ATOM     29  N   UNL     1      -4.465  -0.655  -1.974  0.00  0.00    -0.304 NA
ATOM     30  C   UNL     1      -3.830  -1.763  -1.247  0.00  0.00    +0.066 C 
ATOM     31  C   UNL     1      -3.203  -1.230   0.043  0.00  0.00    -0.063 C 
ATOM     32  H   UNL     1      -1.460  -0.634  -0.944  0.00  0.00    -0.081 HD
BRANCH  29  33
ATOM     33  C   UNL     1      -5.144  -1.140  -3.184  0.00  0.00    +0.112 C 
BRANCH  33  34
ATOM     34  C   UNL     1      -6.457  -1.821  -2.793  0.00  0.00    +0.171 C 
BRANCH  34  35
ATOM     35  O   UNL     1      -7.328  -0.863  -2.188  0.00  0.00    -0.394 OA
ATOM     36  H   UNL     1      -8.325  -1.169  -1.839  0.00  0.00    +0.209 HD
ENDBRANCH  34  35
ENDBRANCH  33  34
ENDBRANCH  29  33
ENDBRANCH  25  26
ENDBRANCH   9  25
TORSDOF 8
