REMARK  Name = ZINC13083032
REMARK  13 active torsions:
REMARK  status: ('A' for Active; 'I' for Inactive)
REMARK    1  A    between atoms: C_1  and  C_2
REMARK    2  A    between atoms: C_2  and  C_3
REMARK    3  A    between atoms: N_7  and  C_16
REMARK    4  A    between atoms: C_10  and  C_15
REMARK    5  A    between atoms: C_16  and  C_17
REMARK    6  A    between atoms: N_19  and  C_20
REMARK    7  A    between atoms: N_19  and  C_27
REMARK    8  A    between atoms: C_20  and  C_21
REMARK    9  A    between atoms: C_24  and  C_26
REMARK   10  A    between atoms: C_29  and  C_35
REMARK   11  A    between atoms: C_29  and  C_36
REMARK   12  A    between atoms: C_31  and  C_33
REMARK   13  A    between atoms: C_31  and  C_34
REMARK                            x       y       z     vdW  Elec       q    Type
REMARK                         _______ _______ _______ _____ _____    ______ ____
ROOT
ATOM      1  C   UNL     1      -2.511  -4.924  -0.654  0.00  0.00    +0.234 C 
ATOM      2  O   UNL     1      -1.425  -4.382  -0.664  0.00  0.00    -0.274 OA
ATOM      3  N   UNL     1      -2.594  -6.266  -0.561  0.00  0.00    -0.290 N 
ENDROOT
BRANCH   3   4
ATOM      4  C   UNL     1      -1.378  -7.064  -0.358  0.00  0.00    +0.074 C 
ATOM      5  C   UNL     1      -0.668  -6.584   0.909  0.00  0.00    +0.009 C 
ATOM      6  C   UNL     1       0.607  -7.398   1.128  0.00  0.00    -0.072 C 
ATOM      7  N   UNL     1       1.476  -7.381  -0.040  0.00  0.00    +0.386 N 
ATOM      8  C   UNL     1       0.867  -7.623  -1.338  0.00  0.00    -0.072 C 
ATOM      9  C   UNL     1      -0.436  -6.859  -1.544  0.00  0.00    +0.009 C 
ATOM     10  C   UNL     1       0.641  -9.117  -1.587  0.00  0.00    -0.010 C 
ATOM     11  C   UNL     1       1.862  -7.132  -2.417  0.00  0.00    -0.010 C 
ATOM     12  C   UNL     1       0.258  -8.820   1.565  0.00  0.00    -0.010 C 
ATOM     13  C   UNL     1       1.379  -6.737   2.293  0.00  0.00    -0.010 C 
ATOM     14  H   UNL     1       1.952  -6.476  -0.072  0.00  0.00    -0.084 HD
ATOM     15  H   UNL     1       2.218  -8.070   0.102  0.00  0.00    -0.084 HD
ENDBRANCH   3   4
BRANCH   1  16
ATOM     16  C   UNL     1      -3.766  -4.096  -0.747  0.00  0.00    +0.209 C 
BRANCH  16  20
ATOM     17  C   UNL     1      -2.945  -0.522  -1.850  0.00  0.00    +0.259 C 
ATOM     18  C   UNL     1      -3.169  -2.013  -1.877  0.00  0.00    +0.261 C 
ATOM     19  O   UNL     1      -3.128  -2.617  -2.928  0.00  0.00    -0.271 OA
ATOM     20  N   UNL     1      -3.416  -2.673  -0.725  0.00  0.00    -0.256 N 
ATOM     21  C   UNL     1      -3.333  -1.981   0.491  0.00  0.00    +0.079 A 
ATOM     22  C   UNL     1      -3.797  -2.558   1.662  0.00  0.00    +0.030 A 
ATOM     23  C   UNL     1      -3.720  -1.857   2.852  0.00  0.00    -0.048 A 
ATOM     24  C   UNL     1      -3.184  -0.583   2.874  0.00  0.00    +0.007 A 
ATOM     25  C   UNL     1      -2.716  -0.004   1.710  0.00  0.00    +0.048 A 
ATOM     26  C   UNL     1      -2.783  -0.702   0.516  0.00  0.00    +0.143 A 
ATOM     27  O   UNL     1      -2.297  -0.156  -0.630  0.00  0.00    -0.478 OA
ATOM     28  C   UNL     1      -4.223  -2.484   4.127  0.00  0.00    +0.044 C 
BRANCH  17  30
ATOM     29  C   UNL     1      -4.057   1.706  -2.049  0.00  0.00    +0.008 C 
ATOM     30  C   UNL     1      -4.291   0.197  -1.948  0.00  0.00    +0.051 C 
ENDBRANCH  17  30
ENDBRANCH  16  20
ENDBRANCH   1  16
BRANCH   3  31
ATOM     31  C   UNL     1      -3.897  -6.928  -0.663  0.00  0.00    +0.182 C 
BRANCH  31  32
ATOM     32  C   UNL     1      -4.179  -7.262  -2.106  0.00  0.00    +0.122 A 
ATOM     33  C   UNL     1      -3.848  -8.409  -2.726  0.00  0.00    +0.046 A 
ATOM     34  C   UNL     1      -4.299  -8.297  -4.061  0.00  0.00    +0.045 A 
ATOM     35  C   UNL     1      -4.879  -7.088  -4.177  0.00  0.00    +0.102 A 
ATOM     36  O   UNL     1      -4.808  -6.468  -2.987  0.00  0.00    -0.463 OA
ATOM     37  C   UNL     1      -5.506  -6.528  -5.427  0.00  0.00    +0.086 C 
ENDBRANCH  31  32
ENDBRANCH   3  31
TORSDOF 6
