REMARK  Name = ZINC36206130
REMARK  15 active torsions:
REMARK  status: ('A' for Active; 'I' for Inactive)
REMARK    1  A    between atoms: C_1  and  C_2
REMARK    2  A    between atoms: C_2  and  C_3
REMARK    3  A    between atoms: C_2  and  O_4
REMARK    4  A    between atoms: O_4  and  C_5
REMARK    5  A    between atoms: C_5  and  C_6
REMARK    6  A    between atoms: C_6  and  C_8
REMARK    7  A    between atoms: C_6  and  O_33
REMARK    8  A    between atoms: C_8  and  N_9
REMARK    9  A    between atoms: N_9  and  C_10
REMARK   10  A    between atoms: N_9  and  C_14
REMARK   11  A    between atoms: C_10  and  C_11
REMARK   12  A    between atoms: C_11  and  O_12
REMARK   13  A    between atoms: O_12  and  C_13
REMARK   14  A    between atoms: C_14  and  C_15
REMARK   15  A    between atoms: C_21  and  C_26
REMARK                            x       y       z     vdW  Elec       q    Type
REMARK                         _______ _______ _______ _____ _____    ______ ____
ROOT
ATOM      1  C   UNL     1      -4.248  -6.263  -0.767  0.00  0.00    +0.094 A 
ATOM      2  N   UNL     1      -4.057  -7.569  -1.083  0.00  0.00    -0.312 N 
ATOM      3  H   UNL     1      -4.219  -7.867  -1.991  0.00  0.00    +0.170 HD
ATOM      4  C   UNL     1      -3.647  -8.459  -0.160  0.00  0.00    +0.260 A 
ATOM      5  O   UNL     1      -3.479  -9.629  -0.460  0.00  0.00    -0.267 OA
ATOM      6  C   UNL     1      -3.409  -8.011   1.179  0.00  0.00    +0.080 A 
ATOM      7  C   UNL     1      -2.966  -8.771   2.341  0.00  0.00    +0.004 A 
ATOM      8  C   UNL     1      -2.808  -8.124   3.521  0.00  0.00    +0.056 A 
ATOM      9  S   UNL     1      -3.251  -6.441   3.132  0.00  0.00    -0.076 S 
ATOM     10  C   UNL     1      -3.633  -6.644   1.411  0.00  0.00    +0.116 A 
ATOM     11  N   UNL     1      -4.035  -5.823   0.444  0.00  0.00    -0.229 NA
ENDROOT
BRANCH   7  12
ATOM     12  C   UNL     1      -2.694 -10.224   2.235  0.00  0.00    -0.016 A 
ATOM     13  C   UNL     1      -3.632 -11.070   1.645  0.00  0.00    +0.010 A 
ATOM     14  C   UNL     1      -3.374 -12.422   1.548  0.00  0.00    +0.020 A 
ATOM     15  C   UNL     1      -2.186 -12.939   2.035  0.00  0.00    +0.041 A 
ATOM     16  C   UNL     1      -1.251 -12.103   2.622  0.00  0.00    +0.020 A 
ATOM     17  C   UNL     1      -1.497 -10.749   2.719  0.00  0.00    +0.010 A 
ATOM     18 CL   UNL     1      -1.867 -14.640   1.909  0.00  0.00    -0.084 Cl
ENDBRANCH   7  12
BRANCH   1  19
ATOM     19  C   UNL     1      -4.707  -5.302  -1.833  0.00  0.00    -0.003 C 
BRANCH  19  20
ATOM     20  N   UNL     1      -4.698  -3.935  -1.298  0.00  0.00    +0.388 N 
ATOM     21  H   UNL     1      -5.229  -3.905  -0.441  0.00  0.00    -0.081 HD
BRANCH  20  22
ATOM     22  C   UNL     1      -3.313  -3.523  -1.031  0.00  0.00    -0.044 C 
BRANCH  22  23
ATOM     23  C   UNL     1      -3.310  -2.149  -0.358  0.00  0.00    +0.124 C 
BRANCH  23  24
ATOM     24  O   UNL     1      -3.930  -2.246   0.926  0.00  0.00    -0.391 OA
ATOM     25  H   UNL     1      -3.490  -2.860   1.529  0.00  0.00    +0.210 HD
ENDBRANCH  23  24
BRANCH  23  26
ATOM     26  C   UNL     1      -1.868  -1.665  -0.193  0.00  0.00    +0.189 C 
BRANCH  26  27
ATOM     27  O   UNL     1      -1.869  -0.334   0.328  0.00  0.00    -0.375 OA
BRANCH  27  29
ATOM     28  C   UNL     1      -0.619   1.734   0.341  0.00  0.00    +0.037 C 
ATOM     29  C   UNL     1      -0.564   0.215   0.521  0.00  0.00    +0.112 C 
ATOM     30  C   UNL     1      -0.076  -0.114   1.933  0.00  0.00    +0.037 C 
ENDBRANCH  27  29
ENDBRANCH  26  27
ENDBRANCH  23  26
ENDBRANCH  22  23
ENDBRANCH  20  22
BRANCH  20  31
ATOM     31  C   UNL     1      -5.300  -3.021  -2.278  0.00  0.00    -0.050 C 
BRANCH  31  32
ATOM     32  C   UNL     1      -6.782  -3.361  -2.449  0.00  0.00    +0.141 C 
BRANCH  32  33
ATOM     33  O   UNL     1      -7.472  -3.112  -1.223  0.00  0.00    -0.385 OA
ATOM     34  C   UNL     1      -8.887  -3.292  -1.306  0.00  0.00    +0.193 C 
ENDBRANCH  32  33
ENDBRANCH  31  32
ENDBRANCH  20  31
ENDBRANCH  19  20
ENDBRANCH   1  19
TORSDOF 12
