REMARK  Name = ZINC08623651
REMARK  6 active torsions:
REMARK  status: ('A' for Active; 'I' for Inactive)
REMARK    1  A    between atoms: C_1  and  C_2
REMARK    2  A    between atoms: C_8  and  N_10
REMARK    3  A    between atoms: C_14  and  C_16
REMARK    4  A    between atoms: C_16  and  N_17
REMARK    5  A    between atoms: C_20  and  C_24
REMARK    6  A    between atoms: C_20  and  C_25
REMARK                            x       y       z     vdW  Elec       q    Type
REMARK                         _______ _______ _______ _____ _____    ______ ____
ROOT
ATOM      1  C   UNL     1       0.721  -2.247  -5.777  0.00  0.00    +0.214 C 
ENDROOT
BRANCH   1   2
ATOM      2  N   UNL     1       0.253  -3.594  -6.109  0.00  0.00    -0.215 N 
ATOM      3  C   UNL     1      -0.798  -3.854  -6.911  0.00  0.00    +0.251 C 
ATOM      4  O   UNL     1      -1.507  -3.047  -7.474  0.00  0.00    -0.272 OA
ATOM      5  C   UNL     1      -0.909  -5.365  -6.966  0.00  0.00    +0.135 C 
ATOM      6  N   UNL     1       0.196  -5.824  -6.106  0.00  0.00    -0.281 N 
ATOM      7  C   UNL     1       0.818  -4.719  -5.657  0.00  0.00    +0.310 C 
ATOM      8  O   UNL     1       1.784  -4.741  -4.920  0.00  0.00    -0.252 OA
ATOM      9  C   UNL     1      -2.257  -5.826  -6.407  0.00  0.00    +0.047 C 
ATOM     10  H   UNL     1       0.431  -6.744  -5.907  0.00  0.00    +0.152 HD
BRANCH   5  11
ATOM     11  C   UNL     1      -0.724  -5.859  -8.377  0.00  0.00    -0.015 A 
ATOM     12  C   UNL     1      -1.105  -5.066  -9.443  0.00  0.00    +0.007 A 
ATOM     13  C   UNL     1      -0.931  -5.517 -10.738  0.00  0.00    +0.020 A 
ATOM     14  C   UNL     1      -0.385  -6.767 -10.967  0.00  0.00    +0.041 A 
ATOM     15  C   UNL     1      -0.009  -7.563  -9.899  0.00  0.00    +0.020 A 
ATOM     16  C   UNL     1      -0.179  -7.109  -8.605  0.00  0.00    +0.007 A 
ATOM     17 CL   UNL     1      -0.173  -7.338 -12.593  0.00  0.00    -0.084 Cl
ENDBRANCH   5  11
ENDBRANCH   1   2
BRANCH   1  22
ATOM     18  N   UNL     1      -0.067   1.120  -2.437  0.00  0.00    -0.296 N 
ATOM     19  C   UNL     1      -0.341  -0.103  -2.932  0.00  0.00    +0.306 C 
ATOM     20  O   UNL     1      -1.157  -0.814  -2.379  0.00  0.00    -0.252 OA
ATOM     21  N   UNL     1       0.290  -0.537  -4.041  0.00  0.00    -0.239 N 
ATOM     22  C   UNL     1       0.016  -1.761  -4.537  0.00  0.00    +0.238 C 
ATOM     23  O   UNL     1      -0.798  -2.470  -3.985  0.00  0.00    -0.274 OA
ATOM     24  H   UNL     1       0.584   1.688  -2.878  0.00  0.00    +0.151 HD
ATOM     25  H   UNL     1       0.941   0.030  -4.483  0.00  0.00    +0.159 HD
BRANCH  18  32
ATOM     26  C   UNL     1      -1.513   3.629  -2.463  0.00  0.00    +0.009 C 
ATOM     27  C   UNL     1      -0.773   3.123  -1.223  0.00  0.00    +0.006 C 
ATOM     28  C   UNL     1      -1.490   3.616   0.036  0.00  0.00    +0.005 C 
ATOM     29  C   UNL     1      -0.750   3.109   1.275  0.00  0.00    +0.000 C 
ATOM     30  C   UNL     1      -0.729   1.579   1.267  0.00  0.00    +0.002 C 
ATOM     31  C   UNL     1      -0.013   1.086   0.008  0.00  0.00    +0.022 C 
ATOM     32  C   UNL     1      -0.753   1.593  -1.232  0.00  0.00    +0.077 C 
ENDBRANCH  18  32
ENDBRANCH   1  22
TORSDOF 4
