REMARK  Name = ZINC40824653
REMARK  7 active torsions:
REMARK  status: ('A' for Active; 'I' for Inactive)
REMARK    1  A    between atoms: C_1  and  C_2
REMARK    2  A    between atoms: C_5  and  N_9
REMARK    3  A    between atoms: C_10  and  C_12
REMARK    4  A    between atoms: C_13  and  C_26
REMARK    5  A    between atoms: N_21  and  N_22
REMARK    6  A    between atoms: N_22  and  C_23
REMARK    7  A    between atoms: C_23  and  N_25
REMARK                            x       y       z     vdW  Elec       q    Type
REMARK                         _______ _______ _______ _____ _____    ______ ____
ROOT
ATOM      1  C   UNL     1      -0.130  -6.302  -1.190  0.00  0.00    +0.193 A 
ATOM      2  C   UNL     1      -0.228  -7.096  -2.299  0.00  0.00    +0.009 A 
ATOM      3  C   UNL     1      -0.288  -8.414  -1.833  0.00  0.00    +0.042 A 
ATOM      4  C   UNL     1      -0.227  -8.370  -0.460  0.00  0.00    +0.115 A 
ATOM      5  O   UNL     1      -0.124  -7.095  -0.094  0.00  0.00    -0.454 OA
ATOM      6  C   UNL     1      -0.270  -9.606   0.403  0.00  0.00    +0.075 C 
ATOM      7  C   UNL     1      -0.890 -10.759  -0.391  0.00  0.00    +0.014 C 
ATOM      8  C   UNL     1      -0.169 -10.943  -1.730  0.00  0.00    +0.058 C 
ATOM      9  C   UNL     1      -0.396  -9.694  -2.569  0.00  0.00    +0.070 C 
ATOM     10  N   UNL     1      -0.665  -9.747  -3.837  0.00  0.00    -0.185 NA
ATOM     11  C   UNL     1      -0.264  -6.641  -3.736  0.00  0.00    +0.048 C 
ENDROOT
BRANCH   1  13
ATOM     12  N   UNL     1       0.059  -4.170  -0.023  0.00  0.00    -0.278 N 
ATOM     13  C   UNL     1      -0.039  -4.838  -1.189  0.00  0.00    +0.284 C 
ATOM     14  O   UNL     1      -0.053  -4.227  -2.241  0.00  0.00    -0.266 OA
ATOM     15  H   UNL     1       0.136  -4.659   0.811  0.00  0.00    +0.155 HD
BRANCH  12  20
ATOM     16  C   UNL     1       0.025   1.503   0.006  0.00  0.00    +0.044 C 
ATOM     17  C   UNL     1       0.033  -0.004  -0.001  0.00  0.00    -0.049 A 
ATOM     18  C   UNL     1       0.631  -0.685  -1.046  0.00  0.00    +0.005 A 
ATOM     19  C   UNL     1       0.642  -2.066  -1.056  0.00  0.00    +0.025 A 
ATOM     20  C   UNL     1       0.051  -2.771  -0.015  0.00  0.00    +0.048 A 
ATOM     21  C   UNL     1      -0.549  -2.084   1.033  0.00  0.00    +0.039 A 
ATOM     22  C   UNL     1      -0.551  -0.702   1.039  0.00  0.00    +0.020 A 
ATOM     23 BR   UNL     1      -1.356  -3.038   2.452  0.00  0.00    -0.048 Br
ENDBRANCH  12  20
ENDBRANCH   1  13
BRANCH  10  24
ATOM     24  N   UNL     1      -0.756 -10.987  -4.482  0.00  0.00    -0.218 N 
ATOM     25  H   UNL     1      -0.617 -11.806  -3.982  0.00  0.00    +0.176 HD
BRANCH  24  26
ATOM     26  C   UNL     1      -1.036 -11.042  -5.800  0.00  0.00    +0.147 C 
ATOM     27  S   UNL     1      -1.146 -12.558  -6.589  0.00  0.00    -0.017 S 
BRANCH  26  28
ATOM     28  N   UNL     1      -1.229  -9.905  -6.496  0.00  0.00    -0.339 N 
ATOM     29  H   UNL     1      -1.166  -9.046  -6.049  0.00  0.00    +0.144 HD
ATOM     30  H   UNL     1      -1.430  -9.944  -7.444  0.00  0.00    +0.144 HD
ENDBRANCH  26  28
ENDBRANCH  24  26
ENDBRANCH  10  24
TORSDOF 5
