REMARK  Name = ZINC51605621
REMARK  6 active torsions:
REMARK  status: ('A' for Active; 'I' for Inactive)
REMARK    1  A    between atoms: C_3  and  S_6
REMARK    2  A    between atoms: S_6  and  N_9
REMARK    3  A    between atoms: N_9  and  C_10
REMARK    4  A    between atoms: C_13  and  C_16
REMARK    5  A    between atoms: C_16  and  C_17
REMARK    6  A    between atoms: N_18  and  O_19
REMARK                            x       y       z     vdW  Elec       q    Type
REMARK                         _______ _______ _______ _____ _____    ______ ____
ROOT
ATOM      1  C   UNL     1       5.762   2.548   1.851  0.00  0.00    +0.074 A 
ATOM      2  C   UNL     1       6.639   2.878   0.826  0.00  0.00    +0.027 A 
ATOM      3  C   UNL     1       7.909   3.333   1.126  0.00  0.00    +0.006 A 
ATOM      4  C   UNL     1       8.307   3.458   2.444  0.00  0.00    -0.040 A 
ATOM      5  C   UNL     1       7.436   3.130   3.467  0.00  0.00    +0.006 A 
ATOM      6  C   UNL     1       6.163   2.681   3.175  0.00  0.00    +0.027 A 
ENDROOT
BRANCH   1   7
ATOM      7  N   UNL     1       4.477   2.089   1.552  0.00  0.00    -0.097 NA
BRANCH   7   8
ATOM      8  S   UNL     1       4.001   1.932  -0.026  0.00  0.00    +0.098 S 
ATOM      9  O   UNL     1       4.799   0.900  -0.590  0.00  0.00    -0.148 OA
ATOM     10  O   UNL     1       3.957   3.244  -0.570  0.00  0.00    -0.148 OA
BRANCH   8  13
ATOM     11  C   UNL     1      -0.016   1.351   0.009  0.00  0.00    +0.010 A 
ATOM     12  C   UNL     1       1.183   2.038   0.002  0.00  0.00    +0.037 A 
ATOM     13  C   UNL     1       2.343   1.336  -0.013  0.00  0.00    +0.148 A 
ATOM     14  S   UNL     1       1.754  -0.349  -0.017  0.00  0.00    -0.077 S 
ATOM     15  C   UNL     1       0.002  -0.004   0.002  0.00  0.00    +0.047 A 
ENDBRANCH   8  13
ENDBRANCH   7   8
ENDBRANCH   1   7
BRANCH   4  16
ATOM     16  C   UNL     1       9.693   3.953   2.767  0.00  0.00    +0.109 C 
BRANCH  16  17
ATOM     17  C   UNL     1       9.674   5.455   2.893  0.00  0.00    +0.136 C 
ATOM     18  N   UNL     1       8.569   6.103   2.725  0.00  0.00    -0.076 NA
ATOM     19  N   UNL     1      10.834   6.136   3.186  0.00  0.00    -0.344 N 
ATOM     20  H   UNL     1      11.664   5.649   3.312  0.00  0.00    +0.144 HD
ATOM     21  H   UNL     1      10.822   7.103   3.267  0.00  0.00    +0.144 HD
BRANCH  18  22
ATOM     22  O   UNL     1       8.551   7.514   2.843  0.00  0.00    -0.408 OA
ATOM     23  H   UNL     1       7.680   7.909   2.701  0.00  0.00    +0.328 HD
ENDBRANCH  18  22
ENDBRANCH  16  17
ENDBRANCH   4  16
TORSDOF 6
