REMARK  Name = ZINC02923373
REMARK  16 active torsions:
REMARK  status: ('A' for Active; 'I' for Inactive)
REMARK    1  A    between atoms: C_1  and  C_2
REMARK    2  A    between atoms: C_2  and  C_3
REMARK    3  A    between atoms: C_3  and  O_4
REMARK    4  A    between atoms: O_4  and  C_5
REMARK    5  A    between atoms: C_5  and  C_7
REMARK    6  A    between atoms: C_8  and  C_41
REMARK    7  A    between atoms: C_12  and  C_14
REMARK    8  A    between atoms: C_17  and  O_23
REMARK    9  A    between atoms: C_18  and  O_20
REMARK   10  A    between atoms: O_20  and  C_21
REMARK   11  A    between atoms: C_21  and  C_22
REMARK   12  A    between atoms: O_23  and  C_24
REMARK   13  A    between atoms: C_24  and  C_26
REMARK   14  A    between atoms: C_30  and  C_33
REMARK   15  A    between atoms: C_36  and  O_39
REMARK   16  A    between atoms: O_39  and  C_40
REMARK                            x       y       z     vdW  Elec       q    Type
REMARK                         _______ _______ _______ _____ _____    ______ ____
ROOT
ATOM      1  C   UNL     1       6.870  -0.948  -1.372  0.00  0.00    +0.065 C 
ATOM      2  C   UNL     1       6.193  -0.627  -2.488  0.00  0.00    +0.016 C 
ATOM      3  N   UNL     1       5.218   0.331  -2.455  0.00  0.00    -0.321 N 
ATOM      4  C   UNL     1       4.636   0.693  -1.270  0.00  0.00    +0.016 C 
ATOM      5  C   UNL     1       5.245   0.424  -0.096  0.00  0.00    +0.024 C 
ATOM      6  C   UNL     1       6.585  -0.267  -0.065  0.00  0.00    +0.092 C 
ATOM      7  C   UNL     1       4.650   0.776   1.128  0.00  0.00    +0.162 C 
ATOM      8  O   UNL     1       5.231   0.529   2.166  0.00  0.00    -0.292 OA
ATOM      9  C   UNL     1       3.308   1.453   1.176  0.00  0.00    +0.088 C 
ATOM     10  C   UNL     1       2.497   1.039  -0.057  0.00  0.00    +0.032 C 
ATOM     11  C   UNL     1       3.301   1.395  -1.309  0.00  0.00    +0.059 C 
ATOM     12  C   UNL     1       6.511  -1.327  -3.784  0.00  0.00    +0.061 C 
ATOM     13  H   UNL     1       4.894   0.818  -3.386  0.00  0.00    +0.152 HD
ENDROOT
BRANCH   6  14
ATOM     14  C   UNL     1       7.661   0.754   0.204  0.00  0.00    -0.032 A 
ATOM     15  C   UNL     1       7.864   1.794  -0.684  0.00  0.00    +0.008 A 
ATOM     16  C   UNL     1       8.849   2.732  -0.441  0.00  0.00    +0.050 A 
ATOM     17  C   UNL     1       9.636   2.633   0.696  0.00  0.00    +0.173 A 
ATOM     18  C   UNL     1       9.431   1.586   1.590  0.00  0.00    +0.163 A 
ATOM     19  C   UNL     1       8.439   0.651   1.343  0.00  0.00    +0.054 A 
BRANCH  18  20
ATOM     20  O   UNL     1      10.200   1.484   2.707  0.00  0.00    -0.489 OA
BRANCH  20  21
ATOM     21  C   UNL     1       9.934   0.384   3.579  0.00  0.00    +0.226 C 
ATOM     22  C   UNL     1      10.892   0.436   4.772  0.00  0.00    +0.048 C 
ENDBRANCH  20  21
ENDBRANCH  18  20
BRANCH  17  23
ATOM     23  O   UNL     1      10.605   3.556   0.937  0.00  0.00    -0.422 OA
BRANCH  23  24
ATOM     24  C   UNL     1      11.861   3.221   0.604  0.00  0.00    +0.309 C 
ATOM     25  O   UNL     1      12.077   2.182   0.026  0.00  0.00    -0.251 OA
ATOM     26  C   UNL     1      13.004   4.140   0.953  0.00  0.00    +0.136 C 
ENDBRANCH  23  24
ENDBRANCH  17  23
ENDBRANCH   6  14
BRANCH  10  27
ATOM     27  C   UNL     1       1.184   1.779  -0.071  0.00  0.00    -0.043 A 
ATOM     28  C   UNL     1      -0.006   1.074  -0.062  0.00  0.00    +0.007 A 
ATOM     29  C   UNL     1      -1.210   1.750  -0.081  0.00  0.00    +0.046 A 
ATOM     30  C   UNL     1      -1.226   3.137  -0.096  0.00  0.00    +0.120 A 
ATOM     31  C   UNL     1      -0.031   3.842  -0.104  0.00  0.00    +0.046 A 
ATOM     32  C   UNL     1       1.171   3.161  -0.091  0.00  0.00    +0.007 A 
BRANCH  30  33
ATOM     33  O   UNL     1      -2.410   3.804  -0.109  0.00  0.00    -0.495 OA
ATOM     34  C   UNL     1      -3.600   3.014  -0.100  0.00  0.00    +0.277 C 
ENDBRANCH  30  33
ENDBRANCH  10  27
BRANCH   1  35
ATOM     35  C   UNL     1       7.869  -1.948  -1.430  0.00  0.00    +0.338 C 
ATOM     36  O   UNL     1       8.109  -2.508  -2.483  0.00  0.00    -0.245 OA
BRANCH  35  37
ATOM     37  O   UNL     1       8.556  -2.280  -0.317  0.00  0.00    -0.461 OA
BRANCH  37  38
ATOM     38  C   UNL     1       9.551  -3.298  -0.448  0.00  0.00    +0.232 C 
BRANCH  38  40
ATOM     39  C   UNL     1      11.283  -4.626   0.767  0.00  0.00    +0.007 C 
ATOM     40  C   UNL     1      10.218  -3.537   0.907  0.00  0.00    +0.038 C 
ENDBRANCH  38  40
ENDBRANCH  37  38
ENDBRANCH  35  37
ENDBRANCH   1  35
TORSDOF 11
