REMARK  Name = ZINC39666820
REMARK  11 active torsions:
REMARK  status: ('A' for Active; 'I' for Inactive)
REMARK    1  A    between atoms: C_1  and  C_2
REMARK    2  A    between atoms: C_2  and  C_3
REMARK    3  A    between atoms: C_3  and  C_5
REMARK    4  A    between atoms: C_3  and  C_11
REMARK    5  A    between atoms: C_15  and  C_24
REMARK    6  A    between atoms: N_26  and  C_27
REMARK    7  A    between atoms: C_27  and  C_28
REMARK    8  A    between atoms: C_28  and  C_29
REMARK    9  A    between atoms: C_28  and  C_31
REMARK   10  A    between atoms: C_29  and  C_30
REMARK   11  A    between atoms: C_31  and  C_32
REMARK                            x       y       z     vdW  Elec       q    Type
REMARK                         _______ _______ _______ _____ _____    ______ ____
ROOT
ATOM      1  C   UNL     1      -1.367  -1.689   0.042  0.00  0.00    +0.223 C 
ATOM      2  O   UNL     1      -1.840  -2.357  -0.853  0.00  0.00    -0.275 OA
ATOM      3  N   UNL     1      -0.795  -2.292   1.103  0.00  0.00    -0.300 N 
ATOM      4  C   UNL     1      -0.175  -1.652   2.287  0.00  0.00    +0.121 C 
ATOM      5  C   UNL     1      -0.603  -2.538   3.479  0.00  0.00    +0.100 C 
ATOM      6  C   UNL     1      -0.908  -3.911   2.857  0.00  0.00    -0.004 C 
ATOM      7  C   UNL     1      -0.650  -3.747   1.352  0.00  0.00    +0.115 C 
ATOM      8  C   UNL     1       0.020  -4.973   3.440  0.00  0.00    -0.010 C 
ATOM      9  C   UNL     1      -0.341  -6.339   2.850  0.00  0.00    -0.082 C 
ATOM     10  N   UNL     1      -1.739  -6.656   3.165  0.00  0.00    +0.379 N 
ATOM     11  C   UNL     1      -2.630  -5.682   2.523  0.00  0.00    -0.082 C 
ATOM     12  C   UNL     1      -2.366  -4.288   3.099  0.00  0.00    -0.010 C 
ATOM     13  H   UNL     1      -1.957  -7.582   2.829  0.00  0.00    -0.086 HD
ATOM     14  H   UNL     1      -1.873  -6.625   4.165  0.00  0.00    -0.086 HD
ENDROOT
BRANCH   5  15
ATOM     15  C   UNL     1       0.519  -2.649   4.479  0.00  0.00    +0.218 C 
ATOM     16  O   UNL     1       1.672  -2.610   4.104  0.00  0.00    -0.275 OA
ATOM     17  N   UNL     1       0.241  -2.793   5.790  0.00  0.00    -0.315 N 
ATOM     18  H   UNL     1      -0.681  -2.824   6.090  0.00  0.00    +0.149 HD
BRANCH  17  19
ATOM     19  C   UNL     1       1.332  -2.901   6.762  0.00  0.00    +0.107 C 
BRANCH  19  20
ATOM     20  C   UNL     1       0.750  -3.155   8.154  0.00  0.00    +0.006 C 
BRANCH  20  21
ATOM     21  C   UNL     1       1.890  -3.382   9.149  0.00  0.00    +0.002 C 
ATOM     22  C   UNL     1       1.309  -3.759  10.514  0.00  0.00    +0.004 C 
ENDBRANCH  20  21
BRANCH  20  23
ATOM     23  C   UNL     1      -0.074  -1.942   8.592  0.00  0.00    +0.002 C 
ATOM     24  C   UNL     1       0.823  -0.704   8.631  0.00  0.00    +0.004 C 
ENDBRANCH  20  23
ENDBRANCH  19  20
ENDBRANCH  17  19
ENDBRANCH   5  15
BRANCH   1  25
ATOM     25  C   UNL     1      -1.418  -0.185  -0.032  0.00  0.00    +0.105 C 
BRANCH  25  26
ATOM     26  C   UNL     1      -2.103   0.233  -1.307  0.00  0.00    -0.036 A 
ATOM     27  C   UNL     1      -1.581  -0.149  -2.529  0.00  0.00    +0.004 A 
ATOM     28  C   UNL     1      -2.209   0.234  -3.699  0.00  0.00    +0.000 A 
ATOM     29  C   UNL     1      -3.360   0.998  -3.648  0.00  0.00    +0.000 A 
ATOM     30  C   UNL     1      -3.883   1.378  -2.426  0.00  0.00    +0.000 A 
ATOM     31  C   UNL     1      -3.257   0.992  -1.256  0.00  0.00    +0.004 A 
ENDBRANCH  25  26
BRANCH  25  33
ATOM     32  C   UNL     1      -0.049   1.904   0.041  0.00  0.00    +0.005 C 
ATOM     33  C   UNL     1       0.005   0.376  -0.010  0.00  0.00    +0.014 C 
ENDBRANCH  25  33
ENDBRANCH   1  25
TORSDOF 8
