REMARK  Name = ZINC08385618
REMARK  6 active torsions:
REMARK  status: ('A' for Active; 'I' for Inactive)
REMARK    1  A    between atoms: C_6  and  C_7
REMARK    2  A    between atoms: C_11  and  C_25
REMARK    3  A    between atoms: C_14  and  C_15
REMARK    4  A    between atoms: N_17  and  C_18
REMARK    5  A    between atoms: C_25  and  N_26
REMARK    6  A    between atoms: N_26  and  C_27
REMARK                            x       y       z     vdW  Elec       q    Type
REMARK                         _______ _______ _______ _____ _____    ______ ____
ROOT
ATOM      1  C   UNL     1      -1.011   2.498   0.343  0.00  0.00    +0.019 A 
ATOM      2  C   UNL     1      -0.071   1.495   0.265  0.00  0.00    +0.005 A 
ATOM      3  C   UNL     1       1.135   2.134   0.057  0.00  0.00    +0.141 A 
ATOM      4  N   UNL     1       2.425   1.747  -0.152  0.00  0.00    -0.311 N 
ATOM      5  C   UNL     1       3.168   2.868   0.012  0.00  0.00    +0.149 A 
ATOM      6  N   UNL     1       2.371   3.897   0.182  0.00  0.00    -0.150 NA
ATOM      7  N   UNL     1       1.038   3.463   0.180  0.00  0.00    -0.209 N 
ATOM      8  C   UNL     1      -0.314   3.729   0.277  0.00  0.00    +0.138 A 
ATOM      9  C   UNL     1       2.756   0.374  -0.586  0.00  0.00    +0.125 C 
ATOM     10  C   UNL     1       1.664  -0.025  -1.587  0.00  0.00    +0.022 C 
ATOM     11  C   UNL     1       0.361  -0.589  -1.000  0.00  0.00    +0.006 C 
ATOM     12  C   UNL     1      -0.058  -0.009   0.341  0.00  0.00    +0.039 C 
ENDROOT
BRANCH   1  18
ATOM     13  C   UNL     1      -3.204   1.735  -0.564  0.00  0.00    +0.009 A 
ATOM     14  C   UNL     1      -4.567   1.570  -0.438  0.00  0.00    +0.016 A 
ATOM     15  C   UNL     1      -5.216   1.996   0.709  0.00  0.00    +0.018 A 
ATOM     16  C   UNL     1      -4.500   2.584   1.737  0.00  0.00    +0.016 A 
ATOM     17  C   UNL     1      -3.135   2.750   1.623  0.00  0.00    +0.009 A 
ATOM     18  C   UNL     1      -2.476   2.323   0.471  0.00  0.00    -0.015 A 
ATOM     19 BR   UNL     1      -7.087   1.773   0.871  0.00  0.00    -0.050 Br
ENDBRANCH   1  18
BRANCH   8  20
ATOM     20  C   UNL     1      -0.902   5.012   0.306  0.00  0.00    +0.267 C 
ATOM     21  O   UNL     1      -2.112   5.125   0.394  0.00  0.00    -0.268 OA
ATOM     22  N   UNL     1      -0.125   6.111   0.236  0.00  0.00    -0.280 N 
ATOM     23  H   UNL     1       0.841   6.023   0.244  0.00  0.00    +0.155 HD
BRANCH  22  24
ATOM     24  C   UNL     1      -0.712   7.378   0.154  0.00  0.00    +0.034 A 
ATOM     25  C   UNL     1      -1.913   7.546  -0.524  0.00  0.00    +0.025 A 
ATOM     26  C   UNL     1      -2.493   8.797  -0.599  0.00  0.00    +0.022 A 
ATOM     27  C   UNL     1      -1.873   9.885  -0.009  0.00  0.00    +0.041 A 
ATOM     28  C   UNL     1      -0.674   9.721   0.661  0.00  0.00    +0.022 A 
ATOM     29  C   UNL     1      -0.092   8.472   0.744  0.00  0.00    +0.025 A 
ATOM     30 CL   UNL     1      -2.602  11.457  -0.111  0.00  0.00    -0.084 Cl
ENDBRANCH  22  24
ENDBRANCH   8  20
BRANCH   5  31
ATOM     31  C   UNL     1       4.674   2.925   0.000  0.00  0.00    +0.178 C 
BRANCH  31  32
ATOM     32  N   UNL     1       5.144   3.155  -1.369  0.00  0.00    -0.337 N 
ATOM     33  H   UNL     1       4.504   3.244  -2.092  0.00  0.00    +0.147 HD
BRANCH  32  34
ATOM     34  C   UNL     1       6.513   3.246  -1.631  0.00  0.00    +0.028 A 
ATOM     35  C   UNL     1       7.430   3.124  -0.595  0.00  0.00    +0.024 A 
ATOM     36  C   UNL     1       8.783   3.209  -0.859  0.00  0.00    +0.022 A 
ATOM     37  C   UNL     1       9.225   3.426  -2.152  0.00  0.00    +0.041 A 
ATOM     38  C   UNL     1       8.314   3.553  -3.186  0.00  0.00    +0.022 A 
ATOM     39  C   UNL     1       6.960   3.463  -2.929  0.00  0.00    +0.024 A 
ATOM     40 CL   UNL     1      10.927   3.539  -2.479  0.00  0.00    -0.084 Cl
ENDBRANCH  32  34
ENDBRANCH  31  32
ENDBRANCH   5  31
TORSDOF 6
