REMARK  Name = ZINC64370046
REMARK  8 active torsions:
REMARK  status: ('A' for Active; 'I' for Inactive)
REMARK    1  A    between atoms: C_1  and  C_2
REMARK    2  A    between atoms: C_3  and  N_9
REMARK    3  A    between atoms: C_10  and  C_12
REMARK    4  A    between atoms: C_12  and  S_13
REMARK    5  A    between atoms: S_13  and  C_14
REMARK    6  A    between atoms: C_17  and  C_20
REMARK    7  A    between atoms: N_18  and  C_19
REMARK    8  A    between atoms: C_21  and  N_29
REMARK                            x       y       z     vdW  Elec       q    Type
REMARK                         _______ _______ _______ _____ _____    ______ ____
ROOT
ATOM      1  C   UNL     1       0.425  -0.023  -7.682  0.00  0.00    +0.192 A 
ATOM      2  N   UNL     1       0.414   1.290  -7.692  0.00  0.00    -0.122 NA
ATOM      3  N   UNL     1       0.506   1.725  -8.898  0.00  0.00    -0.128 NA
ATOM      4  C   UNL     1       0.582   0.713  -9.736  0.00  0.00    +0.173 A 
ATOM      5  N   UNL     1       0.538  -0.439  -8.980  0.00  0.00    -0.305 N 
ATOM      6  C   UNL     1       0.597  -1.820  -9.466  0.00  0.00    +0.153 C 
ENDROOT
BRANCH   4   7
ATOM      7  C   UNL     1       0.696   0.795 -11.198  0.00  0.00    +0.080 A 
ATOM      8  C   UNL     1       0.753   1.909 -11.978  0.00  0.00    +0.052 A 
ATOM      9  C   UNL     1       0.867   1.749 -13.419  0.00  0.00    +0.029 A 
ATOM     10  C   UNL     1       0.941   2.749 -14.420  0.00  0.00    +0.014 A 
ATOM     11  C   UNL     1       1.045   2.367 -15.737  0.00  0.00    +0.020 A 
ATOM     12  C   UNL     1       1.077   1.023 -16.077  0.00  0.00    +0.112 A 
ATOM     13  N   UNL     1       1.007   0.095 -15.142  0.00  0.00    -0.248 NA
ATOM     14  C   UNL     1       0.907   0.410 -13.870  0.00  0.00    +0.111 A 
ATOM     15  S   UNL     1       0.801  -0.540 -12.374  0.00  0.00    -0.064 S 
BRANCH   8  16
ATOM     16  N   UNL     1       0.702   3.186 -11.404  0.00  0.00    -0.356 N 
ATOM     17  H   UNL     1       0.626   3.282 -10.441  0.00  0.00    +0.142 HD
ATOM     18  H   UNL     1       0.744   3.974 -11.968  0.00  0.00    +0.142 HD
ENDBRANCH   8  16
ENDBRANCH   4   7
BRANCH   1  19
ATOM     19  S   UNL     1       0.322  -1.057  -6.259  0.00  0.00    -0.077 S 
BRANCH  19  20
ATOM     20  C   UNL     1       0.192   0.111  -4.876  0.00  0.00    +0.173 C 
BRANCH  20  22
ATOM     21  N   UNL     1      -0.010   0.011  -2.413  0.00  0.00    -0.285 N 
ATOM     22  C   UNL     1       0.095  -0.653  -3.581  0.00  0.00    +0.227 C 
ATOM     23  O   UNL     1       0.112  -1.866  -3.590  0.00  0.00    -0.275 OA
ATOM     24  H   UNL     1      -0.104   0.977  -2.411  0.00  0.00    +0.155 HD
BRANCH  21  27
ATOM     25  C   UNL     1      -1.263   1.190  -0.146  0.00  0.00    +0.047 C 
ATOM     26  C   UNL     1      -0.583  -0.153  -0.073  0.00  0.00    -0.011 A 
ATOM     27  C   UNL     1       0.017  -0.692  -1.204  0.00  0.00    +0.038 A 
ATOM     28  C   UNL     1       0.642  -1.929  -1.132  0.00  0.00    +0.023 A 
ATOM     29  C   UNL     1       0.667  -2.621   0.064  0.00  0.00    +0.003 A 
ATOM     30  C   UNL     1       0.069  -2.084   1.188  0.00  0.00    +0.020 A 
ATOM     31  C   UNL     1      -0.550  -0.848   1.122  0.00  0.00    +0.046 A 
ATOM     32 CL   UNL     1      -1.293  -0.173   2.538  0.00  0.00    -0.083 Cl
ENDBRANCH  21  27
ENDBRANCH  20  22
ENDBRANCH  19  20
ENDBRANCH   1  19
TORSDOF 6
