REMARK  Name = ZINC19957508
REMARK  7 active torsions:
REMARK  status: ('A' for Active; 'I' for Inactive)
REMARK    1  A    between atoms: C_1  and  C_2
REMARK    2  A    between atoms: C_4  and  C_7
REMARK    3  A    between atoms: C_7  and  N_8
REMARK    4  A    between atoms: C_9  and  C_11
REMARK    5  A    between atoms: C_11  and  C_12
REMARK    6  A    between atoms: N_19  and  C_20
REMARK    7  A    between atoms: C_20  and  C_21
REMARK                            x       y       z     vdW  Elec       q    Type
REMARK                         _______ _______ _______ _____ _____    ______ ____
ROOT
ATOM      1  C   UNL     1       7.297   1.406  -3.206  0.00  0.00    +0.028 C 
ATOM      2  C   UNL     1       7.695   1.383  -4.655  0.00  0.00    +0.200 C 
ATOM      3  O   UNL     1       7.136   0.607  -5.399  0.00  0.00    -0.278 OA
ATOM      4  N   UNL     1       8.641   2.184  -5.157  0.00  0.00    -0.318 N 
ATOM      5  C   UNL     1       9.348   3.179  -4.355  0.00  0.00    +0.085 C 
ATOM      6  C   UNL     1       9.192   2.859  -2.867  0.00  0.00    -0.058 C 
ATOM      7  N   UNL     1       7.764   2.648  -2.576  0.00  0.00    +0.391 N 
ATOM      8  H   UNL     1       8.878   2.070  -6.225  0.00  0.00    +0.149 HD
ATOM      9  H   UNL     1       7.193   3.488  -2.997  0.00  0.00    -0.080 HD
ENDROOT
BRANCH   1  10
ATOM     10  C   UNL     1       5.773   1.324  -3.097  0.00  0.00    +0.089 C 
BRANCH  10  12
ATOM     11  N   UNL     1       3.817   2.616  -3.887  0.00  0.00    -0.308 N 
ATOM     12  C   UNL     1       5.156   2.529  -3.760  0.00  0.00    +0.212 C 
ATOM     13  O   UNL     1       5.865   3.419  -4.179  0.00  0.00    -0.276 OA
ATOM     14  H   UNL     1       3.175   1.808  -3.507  0.00  0.00    +0.149 HD
BRANCH  11  15
ATOM     15  C   UNL     1       3.218   3.787  -4.532  0.00  0.00    +0.181 C 
BRANCH  15  19
ATOM     16  C   UNL     1      -1.750   3.904  -3.429  0.00  0.00    +0.069 C 
ATOM     17  C   UNL     1      -0.415   3.680  -4.092  0.00  0.00    +0.081 A 
ATOM     18  C   UNL     1       0.852   4.059  -3.593  0.00  0.00    +0.072 A 
ATOM     19  C   UNL     1       1.718   3.640  -4.547  0.00  0.00    +0.154 A 
ATOM     20  O   UNL     1       0.978   3.068  -5.507  0.00  0.00    -0.358 OA
ATOM     21  N   UNL     1      -0.201   3.100  -5.237  0.00  0.00    -0.083 NA
ENDBRANCH  15  19
ENDBRANCH  11  15
ENDBRANCH  10  12
ENDBRANCH   1  10
BRANCH   7  22
ATOM     22  C   UNL     1       7.520   2.628  -1.128  0.00  0.00    -0.042 C 
BRANCH  22  23
ATOM     23  C   UNL     1       8.098   3.872  -0.503  0.00  0.00    -0.061 A 
ATOM     24  C   UNL     1       9.402   3.872  -0.044  0.00  0.00    +0.003 A 
ATOM     25  C   UNL     1       9.935   5.013   0.525  0.00  0.00    +0.023 A 
ATOM     26  C   UNL     1       9.162   6.153   0.644  0.00  0.00    +0.076 A 
ATOM     27  C   UNL     1       7.853   6.152   0.189  0.00  0.00    +0.142 A 
ATOM     28  C   UNL     1       7.322   5.009  -0.385  0.00  0.00    +0.041 A 
ATOM     29  F   UNL     1       7.096   7.264   0.305  0.00  0.00    -0.204 F 
ATOM     30 CL   UNL     1       9.829   7.585   1.364  0.00  0.00    -0.081 Cl
ENDBRANCH  22  23
ENDBRANCH   7  22
TORSDOF 6
