REMARK  Name = ZINC63752521
REMARK  7 active torsions:
REMARK  status: ('A' for Active; 'I' for Inactive)
REMARK    1  A    between atoms: C_1  and  C_2
REMARK    2  A    between atoms: C_7  and  C_22
REMARK    3  A    between atoms: C_9  and  N_12
REMARK    4  A    between atoms: C_13  and  C_15
REMARK    5  A    between atoms: N_24  and  C_25
REMARK    6  A    between atoms: C_25  and  C_26
REMARK    7  A    between atoms: C_26  and  C_27
REMARK                            x       y       z     vdW  Elec       q    Type
REMARK                         _______ _______ _______ _____ _____    ______ ____
ROOT
ATOM      1  C   UNL     1      -2.449   0.921   0.249  0.00  0.00    +0.044 C 
ATOM      2  C   UNL     1      -1.738  -0.405   0.169  0.00  0.00    -0.050 A 
ATOM      3  C   UNL     1      -1.588  -1.024  -1.075  0.00  0.00    +0.005 A 
ATOM      4  C   UNL     1      -0.958  -2.216  -1.211  0.00  0.00    +0.026 A 
ATOM      5  C   UNL     1      -0.430  -2.869  -0.067  0.00  0.00    +0.045 A 
ATOM      6  N   UNL     1       0.213  -4.012   0.065  0.00  0.00    -0.369 N 
ATOM      7  C   UNL     1       0.537  -4.219   1.480  0.00  0.00    +0.211 C 
ATOM      8  C   UNL     1      -0.010  -3.014   2.213  0.00  0.00    +0.051 C 
ATOM      9  C   UNL     1      -0.590  -2.215   1.242  0.00  0.00    +0.018 A 
ATOM     10  C   UNL     1      -1.255  -0.967   1.305  0.00  0.00    +0.015 A 
ATOM     11  H   UNL     1       0.435  -4.620  -0.657  0.00  0.00    +0.161 HD
ENDROOT
BRANCH   8  12
ATOM     12  N   UNL     1       0.055  -2.767   3.550  0.00  0.00    -0.282 N 
ATOM     13  C   UNL     1       0.141  -1.498   3.997  0.00  0.00    +0.248 C 
ATOM     14  O   UNL     1       0.126  -0.573   3.209  0.00  0.00    -0.270 OA
ATOM     15  H   UNL     1       0.039  -3.503   4.181  0.00  0.00    +0.155 HD
BRANCH  13  16
ATOM     16  C   UNL     1       0.255  -1.232   5.445  0.00  0.00    +0.037 A 
ATOM     17  C   UNL     1       0.279  -2.293   6.354  0.00  0.00    +0.014 A 
ATOM     18  C   UNL     1       0.385  -2.038   7.704  0.00  0.00    +0.021 A 
ATOM     19  C   UNL     1       0.468  -0.733   8.161  0.00  0.00    +0.041 A 
ATOM     20  C   UNL     1       0.444   0.324   7.266  0.00  0.00    +0.021 A 
ATOM     21  C   UNL     1       0.345   0.082   5.912  0.00  0.00    +0.014 A 
ATOM     22 CL   UNL     1       0.601  -0.419   9.864  0.00  0.00    -0.084 Cl
ENDBRANCH  13  16
ENDBRANCH   8  12
BRANCH   7  23
ATOM     23  C   UNL     1      -0.120  -5.477   1.985  0.00  0.00    +0.241 C 
ATOM     24  O   UNL     1      -1.049  -5.963   1.375  0.00  0.00    -0.273 OA
ATOM     25  N   UNL     1       0.324  -6.063   3.115  0.00  0.00    -0.313 N 
ATOM     26  H   UNL     1       1.066  -5.674   3.603  0.00  0.00    +0.149 HD
BRANCH  25  27
ATOM     27  C   UNL     1      -0.315  -7.286   3.606  0.00  0.00    +0.108 C 
BRANCH  27  28
ATOM     28  C   UNL     1       0.374  -7.740   4.894  0.00  0.00    +0.049 C 
BRANCH  28  29
ATOM     29  C   UNL     1      -0.283  -8.999   5.399  0.00  0.00    -0.072 C 
ATOM     30  C   UNL     1       0.248 -10.134   5.073  0.00  0.00    -0.028 C 
ATOM     31  C   UNL     1      -0.298 -11.468   5.490  0.00  0.00    +0.027 C 
ATOM     32  C   UNL     1      -1.267 -11.298   6.661  0.00  0.00    +0.004 C 
ATOM     33  C   UNL     1      -2.266 -10.189   6.308  0.00  0.00    +0.005 C 
ATOM     34  C   UNL     1      -1.509  -8.859   6.253  0.00  0.00    +0.030 C 
ENDBRANCH  28  29
ENDBRANCH  27  28
ENDBRANCH  25  27
ENDBRANCH   7  23
TORSDOF 6
