REMARK  Name = ZINC25080010
REMARK  15 active torsions:
REMARK  status: ('A' for Active; 'I' for Inactive)
REMARK    1  A    between atoms: C_1  and  C_2
REMARK    2  A    between atoms: C_2  and  C_3
REMARK    3  A    between atoms: C_6  and  C_9
REMARK    4  A    between atoms: C_9  and  C_11
REMARK    5  A    between atoms: C_9  and  N_32
REMARK    6  A    between atoms: C_11  and  N_12
REMARK    7  A    between atoms: C_13  and  C_15
REMARK    8  A    between atoms: C_15  and  C_17
REMARK    9  A    between atoms: C_15  and  N_18
REMARK   10  A    between atoms: N_18  and  S_19
REMARK   11  A    between atoms: S_19  and  C_22
REMARK   12  A    between atoms: C_25  and  N_28
REMARK   13  A    between atoms: C_29  and  C_31
REMARK   14  A    between atoms: N_32  and  C_33
REMARK   15  A    between atoms: N_32  and  C_34
REMARK                            x       y       z     vdW  Elec       q    Type
REMARK                         _______ _______ _______ _____ _____    ______ ____
ROOT
ATOM      1  N   UNL     1      -0.754  -1.065   2.143  0.00  0.00    -0.315 N 
ATOM      2  C   UNL     1      -0.997  -1.249   3.456  0.00  0.00    +0.231 C 
ATOM      3  O   UNL     1      -0.945  -0.308   4.220  0.00  0.00    -0.274 OA
ATOM      4  H   UNL     1      -0.801  -1.918   1.450  0.00  0.00    +0.149 HD
ENDROOT
BRANCH   2   5
ATOM      5  C   UNL     1      -1.334  -2.623   3.975  0.00  0.00    +0.159 C 
ATOM      6  C   UNL     1      -2.604  -3.130   3.289  0.00  0.00    +0.035 C 
BRANCH   5   7
ATOM      7  N   UNL     1      -1.552  -2.559   5.422  0.00  0.00    -0.178 NA
ATOM      8  H   UNL     1      -1.867  -1.614   5.889  0.00  0.00    +0.149 HD
BRANCH   7   9
ATOM      9  S   UNL     1      -1.093  -3.824   6.386  0.00  0.00    +0.059 S 
ATOM     10  O   UNL     1      -1.409  -3.454   7.721  0.00  0.00    -0.153 OA
ATOM     11  O   UNL     1      -1.607  -5.003   5.781  0.00  0.00    -0.153 OA
BRANCH   9  12
ATOM     12  C   UNL     1       0.663  -3.937   6.296  0.00  0.00    +0.105 A 
ATOM     13  C   UNL     1       1.255  -4.731   5.332  0.00  0.00    +0.030 A 
ATOM     14  C   UNL     1       2.631  -4.817   5.256  0.00  0.00    +0.025 A 
ATOM     15  C   UNL     1       3.421  -4.114   6.156  0.00  0.00    +0.033 A 
ATOM     16  C   UNL     1       2.823  -3.321   7.127  0.00  0.00    +0.025 A 
ATOM     17  C   UNL     1       1.446  -3.235   7.195  0.00  0.00    +0.030 A 
BRANCH  15  18
ATOM     18  N   UNL     1       4.815  -4.203   6.085  0.00  0.00    -0.286 N 
ATOM     19  C   UNL     1       5.554  -4.125   7.210  0.00  0.00    +0.214 C 
ATOM     20  O   UNL     1       5.008  -4.080   8.292  0.00  0.00    -0.276 OA
ATOM     21  C   UNL     1       7.058  -4.093   7.122  0.00  0.00    +0.109 C 
ATOM     22  H   UNL     1       5.309  -4.337   5.111  0.00  0.00    +0.155 HD
ENDBRANCH  15  18
ENDBRANCH   9  12
ENDBRANCH   7   9
ENDBRANCH   5   7
ENDBRANCH   2   5
BRANCH   1  23
ATOM     23  C   UNL     1      -0.427   0.271   1.639  0.00  0.00    +0.093 C 
BRANCH  23  24
ATOM     24  C   UNL     1      -0.092   0.186   0.148  0.00  0.00    -0.021 C 
BRANCH  24  28
ATOM     25  C   UNL     1       0.761   4.095  -1.347  0.00  0.00    -0.048 A 
ATOM     26  C   UNL     1       1.770   3.154  -1.258  0.00  0.00    +0.004 A 
ATOM     27  C   UNL     1       1.494   1.889  -0.774  0.00  0.00    +0.002 A 
ATOM     28  C   UNL     1       0.209   1.565  -0.379  0.00  0.00    -0.059 A 
ATOM     29  C   UNL     1      -0.800   2.504  -0.473  0.00  0.00    +0.002 A 
ATOM     30  C   UNL     1      -0.523   3.771  -0.952  0.00  0.00    +0.004 A 
BRANCH  25  32
ATOM     31  C   UNL     1       0.864   5.494  -3.392  0.00  0.00    +0.009 C 
ATOM     32  C   UNL     1       1.062   5.474  -1.875  0.00  0.00    +0.032 C 
ENDBRANCH  25  32
ENDBRANCH  24  28
BRANCH  24  33
ATOM     33  N   UNL     1      -1.237  -0.378  -0.579  0.00  0.00    +0.382 N 
ATOM     34  C   UNL     1      -2.498  -0.085   0.115  0.00  0.00    -0.096 C 
ATOM     35  C   UNL     1      -1.272   0.111  -1.964  0.00  0.00    -0.096 C 
ATOM     36  H   UNL     1      -1.113  -1.470  -0.610  0.00  0.00    -0.082 HD
ENDBRANCH  24  33
ENDBRANCH  23  24
ENDBRANCH   1  23
TORSDOF 10
