REMARK  Name = ZINC01126831
REMARK  7 active torsions:
REMARK  status: ('A' for Active; 'I' for Inactive)
REMARK    1  A    between atoms: C_1  and  C_2
REMARK    2  A    between atoms: C_2  and  O_3
REMARK    3  A    between atoms: O_3  and  C_4
REMARK    4  A    between atoms: C_7  and  C_11
REMARK    5  A    between atoms: C_13  and  C_20
REMARK    6  A    between atoms: C_14  and  C_19
REMARK    7  A    between atoms: N_22  and  C_23
REMARK                            x       y       z     vdW  Elec       q    Type
REMARK                         _______ _______ _______ _____ _____    ______ ____
ROOT
ATOM      1  C   UNL     1       1.351   0.453   5.918  0.00  0.00    +0.142 C 
ATOM      2  C   UNL     1       2.295  -0.719   5.743  0.00  0.00    +0.056 C 
ATOM      3  C   UNL     1       1.943  -1.897   6.298  0.00  0.00    +0.019 C 
ATOM      4  N   UNL     1       0.775  -2.028   6.994  0.00  0.00    -0.273 N 
ATOM      5  C   UNL     1      -0.095  -1.027   7.179  0.00  0.00    +0.304 C 
ATOM      6  O   UNL     1      -1.111  -1.240   7.813  0.00  0.00    -0.252 OA
ATOM      7  N   UNL     1       0.118   0.208   6.685  0.00  0.00    -0.288 N 
ATOM      8  C   UNL     1       2.854  -3.089   6.148  0.00  0.00    +0.061 C 
ATOM      9  H   UNL     1       0.564  -2.895   7.376  0.00  0.00    +0.156 HD
ATOM     10  H   UNL     1      -0.525   0.919   6.831  0.00  0.00    +0.151 HD
ENDROOT
BRANCH   1  14
ATOM     11  C   UNL     1       0.232   1.837   2.031  0.00  0.00    +0.157 A 
ATOM     12  C   UNL     1      -0.546   0.891   2.683  0.00  0.00    +0.084 A 
ATOM     13  C   UNL     1      -0.179   0.441   3.938  0.00  0.00    +0.029 A 
ATOM     14  C   UNL     1       0.957   0.941   4.548  0.00  0.00    -0.020 A 
ATOM     15  C   UNL     1       1.731   1.887   3.903  0.00  0.00    +0.029 A 
ATOM     16  C   UNL     1       1.372   2.337   2.646  0.00  0.00    +0.084 A 
ATOM     17 CL   UNL     1       2.345   3.526   1.837  0.00  0.00    -0.080 Cl
ATOM     18 CL   UNL     1      -1.977   0.269   1.922  0.00  0.00    -0.080 Cl
BRANCH  11  19
ATOM     19  O   UNL     1      -0.124   2.277   0.795  0.00  0.00    -0.489 OA
BRANCH  19  21
ATOM     20  C   UNL     1      -0.107   2.197  -1.620  0.00  0.00    +0.048 C 
ATOM     21  C   UNL     1       0.399   1.560  -0.324  0.00  0.00    +0.226 C 
ENDBRANCH  19  21
ENDBRANCH  11  19
ENDBRANCH   1  14
BRANCH   2  22
ATOM     22  C   UNL     1       3.506  -0.582   5.021  0.00  0.00    +0.248 C 
ATOM     23  O   UNL     1       4.368   0.182   5.417  0.00  0.00    -0.270 OA
ATOM     24  N   UNL     1       3.705  -1.297   3.896  0.00  0.00    -0.282 N 
ATOM     25  H   UNL     1       3.070  -1.985   3.640  0.00  0.00    +0.155 HD
BRANCH  24  26
ATOM     26  C   UNL     1       4.827  -1.048   3.097  0.00  0.00    +0.034 A 
ATOM     27  C   UNL     1       5.989  -0.547   3.668  0.00  0.00    +0.026 A 
ATOM     28  C   UNL     1       7.096  -0.306   2.878  0.00  0.00    +0.040 A 
ATOM     29  C   UNL     1       7.044  -0.554   1.517  0.00  0.00    +0.124 A 
ATOM     30  C   UNL     1       5.884  -1.049   0.945  0.00  0.00    +0.040 A 
ATOM     31  C   UNL     1       4.777  -1.296   1.732  0.00  0.00    +0.026 A 
ATOM     32  F   UNL     1       8.127  -0.313   0.746  0.00  0.00    -0.205 F 
ENDBRANCH  24  26
ENDBRANCH   2  22
TORSDOF 5
