REMARK  Name = ZINC02181948
REMARK  6 active torsions:
REMARK  status: ('A' for Active; 'I' for Inactive)
REMARK    1  A    between atoms: C_1  and  C_2
REMARK    2  A    between atoms: C_5  and  N_9
REMARK    3  A    between atoms: C_15  and  C_25
REMARK    4  A    between atoms: C_15  and  C_26
REMARK    5  A    between atoms: C_20  and  C_24
REMARK    6  A    between atoms: C_21  and  C_23
REMARK                            x       y       z     vdW  Elec       q    Type
REMARK                         _______ _______ _______ _____ _____    ______ ____
ROOT
ATOM      1  N   UNL     1       0.059  -4.138  -0.022  0.00  0.00    -0.240 NA
ATOM      2  C   UNL     1       0.886  -4.797   0.784  0.00  0.00    +0.117 A 
ATOM      3  C   UNL     1       1.017  -6.214   0.877  0.00  0.00    +0.029 A 
ATOM      4  C   UNL     1       1.893  -6.885   1.688  0.00  0.00    +0.030 A 
ATOM      5  S   UNL     1       2.814  -5.858   2.651  0.00  0.00    -0.052 S 
ATOM      6  S   UNL     1       2.038  -4.064   1.937  0.00  0.00    -0.032 S 
ATOM      7  C   UNL     1       2.038  -8.393   1.704  0.00  0.00    +0.059 C 
ATOM      8  N   UNL     1       0.764  -8.998   1.299  0.00  0.00    -0.334 N 
ATOM      9  C   UNL     1       0.043  -8.434   0.243  0.00  0.00    +0.036 A 
ATOM     10  C   UNL     1       0.122  -7.062   0.001  0.00  0.00    +0.007 A 
ATOM     11  C   UNL     1      -0.601  -6.479  -1.028  0.00  0.00    +0.014 A 
ATOM     12  C   UNL     1      -1.402  -7.277  -1.827  0.00  0.00    -0.047 A 
ATOM     13  C   UNL     1      -1.475  -8.639  -1.598  0.00  0.00    -0.046 A 
ATOM     14  C   UNL     1      -0.757  -9.223  -0.569  0.00  0.00    +0.027 A 
ATOM     15  C   UNL     1      -2.345  -9.497  -2.480  0.00  0.00    +0.044 C 
ATOM     16  C   UNL     1      -2.197  -6.660  -2.948  0.00  0.00    +0.044 C 
ATOM     17  C   UNL     1       2.401  -8.858   3.116  0.00  0.00    +0.037 C 
ATOM     18  C   UNL     1       3.138  -8.813   0.726  0.00  0.00    +0.037 C 
ATOM     19  H   UNL     1       0.425  -9.781   1.760  0.00  0.00    +0.147 HD
ENDROOT
BRANCH   1  24
ATOM     20  C   UNL     1      -0.018   1.503   0.010  0.00  0.00    +0.045 C 
ATOM     21  C   UNL     1       0.002  -0.004   0.002  0.00  0.00    -0.032 A 
ATOM     22  C   UNL     1       0.006  -0.686  -1.202  0.00  0.00    +0.007 A 
ATOM     23  C   UNL     1       0.025  -2.064  -1.219  0.00  0.00    +0.028 A 
ATOM     24  C   UNL     1       0.041  -2.775  -0.013  0.00  0.00    +0.067 A 
ATOM     25  C   UNL     1       0.037  -2.079   1.200  0.00  0.00    +0.048 A 
ATOM     26  C   UNL     1       0.023  -0.700   1.200  0.00  0.00    +0.046 A 
ATOM     27 CL   UNL     1       0.025   0.167   2.704  0.00  0.00    -0.083 Cl
ENDBRANCH   1  24
TORSDOF 1
