REMARK  Name = ZINC05545232
REMARK  6 active torsions:
REMARK  status: ('A' for Active; 'I' for Inactive)
REMARK    1  A    between atoms: C_16  and  N_17
REMARK    2  A    between atoms: C_18  and  C_20
REMARK    3  A    between atoms: C_20  and  C_21
REMARK    4  A    between atoms: C_21  and  C_22
REMARK    5  A    between atoms: C_22  and  C_23
REMARK    6  A    between atoms: N_25  and  C_26
REMARK                            x       y       z     vdW  Elec       q    Type
REMARK                         _______ _______ _______ _____ _____    ______ ____
ROOT
ATOM      1  C   UNL     1      -0.703  11.808   0.382  0.00  0.00    +0.018 C 
ENDROOT
BRANCH   1   2
ATOM      2  C   UNL     1      -1.062  10.325   0.265  0.00  0.00    +0.096 C 
BRANCH   2   4
ATOM      3  N   UNL     1       0.129   8.170   0.024  0.00  0.00    -0.285 N 
ATOM      4  C   UNL     1       0.200   9.511   0.141  0.00  0.00    +0.217 C 
ATOM      5  O   UNL     1       1.280  10.062   0.146  0.00  0.00    -0.275 OA
ATOM      6  H   UNL     1      -0.735   7.735  -0.050  0.00  0.00    +0.155 HD
BRANCH   3  22
ATOM      7  C   UNL     1      -0.767   2.401   3.023  0.00  0.00    +0.001 A 
ATOM      8  C   UNL     1       0.442   1.721   2.962  0.00  0.00    +0.002 A 
ATOM      9  C   UNL     1       1.536   2.287   2.346  0.00  0.00    +0.026 A 
ATOM     10  C   UNL     1       1.439   3.556   1.778  0.00  0.00    +0.051 A 
ATOM     11  C   UNL     1       0.216   4.244   1.845  0.00  0.00    +0.046 A 
ATOM     12  C   UNL     1      -0.885   3.658   2.474  0.00  0.00    +0.014 A 
ATOM     13  C   UNL     1       0.114   5.587   1.245  0.00  0.00    +0.199 A 
ATOM     14  O   UNL     1      -0.928   6.218   1.281  0.00  0.00    -0.286 OA
ATOM     15  C   UNL     1       1.317   6.137   0.601  0.00  0.00    +0.067 A 
ATOM     16  C   UNL     1       2.496   5.372   0.584  0.00  0.00    +0.052 A 
ATOM     17  N   UNL     1       2.534   4.121   1.162  0.00  0.00    -0.354 N 
ATOM     18  H   UNL     1       3.364   3.619   1.133  0.00  0.00    +0.166 HD
ATOM     19  C   UNL     1       3.634   5.893  -0.025  0.00  0.00    +0.026 A 
ATOM     20  C   UNL     1       3.602   7.144  -0.604  0.00  0.00    +0.004 A 
ATOM     21  C   UNL     1       2.443   7.902  -0.591  0.00  0.00    +0.024 A 
ATOM     22  C   UNL     1       1.295   7.409   0.009  0.00  0.00    +0.046 A 
ENDBRANCH   3  22
ENDBRANCH   2   4
ENDBRANCH   1   2
BRANCH   1  23
ATOM     23  C   UNL     1      -1.984  12.634   0.508  0.00  0.00    +0.096 C 
BRANCH  23  24
ATOM     24  C   UNL     1      -1.631  14.095   0.624  0.00  0.00    +0.217 C 
ATOM     25  O   UNL     1      -0.469  14.440   0.608  0.00  0.00    -0.275 OA
ATOM     26  N   UNL     1      -2.606  15.017   0.746  0.00  0.00    -0.285 N 
ATOM     27  H   UNL     1      -3.530  14.736   0.840  0.00  0.00    +0.155 HD
BRANCH  26  28
ATOM     28  C   UNL     1      -2.288  16.373   0.737  0.00  0.00    +0.046 A 
ATOM     29  C   UNL     1      -1.134  16.815   0.111  0.00  0.00    +0.024 A 
ATOM     30  C   UNL     1      -0.819  18.163   0.102  0.00  0.00    +0.004 A 
ATOM     31  C   UNL     1      -1.644  19.085   0.714  0.00  0.00    +0.026 A 
ATOM     32  C   UNL     1      -2.810  18.669   1.351  0.00  0.00    +0.052 A 
ATOM     33  C   UNL     1      -3.137  17.302   1.358  0.00  0.00    +0.067 A 
ATOM     34  C   UNL     1      -4.366  16.862   2.036  0.00  0.00    +0.199 A 
ATOM     35  O   UNL     1      -4.683  15.686   2.069  0.00  0.00    -0.286 OA
ATOM     36  C   UNL     1      -5.203  17.898   2.670  0.00  0.00    +0.046 A 
ATOM     37  C   UNL     1      -6.386  17.555   3.327  0.00  0.00    +0.014 A 
ATOM     38  C   UNL     1      -7.152  18.539   3.911  0.00  0.00    +0.001 A 
ATOM     39  C   UNL     1      -6.751  19.866   3.849  0.00  0.00    +0.002 A 
ATOM     40  C   UNL     1      -5.586  20.220   3.204  0.00  0.00    +0.026 A 
ATOM     41  C   UNL     1      -4.796  19.240   2.605  0.00  0.00    +0.051 A 
ATOM     42  N   UNL     1      -3.630  19.595   1.960  0.00  0.00    -0.354 N 
ATOM     43  H   UNL     1      -3.377  20.531   1.934  0.00  0.00    +0.166 HD
ENDBRANCH  26  28
ENDBRANCH  23  24
ENDBRANCH   1  23
TORSDOF 6
