REMARK  Name = ZINC63494731
REMARK  9 active torsions:
REMARK  status: ('A' for Active; 'I' for Inactive)
REMARK    1  A    between atoms: C_4  and  C_7
REMARK    2  A    between atoms: C_7  and  C_8
REMARK    3  A    between atoms: C_8  and  N_9
REMARK    4  A    between atoms: C_14  and  C_25
REMARK    5  A    between atoms: C_25  and  C_26
REMARK    6  A    between atoms: C_26  and  C_27
REMARK    7  A    between atoms: N_29  and  C_30
REMARK    8  A    between atoms: C_30  and  C_31
REMARK    9  A    between atoms: C_31  and  C_32
REMARK                            x       y       z     vdW  Elec       q    Type
REMARK                         _______ _______ _______ _____ _____    ______ ____
ROOT
ATOM      1  N   UNL     1       5.291  -1.788   1.283  0.00  0.00    -0.265 N 
ATOM      2  C   UNL     1       5.316  -3.247   1.356  0.00  0.00    +0.253 C 
ATOM      3  N   UNL     1       4.267  -3.767   2.257  0.00  0.00    -0.219 NA
ATOM      4  N   UNL     1       4.869  -4.997   2.808  0.00  0.00    -0.234 NA
ATOM      5  C   UNL     1       6.288  -4.612   3.035  0.00  0.00    +0.159 C 
ATOM      6  N   UNL     1       6.606  -3.656   1.956  0.00  0.00    -0.281 N 
ATOM      7  C   UNL     1       7.808  -3.111   1.548  0.00  0.00    +0.046 A 
ATOM      8  C   UNL     1       9.012  -3.781   1.561  0.00  0.00    +0.024 A 
ATOM      9  C   UNL     1      10.153  -3.141   1.113  0.00  0.00    +0.002 A 
ATOM     10  C   UNL     1      10.092  -1.835   0.652  0.00  0.00    +0.001 A 
ATOM     11  C   UNL     1       8.896  -1.148   0.640  0.00  0.00    +0.015 A 
ATOM     12  C   UNL     1       7.740  -1.774   1.094  0.00  0.00    +0.058 A 
ATOM     13  C   UNL     1       6.437  -1.086   1.138  0.00  0.00    +0.251 C 
ATOM     14  O   UNL     1       6.394   0.126   1.048  0.00  0.00    -0.270 OA
ATOM     15  H   UNL     1       3.423  -3.976   1.746  0.00  0.00    +0.144 HD
ATOM     16  H   UNL     1       4.802  -5.758   2.150  0.00  0.00    +0.143 HD
ENDROOT
BRANCH   1  17
ATOM     17  C   UNL     1       4.011  -1.079   1.362  0.00  0.00    +0.116 C 
BRANCH  17  18
ATOM     18  C   UNL     1       3.433  -0.912  -0.045  0.00  0.00    +0.054 C 
BRANCH  18  22
ATOM     19  C   UNL     1      -0.298   1.156   0.181  0.00  0.00    +0.000 A 
ATOM     20  C   UNL     1       0.878   1.867   0.035  0.00  0.00    +0.000 A 
ATOM     21  C   UNL     1       2.086   1.198  -0.039  0.00  0.00    +0.004 A 
ATOM     22  C   UNL     1       2.117  -0.182   0.036  0.00  0.00    -0.046 A 
ATOM     23  C   UNL     1       0.941  -0.893   0.183  0.00  0.00    +0.004 A 
ATOM     24  C   UNL     1      -0.267  -0.224   0.255  0.00  0.00    +0.000 A 
ENDBRANCH  18  22
ENDBRANCH  17  18
ENDBRANCH   1  17
BRANCH   5  25
ATOM     25  C   UNL     1       7.195  -5.839   2.930  0.00  0.00    +0.049 C 
BRANCH  25  26
ATOM     26  C   UNL     1       6.770  -6.878   3.969  0.00  0.00    +0.099 C 
BRANCH  26  27
ATOM     27  C   UNL     1       7.663  -8.088   3.865  0.00  0.00    +0.213 C 
ATOM     28  O   UNL     1       8.553  -8.116   3.042  0.00  0.00    -0.276 OA
ATOM     29  N   UNL     1       7.473  -9.138   4.688  0.00  0.00    -0.315 N 
ATOM     30  H   UNL     1       6.762  -9.116   5.347  0.00  0.00    +0.149 HD
BRANCH  29  31
ATOM     31  C   UNL     1       8.342 -10.313   4.588  0.00  0.00    +0.108 C 
BRANCH  31  32
ATOM     32  C   UNL     1       7.916 -11.353   5.627  0.00  0.00    +0.052 C 
BRANCH  32  33
ATOM     33  C   UNL     1       8.810 -12.562   5.523  0.00  0.00    -0.040 C 
ATOM     34  C   UNL     1       9.917 -12.820   6.256  0.00  0.00    -0.001 A 
ATOM     35  C   UNL     1      10.595 -12.080   7.327  0.00  0.00    +0.010 A 
ATOM     36  C   UNL     1      11.712 -12.605   7.881  0.00  0.00    +0.001 A 
ATOM     37  C   UNL     1      12.236 -13.835   7.459  0.00  0.00    +0.002 A 
ATOM     38  C   UNL     1      11.669 -14.572   6.481  0.00  0.00    +0.026 A 
ATOM     39  C   UNL     1      10.490 -14.117   5.829  0.00  0.00    +0.043 A 
ATOM     40  N   UNL     1       9.766 -14.639   4.869  0.00  0.00    -0.380 N 
ATOM     41  C   UNL     1       8.646 -13.736   4.583  0.00  0.00    +0.144 C 
ATOM     42  H   UNL     1       9.939 -15.484   4.426  0.00  0.00    +0.160 HD
ENDBRANCH  32  33
ENDBRANCH  31  32
ENDBRANCH  29  31
ENDBRANCH  26  27
ENDBRANCH  25  26
ENDBRANCH   5  25
TORSDOF 9
