REMARK  Name = ZINC39693354
REMARK  11 active torsions:
REMARK  status: ('A' for Active; 'I' for Inactive)
REMARK    1  A    between atoms: C_1  and  C_2
REMARK    2  A    between atoms: C_5  and  C_8
REMARK    3  A    between atoms: C_12  and  C_21
REMARK    4  A    between atoms: N_23  and  C_24
REMARK    5  A    between atoms: C_24  and  C_25
REMARK    6  A    between atoms: C_25  and  N_26
REMARK    7  A    between atoms: C_27  and  O_29
REMARK    8  A    between atoms: O_29  and  C_30
REMARK    9  A    between atoms: C_30  and  C_31
REMARK   10  A    between atoms: C_30  and  C_32
REMARK   11  A    between atoms: C_30  and  C_33
REMARK                            x       y       z     vdW  Elec       q    Type
REMARK                         _______ _______ _______ _____ _____    ______ ____
ROOT
ATOM      1  C   UNL     1       0.058  -4.249  -0.021  0.00  0.00    +0.247 C 
ATOM      2  O   UNL     1      -0.047  -4.852  -1.071  0.00  0.00    -0.270 OA
ATOM      3  N   UNL     1       0.175  -4.928   1.137  0.00  0.00    -0.296 N 
ATOM      4  C   UNL     1       0.185  -4.381   2.514  0.00  0.00    +0.121 C 
ATOM      5  C   UNL     1      -0.633  -5.396   3.344  0.00  0.00    +0.100 C 
ATOM      6  C   UNL     1      -0.537  -6.713   2.557  0.00  0.00    -0.004 C 
ATOM      7  C   UNL     1       0.317  -6.392   1.322  0.00  0.00    +0.115 C 
ATOM      8  C   UNL     1      -1.926  -7.173   2.126  0.00  0.00    -0.010 C 
ATOM      9  C   UNL     1      -1.811  -8.514   1.395  0.00  0.00    -0.082 C 
ATOM     10  N   UNL     1      -1.199  -9.508   2.286  0.00  0.00    +0.379 N 
ATOM     11  C   UNL     1       0.171  -9.103   2.622  0.00  0.00    -0.082 C 
ATOM     12  C   UNL     1       0.140  -7.787   3.404  0.00  0.00    -0.010 C 
ATOM     13  H   UNL     1      -1.744  -9.580   3.132  0.00  0.00    -0.086 HD
ATOM     14  H   UNL     1      -1.180 -10.405   1.824  0.00  0.00    -0.086 HD
ENDROOT
BRANCH   1  19
ATOM     15  C   UNL     1       0.057   1.506   0.006  0.00  0.00    +0.044 C 
ATOM     16  C   UNL     1       0.057  -0.001  -0.001  0.00  0.00    -0.050 A 
ATOM     17  C   UNL     1      -0.548  -0.685  -1.040  0.00  0.00    +0.004 A 
ATOM     18  C   UNL     1      -0.551  -2.065  -1.053  0.00  0.00    +0.013 A 
ATOM     19  C   UNL     1       0.058  -2.771  -0.014  0.00  0.00    +0.037 A 
ATOM     20  C   UNL     1       0.667  -2.074   1.031  0.00  0.00    +0.013 A 
ATOM     21  C   UNL     1       0.668  -0.695   1.029  0.00  0.00    +0.004 A 
ENDBRANCH   1  19
BRANCH   5  22
ATOM     22  C   UNL     1      -0.032  -5.556   4.717  0.00  0.00    +0.218 C 
ATOM     23  O   UNL     1       1.144  -5.323   4.895  0.00  0.00    -0.275 OA
ATOM     24  N   UNL     1      -0.803  -5.960   5.746  0.00  0.00    -0.314 N 
ATOM     25  H   UNL     1      -1.744  -6.147   5.604  0.00  0.00    +0.149 HD
BRANCH  24  26
ATOM     26  C   UNL     1      -0.219  -6.116   7.081  0.00  0.00    +0.123 C 
BRANCH  26  27
ATOM     27  C   UNL     1      -1.300  -6.581   8.059  0.00  0.00    +0.126 C 
BRANCH  27  28
ATOM     28  N   UNL     1      -0.716  -6.737   9.394  0.00  0.00    -0.280 N 
ATOM     29  C   UNL     1      -1.487  -7.141  10.423  0.00  0.00    +0.401 C 
ATOM     30  O   UNL     1      -2.666  -7.375  10.245  0.00  0.00    -0.226 OA
ATOM     31  H   UNL     1       0.225  -6.550   9.536  0.00  0.00    +0.152 HD
BRANCH  29  32
ATOM     32  O   UNL     1      -0.950  -7.284  11.650  0.00  0.00    -0.445 OA
BRANCH  32  33
ATOM     33  C   UNL     1      -1.825  -7.715  12.694  0.00  0.00    +0.107 C 
ATOM     34  C   UNL     1      -2.409  -9.084  12.338  0.00  0.00    +0.055 C 
ATOM     35  C   UNL     1      -1.042  -7.820  14.004  0.00  0.00    +0.055 C 
ATOM     36  C   UNL     1      -2.961  -6.703  12.858  0.00  0.00    +0.055 C 
ENDBRANCH  32  33
ENDBRANCH  29  32
ENDBRANCH  27  28
ENDBRANCH  26  27
ENDBRANCH  24  26
ENDBRANCH   5  22
TORSDOF 7
