REMARK  Name = ZINC40688711
REMARK  7 active torsions:
REMARK  status: ('A' for Active; 'I' for Inactive)
REMARK    1  A    between atoms: C_1  and  C_2
REMARK    2  A    between atoms: C_4  and  C_25
REMARK    3  A    between atoms: C_7  and  N_8
REMARK    4  A    between atoms: C_10  and  N_23
REMARK    5  A    between atoms: C_11  and  N_15
REMARK    6  A    between atoms: C_25  and  C_27
REMARK    7  A    between atoms: C_25  and  C_29
REMARK                            x       y       z     vdW  Elec       q    Type
REMARK                         _______ _______ _______ _____ _____    ______ ____
ROOT
ATOM      1  N   UNL     1       1.045  -0.840   3.008  0.00  0.00    -0.298 N 
ATOM      2  C   UNL     1       0.769  -1.631   4.118  0.00  0.00    +0.149 A 
ATOM      3  C   UNL     1       0.935  -1.124   5.409  0.00  0.00    +0.106 A 
ATOM      4  C   UNL     1       0.643  -1.960   6.487  0.00  0.00    +0.150 A 
ATOM      5  N   UNL     1       0.220  -3.199   6.247  0.00  0.00    -0.219 NA
ATOM      6  C   UNL     1       0.076  -3.638   5.013  0.00  0.00    +0.225 A 
ATOM      7  N   UNL     1       0.336  -2.880   3.967  0.00  0.00    -0.219 NA
ATOM      8  H   UNL     1       1.274   0.095   3.124  0.00  0.00    +0.154 HD
ENDROOT
BRANCH   4   9
ATOM      9  N   UNL     1       0.792  -1.506   7.794  0.00  0.00    -0.283 N 
ATOM     10  C   UNL     1       0.391  -2.307   8.859  0.00  0.00    +0.124 A 
ATOM     11  C   UNL     1       0.437  -1.804  10.155  0.00  0.00    +0.045 A 
ATOM     12  C   UNL     1       0.036  -2.610  11.205  0.00  0.00    +0.025 A 
ATOM     13  C   UNL     1      -0.400  -3.899  10.922  0.00  0.00    +0.059 A 
ATOM     14  C   UNL     1      -0.419  -4.333   9.611  0.00  0.00    +0.132 A 
ATOM     15  N   UNL     1      -0.035  -3.539   8.629  0.00  0.00    -0.239 NA
ATOM     16 CL   UNL     1      -0.914  -4.952  12.203  0.00  0.00    -0.082 Cl
ATOM     17  H   UNL     1       1.175  -0.631   7.962  0.00  0.00    +0.155 HD
ENDBRANCH   4   9
BRANCH   1  24
ATOM     18  C   UNL     1       0.336   0.861   0.841  0.00  0.00    +0.045 C 
ATOM     19  C   UNL     1       0.651  -0.599   0.639  0.00  0.00    -0.029 A 
ATOM     20  C   UNL     1       0.605  -1.147  -0.629  0.00  0.00    +0.011 A 
ATOM     21  C   UNL     1       0.894  -2.486  -0.816  0.00  0.00    -0.008 A 
ATOM     22  C   UNL     1       1.229  -3.282   0.266  0.00  0.00    +0.047 A 
ATOM     23  C   UNL     1       1.277  -2.740   1.536  0.00  0.00    +0.043 A 
ATOM     24  C   UNL     1       0.993  -1.393   1.726  0.00  0.00    +0.037 A 
ATOM     25 CL   UNL     1       1.591  -4.963   0.026  0.00  0.00    -0.083 Cl
BRANCH  21  26
ATOM     26  C   UNL     1       0.842  -3.080  -2.200  0.00  0.00    +0.153 C 
BRANCH  26  27
ATOM     27  C   UNL     1       1.883  -2.421  -3.068  0.00  0.00    -0.026 A 
ATOM     28  C   UNL     1       1.719  -1.107  -3.466  0.00  0.00    +0.006 A 
ATOM     29  C   UNL     1       2.673  -0.502  -4.262  0.00  0.00    +0.020 A 
ATOM     30  C   UNL     1       3.792  -1.211  -4.662  0.00  0.00    +0.041 A 
ATOM     31  C   UNL     1       3.955  -2.526  -4.263  0.00  0.00    +0.020 A 
ATOM     32  C   UNL     1       3.003  -3.128  -3.462  0.00  0.00    +0.006 A 
ATOM     33 CL   UNL     1       4.989  -0.452  -5.663  0.00  0.00    -0.084 Cl
ENDBRANCH  26  27
BRANCH  26  34
ATOM     34  C   UNL     1      -0.492  -2.859  -2.779  0.00  0.00    +0.075 C 
ATOM     35  N   UNL     1      -1.523  -2.688  -3.227  0.00  0.00    -0.196 NA
ENDBRANCH  26  34
ENDBRANCH  21  26
ENDBRANCH   1  24
BRANCH   3  36
ATOM     36  N   UNL     1       1.385   0.189   5.615  0.00  0.00    -0.353 N 
ATOM     37  H   UNL     1       1.584   0.759   4.856  0.00  0.00    +0.143 HD
ATOM     38  H   UNL     1       1.495   0.528   6.518  0.00  0.00    +0.143 HD
ENDBRANCH   3  36
TORSDOF 6
