REMARK  Name = ZINC10109398
REMARK  10 active torsions:
REMARK  status: ('A' for Active; 'I' for Inactive)
REMARK    1  A    between atoms: C_1  and  C_2
REMARK    2  A    between atoms: C_2  and  C_3
REMARK    3  A    between atoms: C_4  and  C_12
REMARK    4  A    between atoms: C_12  and  N_57
REMARK    5  A    between atoms: C_13  and  N_57
REMARK    6  A    between atoms: C_14  and  C_16
REMARK    7  A    between atoms: C_14  and  C_17
REMARK    8  A    between atoms: C_14  and  N_57
REMARK    9  A    between atoms: N_19  and  C_20
REMARK   10  A    between atoms: C_21  and  C_28
REMARK                            x       y       z     vdW  Elec       q    Type
REMARK                         _______ _______ _______ _____ _____    ______ ____
ROOT
ATOM      1  C   UNL     1       1.456   5.567   0.623  0.00  0.00    +0.016 C 
ATOM      2  C   UNL     1       2.240   5.125  -0.615  0.00  0.00    -0.004 C 
ENDROOT
BRANCH   1   3
ATOM      3  C   UNL     1       0.413   4.531   0.953  0.00  0.00    +0.204 C 
ATOM      4  O   UNL     1      -0.761   4.834   0.963  0.00  0.00    -0.277 OA
ATOM      5  N   UNL     1       0.785   3.267   1.237  0.00  0.00    -0.281 N 
ATOM      6  H   UNL     1       1.724   3.024   1.229  0.00  0.00    +0.155 HD
BRANCH   5   7
ATOM      7  C   UNL     1      -0.175   2.314   1.541  0.00  0.00    +0.084 A 
ATOM      8  C   UNL     1       0.008   0.979   1.857  0.00  0.00    +0.068 A 
ATOM      9  C   UNL     1      -1.183   0.179   2.139  0.00  0.00    -0.023 A 
ATOM     10  C   UNL     1      -2.350   0.845   2.060  0.00  0.00    -0.004 A 
ATOM     11  S   UNL     1      -1.893   2.504   1.618  0.00  0.00    -0.077 S 
ATOM     12  C   UNL     1      -3.527  -0.040   2.366  0.00  0.00    +0.043 C 
ATOM     13  C   UNL     1      -2.916  -1.268   3.077  0.00  0.00    +0.010 C 
ATOM     14  C   UNL     1      -1.480  -1.273   2.517  0.00  0.00    +0.037 C 
BRANCH   8  15
ATOM     15  C   UNL     1       1.349   0.387   1.908  0.00  0.00    +0.244 C 
ATOM     16  O   UNL     1       1.833  -0.110   0.907  0.00  0.00    -0.270 OA
ATOM     17  N   UNL     1       2.046   0.394   3.061  0.00  0.00    -0.325 N 
ATOM     18  H   UNL     1       1.661   0.790   3.858  0.00  0.00    +0.145 HD
ATOM     19  H   UNL     1       2.933   0.002   3.094  0.00  0.00    +0.145 HD
ENDBRANCH   8  15
ENDBRANCH   5   7
ENDBRANCH   1   3
BRANCH   1  21
ATOM     20  C   UNL     1      -0.110   6.750  -0.794  0.00  0.00    -0.095 C 
ATOM     21  N   UNL     1       0.785   6.861   0.376  0.00  0.00    +0.388 N 
ATOM     22  H   UNL     1       0.227   7.109   1.201  0.00  0.00    -0.081 HD
BRANCH  21  23
ATOM     23  C   UNL     1       1.793   7.917   0.144  0.00  0.00    -0.038 C 
BRANCH  23  25
ATOM     24  C   UNL     1       0.865   9.948   1.369  0.00  0.00    +0.107 A 
ATOM     25  C   UNL     1       1.119   9.260   0.248  0.00  0.00    -0.015 A 
ATOM     26  C   UNL     1       0.604  10.076  -0.858  0.00  0.00    +0.022 A 
ATOM     27  C   UNL     1       0.556   9.923  -2.243  0.00  0.00    +0.012 A 
ATOM     28  C   UNL     1      -0.011  10.899  -3.014  0.00  0.00    +0.001 A 
ATOM     29  C   UNL     1      -0.538  12.040  -2.427  0.00  0.00    +0.004 A 
ATOM     30  C   UNL     1      -0.500  12.210  -1.059  0.00  0.00    +0.047 A 
ATOM     31  C   UNL     1       0.072  11.230  -0.258  0.00  0.00    +0.135 A 
ATOM     32  O   UNL     1       0.254  11.109   1.073  0.00  0.00    -0.459 OA
BRANCH  24  34
ATOM     33  C   UNL     1       2.560  10.092   3.173  0.00  0.00    +0.012 C 
ATOM     34  C   UNL     1       1.216   9.489   2.761  0.00  0.00    +0.071 C 
ENDBRANCH  24  34
ENDBRANCH  23  25
ENDBRANCH  21  23
ENDBRANCH   1  21
TORSDOF 7
