REMARK  Name = ZINC03046620
REMARK  13 active torsions:
REMARK  status: ('A' for Active; 'I' for Inactive)
REMARK    1  A    between atoms: C_1  and  C_2
REMARK    2  A    between atoms: C_5  and  C_8
REMARK    3  A    between atoms: N_12  and  C_20
REMARK    4  A    between atoms: C_20  and  C_21
REMARK    5  A    between atoms: N_23  and  C_24
REMARK    6  A    between atoms: C_24  and  C_25
REMARK    7  A    between atoms: C_25  and  C_26
REMARK    8  A    between atoms: C_26  and  N_27
REMARK    9  A    between atoms: N_27  and  C_28
REMARK   10  A    between atoms: N_27  and  C_35
REMARK   11  A    between atoms: C_28  and  C_29
REMARK   12  A    between atoms: C_35  and  C_36
REMARK   13  A    between atoms: C_35  and  C_37
REMARK                            x       y       z     vdW  Elec       q    Type
REMARK                         _______ _______ _______ _____ _____    ______ ____
ROOT
ATOM      1  C   UNL     1      -0.477   7.280   6.994  0.00  0.00    +0.209 C 
ENDROOT
BRANCH   1   6
ATOM      2  C   UNL     1       3.172   9.756   9.006  0.00  0.00    +0.028 C 
ATOM      3  C   UNL     1       2.056   9.008   9.184  0.00  0.00    +0.076 C 
ATOM      4  C   UNL     1       1.177   8.632   8.055  0.00  0.00    +0.258 C 
ATOM      5  O   UNL     1       1.119   9.345   7.071  0.00  0.00    -0.269 OA
ATOM      6  N   UNL     1       0.445   7.515   8.107  0.00  0.00    -0.257 N 
ATOM      7  C   UNL     1       0.466   6.557   9.113  0.00  0.00    +0.051 A 
ATOM      8  C   UNL     1      -0.017   5.281   8.826  0.00  0.00    +0.024 A 
ATOM      9  C   UNL     1      -0.014   4.298   9.793  0.00  0.00    +0.002 A 
ATOM     10  C   UNL     1       0.470   4.563  11.062  0.00  0.00    +0.001 A 
ATOM     11  C   UNL     1       0.960   5.815  11.359  0.00  0.00    +0.017 A 
ATOM     12  C   UNL     1       0.955   6.809  10.394  0.00  0.00    +0.034 A 
ATOM     13  S   UNL     1       1.565   8.421  10.785  0.00  0.00    -0.082 S 
BRANCH   2  18
ATOM     14  C   UNL     1       6.178  11.566  13.558  0.00  0.00    +0.044 C 
ATOM     15  C   UNL     1       5.390  11.091  12.364  0.00  0.00    -0.050 A 
ATOM     16  C   UNL     1       6.049  10.751  11.195  0.00  0.00    +0.004 A 
ATOM     17  C   UNL     1       5.335  10.316  10.099  0.00  0.00    +0.008 A 
ATOM     18  C   UNL     1       3.941  10.219  10.171  0.00  0.00    -0.024 A 
ATOM     19  C   UNL     1       3.282  10.569  11.354  0.00  0.00    +0.008 A 
ATOM     20  C   UNL     1       4.011  10.997  12.443  0.00  0.00    +0.004 A 
ENDBRANCH   2  18
ENDBRANCH   1   6
BRANCH   1  21
ATOM     21  C   UNL     1       0.227   6.498   5.915  0.00  0.00    +0.231 C 
ATOM     22  O   UNL     1       1.385   6.170   6.061  0.00  0.00    -0.274 OA
ATOM     23  N   UNL     1      -0.430   6.164   4.787  0.00  0.00    -0.314 N 
ATOM     24  H   UNL     1      -1.481   6.462   4.654  0.00  0.00    +0.149 HD
BRANCH  23  25
ATOM     25  C   UNL     1       0.254   5.404   3.738  0.00  0.00    +0.102 C 
BRANCH  25  26
ATOM     26  C   UNL     1      -0.709   5.159   2.575  0.00  0.00    +0.000 C 
BRANCH  26  27
ATOM     27  C   UNL     1       0.006   4.365   1.479  0.00  0.00    -0.076 C 
BRANCH  27  28
ATOM     28  N   UNL     1      -0.919   4.130   0.362  0.00  0.00    +0.384 N 
ATOM     29  H   UNL     1      -1.351   5.098   0.070  0.00  0.00    -0.081 HD
BRANCH  28  30
ATOM     30  C   UNL     1      -2.021   3.248   0.769  0.00  0.00    -0.074 C 
ATOM     31  C   UNL     1      -3.125   3.290  -0.290  0.00  0.00    -0.014 C 
ATOM     32  C   UNL     1      -1.504   1.815   0.910  0.00  0.00    -0.014 C 
ENDBRANCH  28  30
BRANCH  28  33
ATOM     33  C   UNL     1      -0.210   3.582  -0.802  0.00  0.00    -0.043 C 
BRANCH  33  34
ATOM     34  C   UNL     1       0.646   4.658  -1.420  0.00  0.00    -0.064 A 
ATOM     35  C   UNL     1       0.091   5.551  -2.318  0.00  0.00    +0.002 A 
ATOM     36  C   UNL     1       0.874   6.541  -2.881  0.00  0.00    +0.000 A 
ATOM     37  C   UNL     1       2.215   6.631  -2.555  0.00  0.00    +0.000 A 
ATOM     38  C   UNL     1       2.771   5.735  -1.662  0.00  0.00    +0.000 A 
ATOM     39  C   UNL     1       1.986   4.748  -1.095  0.00  0.00    +0.002 A 
ENDBRANCH  33  34
ENDBRANCH  28  33
ENDBRANCH  27  28
ENDBRANCH  26  27
ENDBRANCH  25  26
ENDBRANCH  23  25
ENDBRANCH   1  21
TORSDOF 10
