REMARK  Name = ZINC50999273
REMARK  9 active torsions:
REMARK  status: ('A' for Active; 'I' for Inactive)
REMARK    1  A    between atoms: C_1  and  C_2
REMARK    2  A    between atoms: C_2  and  C_3
REMARK    3  A    between atoms: C_2  and  C_4
REMARK    4  A    between atoms: C_6  and  C_14
REMARK    5  A    between atoms: N_8  and  C_9
REMARK    6  A    between atoms: C_9  and  C_10
REMARK    7  A    between atoms: C_9  and  C_11
REMARK    8  A    between atoms: C_9  and  C_12
REMARK    9  A    between atoms: N_17  and  C_19
REMARK                            x       y       z     vdW  Elec       q    Type
REMARK                         _______ _______ _______ _____ _____    ______ ____
ROOT
ATOM      1  C   UNL     1      -1.775  -0.298   0.795  0.00  0.00    +0.079 C 
ATOM      2  N   UNL     1      -2.803   0.330   1.245  0.00  0.00    -0.363 N 
ATOM      3  C   UNL     1      -4.003  -0.451   0.904  0.00  0.00    +0.175 C 
ATOM      4  C   UNL     1      -3.454  -1.657   0.166  0.00  0.00    +0.101 C 
ATOM      5  N   UNL     1      -2.090  -1.461   0.151  0.00  0.00    -0.273 N 
ATOM      6  N   UNL     1      -4.117  -2.645  -0.339  0.00  0.00    -0.388 N 
ATOM      7  H   UNL     1      -5.087  -2.629  -0.336  0.00  0.00    +0.157 HD
ATOM      8  H   UNL     1      -2.790   1.172   1.725  0.00  0.00    +0.162 HD
ATOM      9  H   UNL     1      -3.645  -3.401  -0.720  0.00  0.00    +0.157 HD
ENDROOT
BRANCH   3  10
ATOM     10  C   UNL     1      -4.727  -0.880   2.155  0.00  0.00    +0.019 A 
ATOM     11  C   UNL     1      -4.130  -1.294   3.350  0.00  0.00    +0.140 A 
ATOM     12  N   UNL     1      -5.080  -1.585   4.202  0.00  0.00    -0.180 NA
ATOM     13  N   UNL     1      -6.313  -1.364   3.574  0.00  0.00    -0.274 N 
ATOM     14  C   UNL     1      -6.069  -0.927   2.321  0.00  0.00    +0.114 A 
ATOM     15  C   UNL     1      -7.633  -1.567   4.175  0.00  0.00    +0.172 C 
ENDBRANCH   3  10
BRANCH   5  16
ATOM     16  C   UNL     1      -1.118  -2.369  -0.464  0.00  0.00    +0.033 C 
ATOM     17  C   UNL     1      -0.030  -2.716   0.554  0.00  0.00    +0.031 C 
ATOM     18  C   UNL     1      -1.828  -3.650  -0.908  0.00  0.00    +0.031 C 
ATOM     19  C   UNL     1      -0.482  -1.691  -1.678  0.00  0.00    +0.031 C 
ENDBRANCH   5  16
BRANCH   1  21
ATOM     20  C   UNL     1      -0.345   1.728   0.830  0.00  0.00    +0.015 C 
ATOM     21  C   UNL     1      -0.363   0.203   0.956  0.00  0.00    +0.045 C 
ATOM     22  C   UNL     1       0.167  -0.200   2.333  0.00  0.00    +0.015 C 
ENDBRANCH   1  21
TORSDOF 3
