REMARK  Name = ZINC21485690
REMARK  12 active torsions:
REMARK  status: ('A' for Active; 'I' for Inactive)
REMARK    1  A    between atoms: C_1  and  C_2
REMARK    2  A    between atoms: C_4  and  C_13
REMARK    3  A    between atoms: C_6  and  S_9
REMARK    4  A    between atoms: C_7  and  C_8
REMARK    5  A    between atoms: S_9  and  N_12
REMARK    6  A    between atoms: C_13  and  O_15
REMARK    7  A    between atoms: O_15  and  C_16
REMARK    8  A    between atoms: C_16  and  C_17
REMARK    9  A    between atoms: C_17  and  C_19
REMARK   10  A    between atoms: C_21  and  C_32
REMARK   11  A    between atoms: N_22  and  C_25
REMARK   12  A    between atoms: C_23  and  C_24
REMARK                            x       y       z     vdW  Elec       q    Type
REMARK                         _______ _______ _______ _____ _____    ______ ____
ROOT
ATOM      1  O   UNL     1       0.013  -2.143  -3.649  0.00  0.00    -0.453 OA
ENDROOT
BRANCH   1   2
ATOM      2  C   UNL     1       0.028  -2.818  -2.484  0.00  0.00    +0.340 C 
ATOM      3  O   UNL     1       0.045  -4.033  -2.486  0.00  0.00    -0.245 OA
BRANCH   2   7
ATOM      4  C   UNL     1      -0.018   1.503   0.010  0.00  0.00    +0.044 C 
ATOM      5  C   UNL     1       0.002  -0.004   0.002  0.00  0.00    -0.045 A 
ATOM      6  C   UNL     1       0.006  -0.686  -1.198  0.00  0.00    +0.018 A 
ATOM      7  C   UNL     1       0.025  -2.082  -1.203  0.00  0.00    +0.061 A 
ATOM      8  C   UNL     1       0.040  -2.779   0.007  0.00  0.00    +0.043 A 
ATOM      9  C   UNL     1       0.036  -2.084   1.199  0.00  0.00    +0.109 A 
ATOM     10  C   UNL     1       0.023  -0.701   1.197  0.00  0.00    -0.021 A 
ATOM     11  C   UNL     1       0.025   0.051   2.503  0.00  0.00    +0.046 C 
BRANCH   9  12
ATOM     12  S   UNL     1       0.055  -2.962   2.727  0.00  0.00    +0.056 S 
ATOM     13  O   UNL     1      -0.974  -2.401   3.530  0.00  0.00    -0.153 OA
ATOM     14  O   UNL     1       0.099  -4.344   2.401  0.00  0.00    -0.153 OA
BRANCH  12  15
ATOM     15  N   UNL     1       1.488  -2.606   3.478  0.00  0.00    -0.204 NA
ATOM     16  H   UNL     1       1.540  -2.602   4.446  0.00  0.00    +0.144 HD
ATOM     17  H   UNL     1       2.275  -2.402   2.949  0.00  0.00    +0.144 HD
ENDBRANCH  12  15
ENDBRANCH   9  12
ENDBRANCH   2   7
ENDBRANCH   1   2
BRANCH   1  18
ATOM     18  C   UNL     1       0.017  -2.920  -4.849  0.00  0.00    +0.311 C 
BRANCH  18  19
ATOM     19  C   UNL     1      -0.001  -2.000  -6.043  0.00  0.00    +0.202 C 
ATOM     20  O   UNL     1      -0.017  -0.797  -5.882  0.00  0.00    -0.288 OA
BRANCH  19  21
ATOM     21  C   UNL     1      -0.001  -2.558  -7.396  0.00  0.00    +0.042 A 
ATOM     22  C   UNL     1       0.011  -3.979  -7.768  0.00  0.00    +0.034 A 
ATOM     23  C   UNL     1       0.007  -4.020  -9.111  0.00  0.00    +0.022 A 
ATOM     24  N   UNL     1      -0.005  -2.743  -9.599  0.00  0.00    -0.317 N 
ATOM     25  C   UNL     1      -0.016  -1.855  -8.587  0.00  0.00    +0.032 A 
ATOM     26  C   UNL     1      -0.038  -0.354  -8.727  0.00  0.00    +0.064 C 
ATOM     27  C   UNL     1       0.015  -5.274  -9.946  0.00  0.00    +0.064 C 
BRANCH  24  28
ATOM     28  C   UNL     1      -0.013  -2.406 -10.959  0.00  0.00    +0.049 A 
ATOM     29  C   UNL     1       1.072  -1.742 -11.517  0.00  0.00    +0.026 A 
ATOM     30  C   UNL     1       1.064  -1.411 -12.858  0.00  0.00    +0.005 A 
ATOM     31  C   UNL     1      -0.023  -1.740 -13.646  0.00  0.00    +0.038 A 
ATOM     32  C   UNL     1      -1.107  -2.402 -13.094  0.00  0.00    +0.125 A 
ATOM     33  C   UNL     1      -1.101  -2.741 -11.753  0.00  0.00    +0.064 A 
ATOM     34  F   UNL     1      -2.168  -2.722 -13.867  0.00  0.00    -0.205 F 
ENDBRANCH  24  28
ENDBRANCH  19  21
ENDBRANCH  18  19
ENDBRANCH   1  18
TORSDOF 8
