REMARK  Name = ZINC64031276
REMARK  6 active torsions:
REMARK  status: ('A' for Active; 'I' for Inactive)
REMARK    1  A    between atoms: C_4  and  C_7
REMARK    2  A    between atoms: C_7  and  C_9
REMARK    3  A    between atoms: C_7  and  C_26
REMARK    4  A    between atoms: C_9  and  N_10
REMARK    5  A    between atoms: C_11  and  C_13
REMARK    6  A    between atoms: C_17  and  C_22
REMARK                            x       y       z     vdW  Elec       q    Type
REMARK                         _______ _______ _______ _____ _____    ______ ____
ROOT
ATOM      1  C   UNL     1       3.711  -0.707  -0.038  0.00  0.00    +0.064 C 
ENDROOT
BRANCH   1   2
ATOM      2  C   UNL     1       3.816  -1.579   1.188  0.00  0.00    -0.033 C 
ATOM      3  C   UNL     1       4.756  -1.509   2.157  0.00  0.00    -0.000 A 
ATOM      4  C   UNL     1       5.920  -0.636   2.352  0.00  0.00    +0.010 A 
ATOM      5  C   UNL     1       6.696  -0.812   3.446  0.00  0.00    +0.001 A 
ATOM      6  C   UNL     1       6.417  -1.805   4.396  0.00  0.00    +0.002 A 
ATOM      7  C   UNL     1       5.366  -2.646   4.285  0.00  0.00    +0.026 A 
ATOM      8  C   UNL     1       4.483  -2.550   3.174  0.00  0.00    +0.043 A 
ATOM      9  N   UNL     1       3.415  -3.236   2.846  0.00  0.00    -0.380 N 
ATOM     10  C   UNL     1       2.886  -2.703   1.585  0.00  0.00    +0.145 C 
ATOM     11  H   UNL     1       3.036  -3.970   3.354  0.00  0.00    +0.160 HD
ENDBRANCH   1   2
BRANCH   1  15
ATOM     12  C   UNL     1      -0.017   1.378   0.010  0.00  0.00    +0.000 A 
ATOM     13  C   UNL     1       1.171   2.086   0.002  0.00  0.00    +0.000 A 
ATOM     14  C   UNL     1       2.377   1.411  -0.013  0.00  0.00    +0.004 A 
ATOM     15  C   UNL     1       2.396   0.029  -0.020  0.00  0.00    -0.039 A 
ATOM     16  C   UNL     1       1.208  -0.679  -0.012  0.00  0.00    +0.004 A 
ATOM     17  C   UNL     1       0.002  -0.004   0.002  0.00  0.00    +0.000 A 
ENDBRANCH   1  15
BRANCH   1  18
ATOM     18  C   UNL     1       3.791  -1.579  -1.292  0.00  0.00    +0.116 C 
BRANCH  18  19
ATOM     19  N   UNL     1       3.810  -0.724  -2.481  0.00  0.00    -0.314 N 
ATOM     20  C   UNL     1       3.878  -1.277  -3.708  0.00  0.00    +0.225 C 
ATOM     21  O   UNL     1       3.923  -2.483  -3.828  0.00  0.00    -0.275 OA
ATOM     22  H   UNL     1       3.773   0.241  -2.385  0.00  0.00    +0.149 HD
BRANCH  20  23
ATOM     23  C   UNL     1       3.897  -0.397  -4.932  0.00  0.00    +0.161 C 
ATOM     24  C   UNL     1       3.972  -1.271  -6.186  0.00  0.00    +0.024 C 
ATOM     25  C   UNL     1       5.374  -1.889  -6.262  0.00  0.00    +0.032 C 
ATOM     26  C   UNL     1       6.386  -0.774  -6.526  0.00  0.00    +0.177 C 
ATOM     27  N   UNL     1       6.202   0.318  -5.578  0.00  0.00    -0.303 N 
ATOM     28  C   UNL     1       5.090   0.513  -4.873  0.00  0.00    +0.225 C 
ATOM     29  O   UNL     1       5.038   1.481  -4.143  0.00  0.00    -0.275 OA
ATOM     30  H   UNL     1       6.936   0.939  -5.452  0.00  0.00    +0.149 HD
BRANCH  26  31
ATOM     31  C   UNL     1       7.803  -1.332  -6.380  0.00  0.00    +0.408 C 
ATOM     32  F   UNL     1       7.995  -2.366  -7.302  0.00  0.00    -0.169 F 
ATOM     33  F   UNL     1       8.733  -0.315  -6.621  0.00  0.00    -0.169 F 
ATOM     34  F   UNL     1       7.978  -1.826  -5.082  0.00  0.00    -0.169 F 
ENDBRANCH  26  31
ENDBRANCH  20  23
ENDBRANCH  18  19
ENDBRANCH   1  18
TORSDOF 6
