REMARK  Name = ZINC39695941
REMARK  9 active torsions:
REMARK  status: ('A' for Active; 'I' for Inactive)
REMARK    1  A    between atoms: C_1  and  C_2
REMARK    2  A    between atoms: C_2  and  C_3
REMARK    3  A    between atoms: C_6  and  C_9
REMARK    4  A    between atoms: C_9  and  C_11
REMARK    5  A    between atoms: C_9  and  N_12
REMARK    6  A    between atoms: C_13  and  C_15
REMARK    7  A    between atoms: C_26  and  C_28
REMARK    8  A    between atoms: C_28  and  C_29
REMARK    9  A    between atoms: C_29  and  C_30
REMARK                            x       y       z     vdW  Elec       q    Type
REMARK                         _______ _______ _______ _____ _____    ______ ____
ROOT
ATOM      1  C   UNL     1       2.466  -0.464   8.209  0.00  0.00    +0.100 C 
ATOM      2  C   UNL     1       1.188  -1.188   8.690  0.00  0.00    +0.121 C 
ATOM      3  N   UNL     1       1.662  -2.133   9.728  0.00  0.00    -0.300 N 
ATOM      4  C   UNL     1       2.701  -1.378  10.469  0.00  0.00    +0.115 C 
ATOM      5  C   UNL     1       3.455  -0.587   9.380  0.00  0.00    -0.004 C 
ATOM      6  C   UNL     1       3.834   0.796   9.900  0.00  0.00    -0.010 C 
ATOM      7  C   UNL     1       4.862   0.650  11.025  0.00  0.00    -0.082 C 
ATOM      8  N   UNL     1       6.050  -0.047  10.518  0.00  0.00    +0.379 N 
ATOM      9  C   UNL     1       5.693  -1.411  10.107  0.00  0.00    -0.082 C 
ATOM     10  C   UNL     1       4.700  -1.351   8.942  0.00  0.00    -0.010 C 
ATOM     11  C   UNL     1       1.243  -3.395   9.949  0.00  0.00    +0.216 C 
ATOM     12  O   UNL     1       1.733  -4.048  10.847  0.00  0.00    -0.276 OA
ATOM     13  H   UNL     1       6.421   0.455   9.725  0.00  0.00    -0.086 HD
ATOM     14  H   UNL     1       6.750  -0.088  11.243  0.00  0.00    -0.086 HD
ENDROOT
BRANCH   1  16
ATOM     15  N   UNL     1       3.729  -0.426   6.082  0.00  0.00    -0.308 N 
ATOM     16  C   UNL     1       3.021  -1.139   6.981  0.00  0.00    +0.219 C 
ATOM     17  O   UNL     1       2.831  -2.323   6.801  0.00  0.00    -0.275 OA
ATOM     18  H   UNL     1       3.881   0.521   6.226  0.00  0.00    +0.149 HD
BRANCH  15  19
ATOM     19  C   UNL     1       4.268  -1.082   4.888  0.00  0.00    +0.100 C 
ATOM     20  C   UNL     1       3.196  -1.117   3.797  0.00  0.00    +0.033 C 
BRANCH  19  24
ATOM     21  C   UNL     1       7.662   1.094   3.477  0.00  0.00    -0.048 A 
ATOM     22  C   UNL     1       7.673  -0.288   3.464  0.00  0.00    +0.004 A 
ATOM     23  C   UNL     1       6.575  -0.993   3.921  0.00  0.00    +0.006 A 
ATOM     24  C   UNL     1       5.466  -0.315   4.391  0.00  0.00    -0.027 A 
ATOM     25  C   UNL     1       5.455   1.068   4.405  0.00  0.00    +0.006 A 
ATOM     26  C   UNL     1       6.555   1.772   3.952  0.00  0.00    +0.004 A 
BRANCH  21  28
ATOM     27  C   UNL     1       9.826   2.107   4.139  0.00  0.00    +0.009 C 
ATOM     28  C   UNL     1       8.860   1.861   2.979  0.00  0.00    +0.032 C 
ENDBRANCH  21  28
ENDBRANCH  19  24
ENDBRANCH  15  19
ENDBRANCH   1  16
BRANCH  11  29
ATOM     29  C   UNL     1       0.167  -3.995   9.082  0.00  0.00    +0.100 C 
BRANCH  29  30
ATOM     30  C   UNL     1      -0.120  -5.426   9.541  0.00  0.00    +0.044 C 
BRANCH  30  31
ATOM     31  C   UNL     1      -1.197  -6.025   8.674  0.00  0.00    -0.047 A 
ATOM     32  C   UNL     1      -2.526  -5.886   9.026  0.00  0.00    +0.003 A 
ATOM     33  C   UNL     1      -3.514  -6.436   8.230  0.00  0.00    +0.000 A 
ATOM     34  C   UNL     1      -3.172  -7.125   7.082  0.00  0.00    +0.000 A 
ATOM     35  C   UNL     1      -1.842  -7.264   6.729  0.00  0.00    +0.000 A 
ATOM     36  C   UNL     1      -0.855  -6.710   7.522  0.00  0.00    +0.003 A 
ENDBRANCH  30  31
ENDBRANCH  29  30
ENDBRANCH  11  29
TORSDOF 7
