REMARK  Name = ZINC66209874
REMARK  9 active torsions:
REMARK  status: ('A' for Active; 'I' for Inactive)
REMARK    1  A    between atoms: C_1  and  C_2
REMARK    2  A    between atoms: C_2  and  C_3
REMARK    3  A    between atoms: C_2  and  C_4
REMARK    4  A    between atoms: C_4  and  C_5
REMARK    5  A    between atoms: N_7  and  C_8
REMARK    6  A    between atoms: C_11  and  N_14
REMARK    7  A    between atoms: C_15  and  C_17
REMARK    8  A    between atoms: C_17  and  N_18
REMARK    9  A    between atoms: N_18  and  C_19
REMARK                            x       y       z     vdW  Elec       q    Type
REMARK                         _______ _______ _______ _____ _____    ______ ____
ROOT
ATOM      1  N   UNL     1      -2.076   1.146   8.397  0.00  0.00    -0.284 N 
ATOM      2  C   UNL     1      -1.338   1.529   9.458  0.00  0.00    +0.234 C 
ATOM      3  O   UNL     1      -0.130   1.434   9.421  0.00  0.00    -0.274 OA
ATOM      4  H   UNL     1      -3.045   1.159   8.450  0.00  0.00    +0.155 HD
ENDROOT
BRANCH   1   8
ATOM      5  C   UNL     1      -0.196  -0.089   4.886  0.00  0.00    +0.033 A 
ATOM      6  C   UNL     1      -1.392   0.614   4.823  0.00  0.00    +0.025 A 
ATOM      7  C   UNL     1      -2.015   1.023   5.985  0.00  0.00    +0.025 A 
ATOM      8  C   UNL     1      -1.445   0.731   7.217  0.00  0.00    +0.034 A 
ATOM      9  C   UNL     1      -0.249   0.028   7.280  0.00  0.00    +0.025 A 
ATOM     10  C   UNL     1       0.371  -0.385   6.118  0.00  0.00    +0.025 A 
BRANCH   5  13
ATOM     11  C   UNL     1       0.383   0.272   2.605  0.00  0.00    +0.217 C 
ATOM     12  O   UNL     1      -0.280   1.287   2.610  0.00  0.00    -0.275 OA
ATOM     13  N   UNL     1       0.435  -0.503   3.706  0.00  0.00    -0.285 N 
ATOM     14  H   UNL     1       0.910  -1.349   3.682  0.00  0.00    +0.155 HD
BRANCH  11  15
ATOM     15  C   UNL     1       1.149  -0.123   1.369  0.00  0.00    +0.099 C 
BRANCH  15  17
ATOM     16  C   UNL     1       1.519   2.259   0.710  0.00  0.00    +0.008 C 
ATOM     17  C   UNL     1       0.920   0.920   0.273  0.00  0.00    -0.008 C 
ATOM     18  C   UNL     1       1.595   0.458  -1.020  0.00  0.00    +0.008 C 
ENDBRANCH  15  17
ENDBRANCH  11  15
ENDBRANCH   5  13
ENDBRANCH   1   8
BRANCH   2  19
ATOM     19  C   UNL     1      -2.015   2.074  10.689  0.00  0.00    +0.198 C 
BRANCH  19  20
ATOM     20  N   UNL     1      -1.003   2.414  11.692  0.00  0.00    -0.335 N 
ATOM     21  H   UNL     1      -0.062   2.274  11.499  0.00  0.00    +0.147 HD
BRANCH  20  22
ATOM     22  C   UNL     1      -1.392   2.942  12.926  0.00  0.00    +0.029 A 
ATOM     23  C   UNL     1      -2.738   3.138  13.206  0.00  0.00    +0.024 A 
ATOM     24  C   UNL     1      -3.121   3.659  14.426  0.00  0.00    +0.023 A 
ATOM     25  C   UNL     1      -2.164   3.986  15.371  0.00  0.00    +0.059 A 
ATOM     26  C   UNL     1      -0.821   3.792  15.095  0.00  0.00    +0.061 A 
ATOM     27  C   UNL     1      -0.433   3.265  13.878  0.00  0.00    +0.044 A 
ATOM     28 CL   UNL     1       0.377   4.205  16.282  0.00  0.00    -0.082 Cl
ATOM     29 CL   UNL     1      -2.648   4.642  16.904  0.00  0.00    -0.082 Cl
ENDBRANCH  20  22
ENDBRANCH  19  20
ENDBRANCH   2  19
TORSDOF 7
