REMARK  Name = ZINC12029173
REMARK  6 active torsions:
REMARK  status: ('A' for Active; 'I' for Inactive)
REMARK    1  A    between atoms: C_1  and  C_2
REMARK    2  A    between atoms: C_8  and  C_10
REMARK    3  A    between atoms: C_10  and  C_12
REMARK    4  A    between atoms: C_10  and  N_23
REMARK    5  A    between atoms: C_12  and  C_13
REMARK    6  A    between atoms: C_24  and  C_26
REMARK                            x       y       z     vdW  Elec       q    Type
REMARK                         _______ _______ _______ _____ _____    ______ ____
ROOT
ATOM      1  C   UNL     1       1.754  -4.071  -0.039  0.00  0.00    +0.164 C 
ENDROOT
BRANCH   1   9
ATOM      2  C   UNL     1      -1.237   2.232   0.020  0.00  0.00    +0.089 C 
ATOM      3  C   UNL     1      -0.016   1.348   0.009  0.00  0.00    +0.136 A 
ATOM      4  C   UNL     1       0.002  -0.004   0.002  0.00  0.00    +0.091 A 
ATOM      5  C   UNL     1       1.385  -0.328  -0.013  0.00  0.00    +0.168 A 
ATOM      6  N   UNL     1       2.026   0.811  -0.013  0.00  0.00    -0.063 NA
ATOM      7  O   UNL     1       1.263   1.749  -0.001  0.00  0.00    -0.358 OA
ATOM      8  N   UNL     1       1.946  -1.605  -0.026  0.00  0.00    -0.266 N 
ATOM      9  C   UNL     1       1.148  -2.691  -0.025  0.00  0.00    +0.239 C 
ATOM     10  O   UNL     1      -0.057  -2.559  -0.013  0.00  0.00    -0.273 OA
ATOM     11  H   UNL     1       2.910  -1.711  -0.035  0.00  0.00    +0.156 HD
ENDBRANCH   1   9
BRANCH   1  12
ATOM     12  N   UNL     1       0.767  -5.043   0.437  0.00  0.00    -0.297 N 
ATOM     13  C   UNL     1      -0.401  -5.194  -0.219  0.00  0.00    +0.280 C 
ATOM     14  O   UNL     1      -0.635  -4.522  -1.206  0.00  0.00    -0.267 OA
ATOM     15  H   UNL     1       0.954  -5.578   1.224  0.00  0.00    +0.150 HD
BRANCH  13  16
ATOM     16  C   UNL     1      -1.389  -6.167   0.258  0.00  0.00    +0.189 A 
ATOM     17  C   UNL     1      -2.605  -6.418  -0.310  0.00  0.00    +0.054 A 
ATOM     18  C   UNL     1      -3.215  -7.416   0.467  0.00  0.00    +0.042 A 
ATOM     19  C   UNL     1      -2.355  -7.725   1.463  0.00  0.00    +0.196 A 
ATOM     20  O   UNL     1      -1.254  -6.974   1.330  0.00  0.00    -0.458 OA
ENDBRANCH  13  16
ENDBRANCH   1  12
BRANCH   1  21
ATOM     21  C   UNL     1       2.175  -4.429  -1.466  0.00  0.00    +0.069 C 
BRANCH  21  22
ATOM     22  C   UNL     1       2.892  -5.755  -1.460  0.00  0.00    -0.020 A 
ATOM     23  C   UNL     1       4.219  -5.945  -1.407  0.00  0.00    +0.087 A 
ATOM     24  N   UNL     1       4.500  -7.284  -1.419  0.00  0.00    -0.360 N 
ATOM     25  H   UNL     1       5.390  -7.667  -1.386  0.00  0.00    +0.165 HD
ATOM     26  C   UNL     1       3.330  -8.007  -1.490  0.00  0.00    +0.047 A 
ATOM     27  C   UNL     1       2.271  -7.080  -1.519  0.00  0.00    +0.003 A 
ATOM     28  C   UNL     1       0.952  -7.532  -1.590  0.00  0.00    +0.010 A 
ATOM     29  C   UNL     1       0.696  -8.874  -1.631  0.00  0.00    +0.001 A 
ATOM     30  C   UNL     1       1.736  -9.791  -1.603  0.00  0.00    +0.002 A 
ATOM     31  C   UNL     1       3.046  -9.368  -1.533  0.00  0.00    +0.026 A 
ENDBRANCH  21  22
ENDBRANCH   1  21
TORSDOF 5
