REMARK  Name = ZINC64480244
REMARK  12 active torsions:
REMARK  status: ('A' for Active; 'I' for Inactive)
REMARK    1  A    between atoms: C_1  and  C_2
REMARK    2  A    between atoms: C_7  and  O_14
REMARK    3  A    between atoms: C_9  and  O_10
REMARK    4  A    between atoms: O_10  and  C_11
REMARK    5  A    between atoms: C_11  and  C_13
REMARK    6  A    between atoms: O_14  and  C_15
REMARK    7  A    between atoms: C_15  and  C_17
REMARK    8  A    between atoms: C_21  and  C_23
REMARK    9  A    between atoms: C_23  and  C_24
REMARK   10  A    between atoms: N_26  and  C_27
REMARK   11  A    between atoms: C_27  and  C_28
REMARK   12  A    between atoms: C_28  and  C_29
REMARK                            x       y       z     vdW  Elec       q    Type
REMARK                         _______ _______ _______ _____ _____    ______ ____
ROOT
ATOM      1  C   UNL     1       0.105   1.381  -0.053  0.00  0.00    +0.013 C 
ATOM      2  C   UNL     1       0.046  -0.145  -0.158  0.00  0.00    +0.037 C 
ATOM      3  C   UNL     1      -1.389  -0.598  -0.066  0.00  0.00    +0.041 A 
ATOM      4  C   UNL     1      -1.924  -1.093   1.110  0.00  0.00    +0.142 A 
ATOM      5  C   UNL     1      -3.256  -1.490   1.153  0.00  0.00    +0.093 A 
ATOM      6  C   UNL     1      -4.049  -1.398   0.020  0.00  0.00    +0.139 A 
ATOM      7  C   UNL     1      -3.511  -0.909  -1.161  0.00  0.00    +0.093 A 
ATOM      8  C   UNL     1      -2.186  -0.510  -1.203  0.00  0.00    +0.142 A 
ATOM      9  O   UNL     1      -1.178  -1.217   2.242  0.00  0.00    -0.425 OA
ATOM     10  C   UNL     1       0.042  -0.645   2.250  0.00  0.00    +0.317 C 
ATOM     11  O   UNL     1       0.462  -0.064   3.222  0.00  0.00    -0.250 OA
ATOM     12  C   UNL     1       0.861  -0.764   0.982  0.00  0.00    +0.114 C 
ENDROOT
BRANCH   8  13
ATOM     13  O   UNL     1      -1.660  -0.030  -2.361  0.00  0.00    -0.425 OA
BRANCH  13  14
ATOM     14  C   UNL     1      -1.013  -0.890  -3.163  0.00  0.00    +0.309 C 
ATOM     15  O   UNL     1      -0.991  -2.067  -2.894  0.00  0.00    -0.251 OA
ATOM     16  C   UNL     1      -0.314  -0.386  -4.400  0.00  0.00    +0.136 C 
ENDBRANCH  13  14
ENDBRANCH   8  13
BRANCH   6  17
ATOM     17  O   UNL     1      -5.350  -1.788   0.066  0.00  0.00    -0.426 OA
BRANCH  17  18
ATOM     18  C   UNL     1      -6.198  -1.066   0.816  0.00  0.00    +0.309 C 
ATOM     19  O   UNL     1      -5.781  -0.156   1.493  0.00  0.00    -0.251 OA
ATOM     20  C   UNL     1      -7.670  -1.391   0.814  0.00  0.00    +0.136 C 
ENDBRANCH  17  18
ENDBRANCH   6  17
BRANCH  12  21
ATOM     21  C   UNL     1       1.137  -2.239   0.680  0.00  0.00    +0.111 C 
BRANCH  21  22
ATOM     22  C   UNL     1       2.041  -2.808   1.743  0.00  0.00    +0.214 C 
ATOM     23  O   UNL     1       2.425  -2.104   2.653  0.00  0.00    -0.276 OA
ATOM     24  N   UNL     1       2.421  -4.099   1.683  0.00  0.00    -0.315 N 
ATOM     25  H   UNL     1       2.114  -4.662   0.956  0.00  0.00    +0.149 HD
BRANCH  24  26
ATOM     26  C   UNL     1       3.300  -4.653   2.717  0.00  0.00    +0.108 C 
BRANCH  26  27
ATOM     27  C   UNL     1       3.577  -6.127   2.415  0.00  0.00    +0.052 C 
BRANCH  27  28
ATOM     28  C   UNL     1       4.480  -6.697   3.478  0.00  0.00    -0.040 C 
ATOM     29  C   UNL     1       4.104  -7.373   4.588  0.00  0.00    +0.000 A 
ATOM     30  C   UNL     1       2.793  -7.765   5.116  0.00  0.00    +0.030 A 
ATOM     31  C   UNL     1       2.733  -8.453   6.280  0.00  0.00    +0.042 A 
ATOM     32  C   UNL     1       3.891  -8.800   6.992  0.00  0.00    +0.022 A 
ATOM     33  C   UNL     1       5.131  -8.474   6.569  0.00  0.00    +0.027 A 
ATOM     34  C   UNL     1       5.311  -7.751   5.358  0.00  0.00    +0.043 A 
ATOM     35  N   UNL     1       6.391  -7.324   4.748  0.00  0.00    -0.380 N 
ATOM     36  C   UNL     1       5.991  -6.633   3.518  0.00  0.00    +0.144 C 
ATOM     37 CL   UNL     1       1.183  -8.919   6.908  0.00  0.00    -0.084 Cl
ATOM     38  H   UNL     1       7.301  -7.449   5.057  0.00  0.00    +0.160 HD
ENDBRANCH  27  28
ENDBRANCH  26  27
ENDBRANCH  24  26
ENDBRANCH  21  22
ENDBRANCH  12  21
TORSDOF 9
