REMARK  Name = ZINC63362197
REMARK  9 active torsions:
REMARK  status: ('A' for Active; 'I' for Inactive)
REMARK    1  A    between atoms: C_1  and  C_2
REMARK    2  A    between atoms: C_2  and  O_3
REMARK    3  A    between atoms: O_3  and  C_4
REMARK    4  A    between atoms: C_7  and  N_10
REMARK    5  A    between atoms: C_11  and  C_13
REMARK    6  A    between atoms: C_16  and  N_19
REMARK    7  A    between atoms: C_22  and  C_40
REMARK    8  A    between atoms: C_28  and  O_33
REMARK    9  A    between atoms: O_33  and  C_34
REMARK                            x       y       z     vdW  Elec       q    Type
REMARK                         _______ _______ _______ _____ _____    ______ ____
ROOT
ATOM      1  N   UNL     1      -3.854 -12.118   0.491  0.00  0.00    -0.192 N 
ATOM      2  C   UNL     1      -5.047 -12.747   0.492  0.00  0.00    +0.253 C 
ATOM      3  O   UNL     1      -6.144 -12.235   0.438  0.00  0.00    -0.272 OA
ATOM      4  C   UNL     1      -4.732 -14.225   0.573  0.00  0.00    +0.137 C 
ATOM      5  C   UNL     1      -5.318 -14.819   1.859  0.00  0.00    +0.139 C 
ATOM      6  C   UNL     1      -4.533 -16.095   2.141  0.00  0.00    -0.034 C 
ATOM      7  C   UNL     1      -5.425 -17.078   2.193  0.00  0.00    +0.003 A 
ATOM      8  C   UNL     1      -5.286 -18.513   2.487  0.00  0.00    +0.055 A 
ATOM      9  C   UNL     1      -6.425 -19.258   2.443  0.00  0.00    +0.121 A 
ATOM     10  C   UNL     1      -7.691 -18.737   2.140  0.00  0.00    +0.047 A 
ATOM     11  C   UNL     1      -7.933 -17.431   1.860  0.00  0.00    +0.029 A 
ATOM     12  C   UNL     1      -6.777 -16.523   1.880  0.00  0.00    +0.043 A 
ATOM     13  N   UNL     1      -6.711 -15.231   1.670  0.00  0.00    -0.375 N 
ATOM     14  C   UNL     1      -3.028 -16.133   2.252  0.00  0.00    +0.052 C 
ATOM     15  C   UNL     1      -2.461 -15.448   0.992  0.00  0.00    +0.115 C 
ATOM     16  N   UNL     1      -3.259 -14.248   0.722  0.00  0.00    -0.268 N 
ATOM     17  C   UNL     1      -2.837 -12.984   0.591  0.00  0.00    +0.316 C 
ATOM     18  O   UNL     1      -1.666 -12.660   0.568  0.00  0.00    -0.252 OA
ATOM     19  C   UNL     1      -5.194 -14.977  -0.677  0.00  0.00    +0.044 C 
ATOM     20  H   UNL     1      -7.447 -14.647   1.429  0.00  0.00    +0.160 HD
ENDROOT
BRANCH   1  24
ATOM     21  C   UNL     1      -3.387  -7.985   0.198  0.00  0.00    +0.037 A 
ATOM     22  C   UNL     1      -2.267  -8.820   0.171  0.00  0.00    +0.015 A 
ATOM     23  C   UNL     1      -2.425 -10.185   0.269  0.00  0.00    +0.025 A 
ATOM     24  C   UNL     1      -3.697 -10.732   0.394  0.00  0.00    +0.045 A 
ATOM     25  C   UNL     1      -4.814  -9.904   0.420  0.00  0.00    +0.025 A 
ATOM     26  C   UNL     1      -4.664  -8.538   0.330  0.00  0.00    +0.015 A 
BRANCH  21  28
ATOM     27  N   UNL     1      -1.990  -5.990  -0.033  0.00  0.00    -0.281 N 
ATOM     28  C   UNL     1      -3.222  -6.522   0.093  0.00  0.00    +0.248 C 
ATOM     29  O   UNL     1      -4.197  -5.797   0.122  0.00  0.00    -0.270 OA
ATOM     30  H   UNL     1      -1.219  -6.571  -0.133  0.00  0.00    +0.155 HD
BRANCH  27  34
ATOM     31  C   UNL     1      -1.493  -1.851   0.003  0.00  0.00    +0.121 A 
ATOM     32  C   UNL     1      -0.657  -2.643  -0.771  0.00  0.00    +0.047 A 
ATOM     33  C   UNL     1      -0.821  -4.014  -0.784  0.00  0.00    +0.027 A 
ATOM     34  C   UNL     1      -1.823  -4.600  -0.021  0.00  0.00    +0.034 A 
ATOM     35  C   UNL     1      -2.659  -3.807   0.754  0.00  0.00    +0.027 A 
ATOM     36  C   UNL     1      -2.490  -2.437   0.770  0.00  0.00    +0.047 A 
BRANCH  31  37
ATOM     37  O   UNL     1      -1.331  -0.501   0.015  0.00  0.00    -0.492 OA
BRANCH  37  39
ATOM     38  C   UNL     1      -0.256   1.557  -0.656  0.00  0.00    +0.048 C 
ATOM     39  C   UNL     1      -0.284   0.034  -0.798  0.00  0.00    +0.225 C 
ENDBRANCH  37  39
ENDBRANCH  31  37
ENDBRANCH  27  34
ENDBRANCH  21  28
ENDBRANCH   1  24
BRANCH   9  40
ATOM     40  O   UNL     1      -6.329 -20.587   2.709  0.00  0.00    -0.495 OA
ATOM     41  C   UNL     1      -7.537 -21.349   2.658  0.00  0.00    +0.277 C 
ENDBRANCH   9  40
TORSDOF 6
