REMARK  Name = ZINC44944109
REMARK  4 active torsions:
REMARK  status: ('A' for Active; 'I' for Inactive)
REMARK    1  A    between atoms: C_4  and  C_7
REMARK    2  A    between atoms: C_7  and  O_37
REMARK    3  A    between atoms: C_13  and  C_15
REMARK    4  A    between atoms: C_21  and  C_23
REMARK                            x       y       z     vdW  Elec       q    Type
REMARK                         _______ _______ _______ _____ _____    ______ ____
ROOT
ATOM      1  C   UNL     1       5.549  -5.295   0.293  0.00  0.00    +0.091 C 
ATOM      2  C   UNL     1       6.415  -5.209  -0.965  0.00  0.00    +0.040 C 
ATOM      3  C   UNL     1       6.393  -6.517  -1.699  0.00  0.00    -0.030 C 
ATOM      4  C   UNL     1       6.010  -7.637  -1.174  0.00  0.00    -0.030 C 
ATOM      5  C   UNL     1       5.523  -7.780   0.238  0.00  0.00    +0.040 C 
ATOM      6  C   UNL     1       5.934  -6.562   1.067  0.00  0.00    +0.091 C 
ENDROOT
BRANCH   6   7
ATOM      7  C   UNL     1       7.425  -6.587   1.289  0.00  0.00    +0.220 C 
ATOM      8  O   UNL     1       8.180  -6.543   0.342  0.00  0.00    -0.275 OA
ATOM      9  N   UNL     1       7.918  -6.656   2.542  0.00  0.00    -0.298 N 
ATOM     10  C   UNL     1       7.020  -6.600   3.704  0.00  0.00    +0.126 C 
ATOM     11  C   UNL     1       7.266  -7.838   4.574  0.00  0.00    +0.125 C 
ATOM     12  N   UNL     1       8.711  -7.973   4.802  0.00  0.00    -0.314 N 
ATOM     13  C   UNL     1       9.609  -8.030   3.640  0.00  0.00    +0.125 C 
ATOM     14  C   UNL     1       9.363  -6.796   2.769  0.00  0.00    +0.126 C 
ATOM     15  C   UNL     1       9.220  -8.045   6.093  0.00  0.00    +0.099 A 
ATOM     16  C   UNL     1       8.348  -8.118   7.175  0.00  0.00    +0.042 A 
ATOM     17  C   UNL     1       8.868  -8.189   8.454  0.00  0.00    +0.005 A 
ATOM     18  C   UNL     1      10.248  -8.185   8.610  0.00  0.00    +0.018 A 
ATOM     19  C   UNL     1      11.055  -8.111   7.492  0.00  0.00    +0.084 A 
ATOM     20  N   UNL     1      10.531  -8.049   6.283  0.00  0.00    -0.350 N 
ATOM     21  H   UNL     1      11.120  -8.002   5.514  0.00  0.00    +0.166 HD
ENDBRANCH   6   7
BRANCH   1  28
ATOM     22  C   UNL     1       3.318  -0.849   0.588  0.00  0.00    +0.094 C 
ATOM     23  C   UNL     1       3.976  -1.154   1.936  0.00  0.00    +0.058 C 
ATOM     24  C   UNL     1       5.375  -1.731   1.697  0.00  0.00    +0.111 C 
ATOM     25  N   UNL     1       5.262  -2.892   0.804  0.00  0.00    -0.301 N 
ATOM     26  C   UNL     1       4.566  -2.731  -0.480  0.00  0.00    +0.111 C 
ATOM     27  C   UNL     1       3.176  -2.142  -0.217  0.00  0.00    +0.058 C 
ATOM     28  C   UNL     1       5.786  -4.083   1.156  0.00  0.00    +0.220 C 
ATOM     29  O   UNL     1       6.449  -4.178   2.167  0.00  0.00    -0.275 OA
BRANCH  22  33
ATOM     30  C   UNL     1      -0.546   0.851   1.241  0.00  0.00    +0.000 A 
ATOM     31  C   UNL     1       0.563   1.671   1.149  0.00  0.00    +0.000 A 
ATOM     32  C   UNL     1       1.814   1.121   0.938  0.00  0.00    +0.006 A 
ATOM     33  C   UNL     1       1.955  -0.249   0.819  0.00  0.00    -0.016 A 
ATOM     34  C   UNL     1       0.846  -1.069   0.911  0.00  0.00    +0.006 A 
ATOM     35  C   UNL     1      -0.405  -0.519   1.121  0.00  0.00    +0.000 A 
ENDBRANCH  22  33
BRANCH  22  36
ATOM     36  O   UNL     1       4.129   0.078  -0.138  0.00  0.00    -0.384 OA
ATOM     37  H   UNL     1       4.261   0.922   0.313  0.00  0.00    +0.211 HD
ENDBRANCH  22  36
ENDBRANCH   1  28
TORSDOF 4
