REMARK  Name = ZINC15205766
REMARK  6 active torsions:
REMARK  status: ('A' for Active; 'I' for Inactive)
REMARK    1  A    between atoms: C_1  and  C_2
REMARK    2  A    between atoms: C_4  and  O_26
REMARK    3  A    between atoms: C_6  and  O_25
REMARK    4  A    between atoms: C_8  and  O_24
REMARK    5  A    between atoms: C_10  and  O_13
REMARK    6  A    between atoms: O_13  and  C_14
REMARK                            x       y       z     vdW  Elec       q    Type
REMARK                         _______ _______ _______ _____ _____    ______ ____
ROOT
ATOM      1  C   UNL     1       7.218   0.664   0.092  0.00  0.00    +0.041 C 
ATOM      2  C   UNL     1       7.210   1.658   1.255  0.00  0.00    +0.150 C 
ATOM      3  C   UNL     1       8.454   2.546   1.176  0.00  0.00    +0.174 C 
ATOM      4  C   UNL     1       8.414   3.354  -0.125  0.00  0.00    +0.180 C 
ATOM      5  C   UNL     1       7.116   4.166  -0.169  0.00  0.00    +0.214 C 
ATOM      6  C   UNL     1       5.923   3.215  -0.038  0.00  0.00    +0.339 C 
ATOM      7  O   UNL     1       6.039   2.473   1.178  0.00  0.00    -0.334 OA
ENDROOT
BRANCH   5   8
ATOM      8  O   UNL     1       7.102   5.102   0.910  0.00  0.00    -0.383 OA
ATOM      9  H   UNL     1       6.304   5.648   0.947  0.00  0.00    +0.210 HD
ENDBRANCH   5   8
BRANCH   4  10
ATOM     10  O   UNL     1       9.534   4.240  -0.173  0.00  0.00    -0.386 OA
ATOM     11  H   UNL     1       9.572   4.783  -0.972  0.00  0.00    +0.210 HD
ENDBRANCH   4  10
BRANCH   3  12
ATOM     12  O   UNL     1       9.627   1.729   1.195  0.00  0.00    -0.387 OA
ATOM     13  H   UNL     1       9.715   1.186   1.990  0.00  0.00    +0.210 HD
ENDBRANCH   3  12
BRANCH   6  14
ATOM     14  O   UNL     1       4.711   3.971  -0.022  0.00  0.00    -0.461 OA
BRANCH  14  15
ATOM     15  C   UNL     1       3.547   3.269  -0.015  0.00  0.00    +0.125 A 
ATOM     16  C   UNL     1       3.583   1.871  -0.023  0.00  0.00    +0.046 A 
ATOM     17  C   UNL     1       2.436   1.142  -0.016  0.00  0.00    +0.012 A 
ATOM     18  C   UNL     1       1.193   1.798   0.000  0.00  0.00    -0.018 A 
ATOM     19  C   UNL     1      -0.013   1.076   0.008  0.00  0.00    +0.008 A 
ATOM     20  C   UNL     1      -1.198   1.744   0.017  0.00  0.00    +0.001 A 
ATOM     21  C   UNL     1      -1.238   3.137   0.031  0.00  0.00    +0.001 A 
ATOM     22  C   UNL     1      -0.091   3.870   0.024  0.00  0.00    +0.008 A 
ATOM     23  C   UNL     1       1.153   3.215   0.009  0.00  0.00    -0.014 A 
ATOM     24  C   UNL     1       2.357   3.939   0.001  0.00  0.00    +0.054 A 
ENDBRANCH  14  15
ENDBRANCH   6  14
TORSDOF 5
