REMARK  Name = ZINC11873260
REMARK  8 active torsions:
REMARK  status: ('A' for Active; 'I' for Inactive)
REMARK    1  A    between atoms: C_1  and  C_2
REMARK    2  A    between atoms: C_6  and  C_8
REMARK    3  A    between atoms: C_8  and  N_9
REMARK    4  A    between atoms: C_10  and  C_12
REMARK    5  A    between atoms: C_12  and  C_13
REMARK    6  A    between atoms: C_20  and  C_21
REMARK    7  A    between atoms: C_20  and  N_62
REMARK    8  A    between atoms: C_21  and  C_22
REMARK                            x       y       z     vdW  Elec       q    Type
REMARK                         _______ _______ _______ _____ _____    ______ ____
ROOT
ATOM      1  C   UNL     1       3.381   2.255   0.775  0.00  0.00    +0.089 C 
ENDROOT
BRANCH   1   2
ATOM      2  C   UNL     1       2.416   1.606  -0.219  0.00  0.00    +0.028 C 
ATOM      3  C   UNL     1       2.446   0.114  -0.043  0.00  0.00    +0.200 C 
ATOM      4  O   UNL     1       2.456  -0.337   1.083  0.00  0.00    -0.278 OA
ATOM      5  N   UNL     1       2.464  -0.736  -1.075  0.00  0.00    -0.318 N 
ATOM      6  C   UNL     1       2.490  -0.295  -2.466  0.00  0.00    +0.085 C 
ATOM      7  C   UNL     1       2.048   1.166  -2.562  0.00  0.00    -0.059 C 
ATOM      8  H   UNL     1       2.454  -1.688  -0.890  0.00  0.00    +0.149 HD
ATOM      9  N   UNL     1       2.839   1.948  -1.590  0.00  0.00    +0.389 N 
ATOM     10  H   UNL     1       3.832   1.716  -1.703  0.00  0.00    -0.081 HD
BRANCH   9  11
ATOM     11  C   UNL     1       2.651   3.397  -1.832  0.00  0.00    -0.073 C 
BRANCH  11  12
ATOM     12  C   UNL     1       1.189   3.787  -1.609  0.00  0.00    +0.016 C 
BRANCH  12  13
ATOM     13  C   UNL     1       1.033   5.275  -1.791  0.00  0.00    -0.049 A 
ATOM     14  C   UNL     1       1.275   6.130  -0.732  0.00  0.00    +0.003 A 
ATOM     15  C   UNL     1       1.136   7.495  -0.900  0.00  0.00    +0.000 A 
ATOM     16  C   UNL     1       0.746   8.005  -2.124  0.00  0.00    +0.000 A 
ATOM     17  C   UNL     1       0.498   7.149  -3.182  0.00  0.00    +0.000 A 
ATOM     18  C   UNL     1       0.642   5.785  -3.015  0.00  0.00    +0.003 A 
ENDBRANCH  12  13
ENDBRANCH  11  12
ENDBRANCH   9  11
ENDBRANCH   1   2
BRANCH   1  20
ATOM     19  N   UNL     1       5.789   2.129   1.326  0.00  0.00    -0.308 N 
ATOM     20  C   UNL     1       4.782   1.770   0.506  0.00  0.00    +0.212 C 
ATOM     21  O   UNL     1       5.003   1.056  -0.449  0.00  0.00    -0.276 OA
ATOM     22  H   UNL     1       5.612   2.700   2.090  0.00  0.00    +0.149 HD
BRANCH  19  23
ATOM     23  C   UNL     1       7.151   1.657   1.064  0.00  0.00    +0.180 C 
BRANCH  23  29
ATOM     24  C   UNL     1       9.311   1.139   5.420  0.00  0.00    +0.066 C 
ATOM     25  C   UNL     1       9.089   1.943   4.164  0.00  0.00    +0.045 A 
ATOM     26  C   UNL     1       9.733   3.163   3.988  0.00  0.00    -0.005 A 
ATOM     27  C   UNL     1       9.503   3.865   2.825  0.00  0.00    +0.048 A 
ATOM     28  N   UNL     1       8.678   3.352   1.918  0.00  0.00    -0.235 NA
ATOM     29  C   UNL     1       8.081   2.196   2.120  0.00  0.00    +0.146 A 
ATOM     30  N   UNL     1       8.280   1.497   3.219  0.00  0.00    -0.235 NA
ATOM     31  C   UNL     1      10.156   5.188   2.535  0.00  0.00    +0.056 C 
ATOM     32  C   UNL     1      10.705   5.806   3.821  0.00  0.00    +0.006 C 
ATOM     33  C   UNL     1      11.565   4.758   4.536  0.00  0.00    +0.005 C 
ATOM     34  C   UNL     1      10.646   3.661   5.074  0.00  0.00    +0.039 C 
ENDBRANCH  23  29
ENDBRANCH  19  23
ENDBRANCH   1  20
TORSDOF 7
