REMARK  Name = ZINC39598611
REMARK  6 active torsions:
REMARK  status: ('A' for Active; 'I' for Inactive)
REMARK    1  A    between atoms: C_1  and  C_2
REMARK    2  A    between atoms: C_2  and  N_3
REMARK    3  A    between atoms: C_4  and  C_6
REMARK    4  A    between atoms: C_17  and  C_19
REMARK    5  A    between atoms: C_20  and  C_32
REMARK    6  A    between atoms: C_23  and  C_24
REMARK                            x       y       z     vdW  Elec       q    Type
REMARK                         _______ _______ _______ _____ _____    ______ ____
ROOT
ATOM      1  C   UNL     1      -2.581  -0.691   0.341  0.00  0.00    +0.100 C 
ATOM      2  C   UNL     1      -3.421  -0.852   1.629  0.00  0.00    +0.121 C 
ATOM      3  N   UNL     1      -3.932  -2.242   1.570  0.00  0.00    -0.296 N 
ATOM      4  C   UNL     1      -2.797  -3.030   1.032  0.00  0.00    +0.115 C 
ATOM      5  C   UNL     1      -2.173  -2.122  -0.046  0.00  0.00    -0.004 C 
ATOM      6  C   UNL     1      -2.732  -2.476  -1.421  0.00  0.00    -0.010 C 
ATOM      7  C   UNL     1      -2.266  -3.882  -1.810  0.00  0.00    -0.082 C 
ATOM      8  N   UNL     1      -0.798  -3.926  -1.829  0.00  0.00    +0.379 N 
ATOM      9  C   UNL     1      -0.272  -3.675  -0.481  0.00  0.00    -0.082 C 
ATOM     10  C   UNL     1      -0.654  -2.260  -0.037  0.00  0.00    -0.010 C 
ATOM     11  C   UNL     1      -5.152  -2.689   1.926  0.00  0.00    +0.252 C 
ATOM     12  O   UNL     1      -5.423  -3.869   1.819  0.00  0.00    -0.270 OA
ATOM     13  H   UNL     1      -0.494  -4.835  -2.143  0.00  0.00    -0.086 HD
ATOM     14  H   UNL     1      -0.451  -3.220  -2.461  0.00  0.00    -0.086 HD
ENDROOT
BRANCH  11  15
ATOM     15  C   UNL     1      -6.159  -1.747   2.445  0.00  0.00    +0.106 A 
ATOM     16  C   UNL     1      -7.154  -1.145   1.731  0.00  0.00    +0.147 A 
ATOM     17  O   UNL     1      -7.852  -0.366   2.561  0.00  0.00    -0.359 OA
ATOM     18  N   UNL     1      -7.304  -0.452   3.862  0.00  0.00    -0.077 NA
ATOM     19  C   UNL     1      -6.289  -1.278   3.833  0.00  0.00    +0.128 A 
ATOM     20  C   UNL     1      -7.420  -1.328   0.259  0.00  0.00    +0.090 C 
BRANCH  19  21
ATOM     21  C   UNL     1      -5.431  -1.664   4.979  0.00  0.00    +0.041 A 
ATOM     22  C   UNL     1      -4.722  -0.690   5.682  0.00  0.00    +0.052 A 
ATOM     23  C   UNL     1      -3.925  -1.056   6.749  0.00  0.00    +0.021 A 
ATOM     24  C   UNL     1      -3.829  -2.385   7.121  0.00  0.00    +0.003 A 
ATOM     25  C   UNL     1      -4.529  -3.355   6.427  0.00  0.00    +0.021 A 
ATOM     26  C   UNL     1      -5.335  -3.002   5.362  0.00  0.00    +0.052 A 
ATOM     27 CL   UNL     1      -6.219  -4.220   4.499  0.00  0.00    -0.083 Cl
ATOM     28 CL   UNL     1      -4.841   0.978   5.217  0.00  0.00    -0.083 Cl
ENDBRANCH  19  21
ENDBRANCH  11  15
BRANCH   1  30
ATOM     29  N   UNL     1      -0.813   0.884  -0.374  0.00  0.00    -0.315 N 
ATOM     30  C   UNL     1      -1.359   0.147   0.614  0.00  0.00    +0.218 C 
ATOM     31  O   UNL     1      -0.866   0.159   1.722  0.00  0.00    -0.275 OA
ATOM     32  H   UNL     1      -1.207   0.875  -1.260  0.00  0.00    +0.149 HD
BRANCH  29  34
ATOM     33  C   UNL     1       0.788   2.430  -1.388  0.00  0.00    +0.024 C 
ATOM     34  C   UNL     1       0.376   1.699  -0.109  0.00  0.00    +0.101 C 
ENDBRANCH  29  34
ENDBRANCH   1  30
TORSDOF 4
