REMARK  Name = ZINC13728491
REMARK  9 active torsions:
REMARK  status: ('A' for Active; 'I' for Inactive)
REMARK    1  A    between atoms: C_1  and  S_2
REMARK    2  A    between atoms: S_2  and  N_5
REMARK    3  A    between atoms: N_5  and  C_6
REMARK    4  A    between atoms: C_9  and  C_12
REMARK    5  A    between atoms: C_12  and  C_13
REMARK    6  A    between atoms: C_13  and  N_63
REMARK    7  A    between atoms: C_24  and  N_29
REMARK    8  A    between atoms: N_29  and  S_30
REMARK    9  A    between atoms: S_30  and  C_33
REMARK                            x       y       z     vdW  Elec       q    Type
REMARK                         _______ _______ _______ _____ _____    ______ ____
ROOT
ATOM      1  C   UNL     1      -7.045   5.436   0.205  0.00  0.00    -0.075 C 
ATOM      2  C   UNL     1      -8.346   6.147  -0.174  0.00  0.00    +0.030 C 
ATOM      3  C   UNL     1      -9.485   5.614   0.698  0.00  0.00    +0.114 C 
ATOM      4  C   UNL     1      -9.596   4.099   0.512  0.00  0.00    +0.030 C 
ATOM      5  C   UNL     1      -8.259   3.446   0.871  0.00  0.00    -0.075 C 
ATOM      6  C   UNL     1     -10.803   6.276   0.273  0.00  0.00    +0.127 C 
ATOM      7  C   UNL     1     -11.890   5.741   1.188  0.00  0.00    +0.170 C 
ATOM      8  O   UNL     1     -12.995   5.465   0.772  0.00  0.00    -0.292 OA
ATOM      9  C   UNL     1     -11.533   5.575   2.608  0.00  0.00    +0.061 A 
ATOM     10  C   UNL     1     -12.519   5.334   3.567  0.00  0.00    +0.039 A 
ATOM     11  C   UNL     1     -12.157   5.174   4.894  0.00  0.00    +0.049 A 
ATOM     12  C   UNL     1     -10.817   5.253   5.264  0.00  0.00    +0.028 A 
ATOM     13  C   UNL     1      -9.840   5.494   4.321  0.00  0.00    +0.048 A 
ATOM     14  C   UNL     1     -10.184   5.661   2.986  0.00  0.00    +0.132 A 
ATOM     15  O   UNL     1      -9.221   5.912   2.067  0.00  0.00    -0.485 OA
ATOM     16  N   UNL     1      -7.209   3.984  -0.021  0.00  0.00    +0.380 N 
ATOM     17  H   UNL     1      -7.488   3.828  -0.996  0.00  0.00    -0.082 HD
ENDROOT
BRANCH  11  18
ATOM     18  N   UNL     1     -13.138   4.933   5.862  0.00  0.00    -0.221 N 
ATOM     19  H   UNL     1     -13.839   4.285   5.691  0.00  0.00    +0.173 HD
BRANCH  18  20
ATOM     20  S   UNL     1     -13.101   5.754   7.300  0.00  0.00    +0.040 S 
ATOM     21  O   UNL     1     -14.208   5.249   8.034  0.00  0.00    -0.155 OA
ATOM     22  O   UNL     1     -11.775   5.584   7.781  0.00  0.00    -0.155 OA
ATOM     23  C   UNL     1     -13.386   7.489   6.853  0.00  0.00    +0.218 C 
ENDBRANCH  18  20
ENDBRANCH  11  18
BRANCH  16  24
ATOM     24  C   UNL     1      -5.930   3.287   0.229  0.00  0.00    -0.074 C 
BRANCH  24  25
ATOM     25  C   UNL     1      -4.925   3.701  -0.848  0.00  0.00    +0.016 C 
BRANCH  25  29
ATOM     26  C   UNL     1      -1.226   1.659  -0.207  0.00  0.00    +0.048 A 
ATOM     27  C   UNL     1      -1.453   2.892   0.392  0.00  0.00    +0.025 A 
ATOM     28  C   UNL     1      -2.648   3.551   0.178  0.00  0.00    +0.005 A 
ATOM     29  C   UNL     1      -3.621   2.981  -0.622  0.00  0.00    -0.049 A 
ATOM     30  C   UNL     1      -3.400   1.751  -1.214  0.00  0.00    +0.005 A 
ATOM     31  C   UNL     1      -2.205   1.089  -1.010  0.00  0.00    +0.025 A 
BRANCH  26  32
ATOM     32  N   UNL     1      -0.017   0.992   0.003  0.00  0.00    -0.221 N 
ATOM     33  H   UNL     1      -0.016   0.044   0.210  0.00  0.00    +0.173 HD
BRANCH  32  35
ATOM     34  C   UNL     1       1.466   2.432  -1.814  0.00  0.00    +0.218 C 
ATOM     35  S   UNL     1       1.415   1.817  -0.108  0.00  0.00    +0.040 S 
ATOM     36  O   UNL     1       1.280   2.901   0.800  0.00  0.00    -0.155 OA
ATOM     37  O   UNL     1       2.418   0.829   0.086  0.00  0.00    -0.155 OA
ENDBRANCH  32  35
ENDBRANCH  26  32
ENDBRANCH  25  29
ENDBRANCH  24  25
ENDBRANCH  16  24
TORSDOF 7
