REMARK  Name = ZINC67342051
REMARK  10 active torsions:
REMARK  status: ('A' for Active; 'I' for Inactive)
REMARK    1  A    between atoms: C_1  and  C_2
REMARK    2  A    between atoms: C_5  and  C_21
REMARK    3  A    between atoms: C_7  and  N_8
REMARK    4  A    between atoms: N_23  and  C_24
REMARK    5  A    between atoms: C_24  and  C_25
REMARK    6  A    between atoms: C_25  and  C_26
REMARK    7  A    between atoms: C_26  and  N_27
REMARK    8  A    between atoms: N_27  and  C_28
REMARK    9  A    between atoms: N_27  and  C_29
REMARK   10  A    between atoms: C_29  and  C_30
REMARK                            x       y       z     vdW  Elec       q    Type
REMARK                         _______ _______ _______ _____ _____    ______ ____
ROOT
ATOM      1  C   UNL     1       0.621   1.446   0.049  0.00  0.00    +0.046 C 
ATOM      2  C   UNL     1       0.314  -0.029   0.019  0.00  0.00    -0.025 A 
ATOM      3  C   UNL     1       0.321  -0.710  -1.182  0.00  0.00    +0.006 A 
ATOM      4  C   UNL     1       0.041  -2.061  -1.218  0.00  0.00    +0.013 A 
ATOM      5  C   UNL     1      -0.253  -2.749  -0.039  0.00  0.00    +0.039 A 
ATOM      6  C   UNL     1      -0.262  -2.069   1.177  0.00  0.00    +0.041 A 
ATOM      7  C   UNL     1       0.027  -0.705   1.207  0.00  0.00    +0.070 A 
ENDROOT
BRANCH   7   8
ATOM      8  N   UNL     1       0.025  -0.029   2.399  0.00  0.00    -0.226 NA
ATOM      9  C   UNL     1       0.690  -0.507   3.426  0.00  0.00    +0.155 C 
ATOM     10  N   UNL     1       1.527  -1.629   3.458  0.00  0.00    -0.318 N 
ATOM     11  C   UNL     1       1.914  -2.048   4.769  0.00  0.00    +0.108 C 
ATOM     12  C   UNL     1       3.009  -3.065   5.048  0.00  0.00    +0.189 C 
ATOM     13  S   UNL     1       3.248  -2.796   6.865  0.00  0.00    -0.028 S 
ATOM     14  O   UNL     1       4.601  -2.431   7.105  0.00  0.00    -0.174 OA
ATOM     15  O   UNL     1       2.681  -3.888   7.574  0.00  0.00    -0.174 OA
ATOM     16  C   UNL     1       2.170  -1.302   7.085  0.00  0.00    +0.182 C 
ATOM     17  C   UNL     1       2.233  -0.771   5.636  0.00  0.00    +0.097 C 
ATOM     18  S   UNL     1       0.734   0.139   5.105  0.00  0.00    -0.084 S 
ATOM     19  H   UNL     1       1.820  -2.086   2.654  0.00  0.00    +0.148 HD
ENDBRANCH   7   8
BRANCH   5  20
ATOM     20  C   UNL     1      -0.554  -4.196  -0.080  0.00  0.00    +0.244 C 
ATOM     21  O   UNL     1      -0.809  -4.794   0.947  0.00  0.00    -0.270 OA
ATOM     22  N   UNL     1      -0.545  -4.853  -1.257  0.00  0.00    -0.311 N 
ATOM     23  H   UNL     1      -0.341  -4.376  -2.077  0.00  0.00    +0.149 HD
BRANCH  22  24
ATOM     24  C   UNL     1      -0.843  -6.287  -1.298  0.00  0.00    +0.102 C 
BRANCH  24  25
ATOM     25  C   UNL     1      -0.766  -6.782  -2.744  0.00  0.00    +0.000 C 
BRANCH  25  26
ATOM     26  C   UNL     1      -1.077  -8.280  -2.786  0.00  0.00    -0.077 C 
BRANCH  26  27
ATOM     27  N   UNL     1      -1.004  -8.756  -4.174  0.00  0.00    +0.381 N 
ATOM     28  C   UNL     1       0.376  -8.632  -4.662  0.00  0.00    -0.096 C 
ATOM     29  H   UNL     1      -1.616  -8.201  -4.753  0.00  0.00    -0.082 HD
BRANCH  27  30
ATOM     30  C   UNL     1      -1.419 -10.164  -4.232  0.00  0.00    -0.043 C 
BRANCH  30  31
ATOM     31  C   UNL     1      -1.461 -10.617  -5.668  0.00  0.00    -0.064 A 
ATOM     32  C   UNL     1      -2.625 -10.479  -6.402  0.00  0.00    +0.002 A 
ATOM     33  C   UNL     1      -2.664 -10.894  -7.720  0.00  0.00    +0.000 A 
ATOM     34  C   UNL     1      -1.539 -11.447  -8.304  0.00  0.00    +0.000 A 
ATOM     35  C   UNL     1      -0.376 -11.584  -7.571  0.00  0.00    +0.000 A 
ATOM     36  C   UNL     1      -0.336 -11.165  -6.254  0.00  0.00    +0.002 A 
ENDBRANCH  30  31
ENDBRANCH  27  30
ENDBRANCH  26  27
ENDBRANCH  25  26
ENDBRANCH  24  25
ENDBRANCH  22  24
ENDBRANCH   5  20
TORSDOF 8
