REMARK  Name = ZINC01833713
REMARK  5 active torsions:
REMARK  status: ('A' for Active; 'I' for Inactive)
REMARK    1  A    between atoms: C_4  and  C_7
REMARK    2  A    between atoms: C_7  and  C_9
REMARK    3  A    between atoms: C_9  and  C_11
REMARK    4  A    between atoms: C_14  and  C_17
REMARK    5  A    between atoms: C_18  and  C_27
REMARK                            x       y       z     vdW  Elec       q    Type
REMARK                         _______ _______ _______ _____ _____    ______ ____
ROOT
ATOM      1  C   UNL     1       3.897   2.292  -1.142  0.00  0.00    +0.173 C 
ATOM      2  C   UNL     1       3.257   1.982   0.236  0.00  0.00    +0.173 C 
ATOM      3  N   UNL     1       3.140   3.303   0.869  0.00  0.00    -0.271 N 
ATOM      4  C   UNL     1       3.639   4.235   0.047  0.00  0.00    +0.303 C 
ATOM      5  O   UNL     1       3.673   5.417   0.329  0.00  0.00    -0.253 OA
ATOM      6  N   UNL     1       4.081   3.750  -1.120  0.00  0.00    -0.271 N 
ATOM      7  N   UNL     1       4.279   1.179   0.920  0.00  0.00    -0.271 N 
ATOM      8  C   UNL     1       5.328   1.007   0.105  0.00  0.00    +0.303 C 
ATOM      9  O   UNL     1       6.314   0.370   0.420  0.00  0.00    -0.253 OA
ATOM     10  N   UNL     1       5.199   1.613  -1.081  0.00  0.00    -0.271 N 
ATOM     11  H   UNL     1       2.774   3.471   1.752  0.00  0.00    +0.153 HD
ATOM     12  H   UNL     1       4.463   4.278  -1.838  0.00  0.00    +0.153 HD
ATOM     13  H   UNL     1       4.199   0.814   1.816  0.00  0.00    +0.153 HD
ATOM     14  H   UNL     1       5.861   1.606  -1.790  0.00  0.00    +0.153 HD
ENDROOT
BRANCH   1  18
ATOM     15  C   UNL     1       1.498   0.978  -4.430  0.00  0.00    +0.026 A 
ATOM     16  C   UNL     1       1.332   2.265  -3.909  0.00  0.00    +0.012 A 
ATOM     17  C   UNL     1       2.109   2.681  -2.849  0.00  0.00    +0.008 A 
ATOM     18  C   UNL     1       3.051   1.829  -2.300  0.00  0.00    -0.002 A 
ATOM     19  C   UNL     1       3.226   0.555  -2.814  0.00  0.00    +0.008 A 
ATOM     20  C   UNL     1       2.453   0.122  -3.870  0.00  0.00    +0.012 A 
BRANCH  15  21
ATOM     21  C   UNL     1       0.672   0.525  -5.564  0.00  0.00    +0.233 C 
ATOM     22  O   UNL     1      -0.220   1.232  -5.986  0.00  0.00    -0.283 OA
BRANCH  21  23
ATOM     23  C   UNL     1       0.932  -0.802  -6.194  0.00  0.00    +0.233 C 
ATOM     24  O   UNL     1       1.888  -0.948  -6.928  0.00  0.00    -0.283 OA
BRANCH  23  28
ATOM     25  C   UNL     1      -1.669  -4.065  -5.420  0.00  0.00    +0.000 A 
ATOM     26  C   UNL     1      -0.523  -4.261  -6.172  0.00  0.00    +0.001 A 
ATOM     27  C   UNL     1       0.327  -3.206  -6.428  0.00  0.00    +0.012 A 
ATOM     28  C   UNL     1       0.029  -1.935  -5.925  0.00  0.00    +0.026 A 
ATOM     29  C   UNL     1      -1.128  -1.747  -5.161  0.00  0.00    +0.012 A 
ATOM     30  C   UNL     1      -1.970  -2.811  -4.919  0.00  0.00    +0.001 A 
ENDBRANCH  23  28
ENDBRANCH  21  23
ENDBRANCH  15  21
ENDBRANCH   1  18
BRANCH   2  31
ATOM     31  C   UNL     1       1.934   1.270   0.123  0.00  0.00    -0.002 A 
ATOM     32  C   UNL     1       0.761   1.998   0.048  0.00  0.00    +0.007 A 
ATOM     33  C   UNL     1      -0.452   1.344  -0.056  0.00  0.00    +0.000 A 
ATOM     34  C   UNL     1      -0.493  -0.037  -0.083  0.00  0.00    +0.000 A 
ATOM     35  C   UNL     1       0.679  -0.765  -0.006  0.00  0.00    +0.000 A 
ATOM     36  C   UNL     1       1.893  -0.112   0.097  0.00  0.00    +0.007 A 
ENDBRANCH   2  31
TORSDOF 5
