REMARK  Name = ZINC33429240
REMARK  8 active torsions:
REMARK  status: ('A' for Active; 'I' for Inactive)
REMARK    1  A    between atoms: C_1  and  C_2
REMARK    2  A    between atoms: C_2  and  C_3
REMARK    3  A    between atoms: C_3  and  C_5
REMARK    4  A    between atoms: C_3  and  C_6
REMARK    5  A    between atoms: C_6  and  C_35
REMARK    6  A    between atoms: C_11  and  C_14
REMARK    7  A    between atoms: N_23  and  C_26
REMARK    8  A    between atoms: C_30  and  N_32
REMARK                            x       y       z     vdW  Elec       q    Type
REMARK                         _______ _______ _______ _____ _____    ______ ____
ROOT
ATOM      1  C   UNL     1       1.311   1.443   0.023  0.00  0.00    +0.051 C 
ATOM      2  C   UNL     1      -0.124   1.120  -0.035  0.00  0.00    +0.086 C 
ATOM      3  C   UNL     1      -0.480   1.484  -1.530  0.00  0.00    +0.077 C 
ATOM      4  C   UNL     1       0.671   0.743  -2.205  0.00  0.00    -0.027 C 
ATOM      5  N   UNL     1       1.823   0.849  -1.260  0.00  0.00    +0.396 N 
ATOM      6  C   UNL     1      -1.861   0.887  -1.516  0.00  0.00    +0.229 C 
ATOM      7  O   UNL     1      -2.427   0.334  -2.434  0.00  0.00    -0.275 OA
ATOM      8  N   UNL     1      -2.344   1.097  -0.255  0.00  0.00    -0.210 N 
ATOM      9  C   UNL     1      -1.365   1.426   0.630  0.00  0.00    +0.229 C 
ATOM     10  O   UNL     1      -1.516   1.874   1.746  0.00  0.00    -0.275 OA
ATOM     11  H   UNL     1       2.603   1.500  -1.681  0.00  0.00    -0.083 HD
ATOM     12  H   UNL     1       2.245  -0.147  -1.060  0.00  0.00    -0.083 HD
ENDROOT
BRANCH   4  13
ATOM     13  C   UNL     1       0.305  -0.703  -2.421  0.00  0.00    -0.061 A 
ATOM     14  C   UNL     1       0.485  -1.621  -1.403  0.00  0.00    +0.003 A 
ATOM     15  C   UNL     1       0.145  -2.946  -1.599  0.00  0.00    +0.015 A 
ATOM     16  C   UNL     1      -0.365  -3.356  -2.818  0.00  0.00    +0.018 A 
ATOM     17  C   UNL     1      -0.540  -2.438  -3.838  0.00  0.00    +0.015 A 
ATOM     18  C   UNL     1      -0.204  -1.112  -3.639  0.00  0.00    +0.003 A 
ATOM     19 BR   UNL     1      -0.823  -5.171  -3.089  0.00  0.00    -0.050 Br
ENDBRANCH   4  13
BRANCH   8  20
ATOM     20  C   UNL     1      -3.700   0.988   0.085  0.00  0.00    +0.046 A 
ATOM     21  C   UNL     1      -4.109   1.212   1.393  0.00  0.00    +0.024 A 
ATOM     22  C   UNL     1      -5.446   1.109   1.723  0.00  0.00    +0.004 A 
ATOM     23  C   UNL     1      -6.375   0.773   0.755  0.00  0.00    +0.033 A 
ATOM     24  C   UNL     1      -5.970   0.545  -0.546  0.00  0.00    +0.128 A 
ATOM     25  C   UNL     1      -4.635   0.651  -0.884  0.00  0.00    +0.056 A 
BRANCH  24  26
ATOM     26  N   UNL     1      -6.968   0.186  -1.579  0.00  0.00    +0.056 N 
ATOM     27  O   UNL     1      -6.611  -0.015  -2.726  0.00  0.00    -0.126 OA
ATOM     28  O   UNL     1      -8.145   0.092  -1.282  0.00  0.00    -0.126 OA
ENDBRANCH  24  26
ENDBRANCH   8  20
BRANCH   1  29
ATOM     29  C   UNL     1       1.526   2.934   0.047  0.00  0.00    +0.347 C 
ATOM     30  O   UNL     1       0.657   3.663   0.464  0.00  0.00    -0.248 OA
ATOM     31  O   UNL     1       2.682   3.453  -0.395  0.00  0.00    -0.248 OA
ENDBRANCH   1  29
BRANCH   1  32
ATOM     32  C   UNL     1       1.971   0.777   1.233  0.00  0.00    -0.014 C 
ATOM     33  C   UNL     1       1.222   1.176   2.506  0.00  0.00    +0.006 C 
BRANCH  32  35
ATOM     34  C   UNL     1       4.122   0.472   2.466  0.00  0.00    +0.004 C 
ATOM     35  C   UNL     1       3.428   1.231   1.334  0.00  0.00    -0.001 C 
ENDBRANCH  32  35
ENDBRANCH   1  32
TORSDOF 6
