REMARK  Name = ZINC09410126
REMARK  11 active torsions:
REMARK  status: ('A' for Active; 'I' for Inactive)
REMARK    1  A    between atoms: C_1  and  N_53
REMARK    2  A    between atoms: C_2  and  N_53
REMARK    3  A    between atoms: C_3  and  C_5
REMARK    4  A    between atoms: C_3  and  C_28
REMARK    5  A    between atoms: C_3  and  N_53
REMARK    6  A    between atoms: C_5  and  N_6
REMARK    7  A    between atoms: C_7  and  C_21
REMARK    8  A    between atoms: C_9  and  C_14
REMARK    9  A    between atoms: C_10  and  O_13
REMARK   10  A    between atoms: C_14  and  C_16
REMARK   11  A    between atoms: C_24  and  O_27
REMARK                            x       y       z     vdW  Elec       q    Type
REMARK                         _______ _______ _______ _____ _____    ______ ____
ROOT
ATOM      1  N   UNL     1       5.069   6.017   0.250  0.00  0.00    -0.285 N 
ATOM      2  C   UNL     1       3.664   5.693   0.524  0.00  0.00    +0.144 C 
ATOM      3  C   UNL     1       2.861   6.892   0.076  0.00  0.00    +0.072 C 
ATOM      4  C   UNL     1       3.744   7.795  -0.408  0.00  0.00    +0.188 C 
ATOM      5  C   UNL     1       5.111   7.248  -0.292  0.00  0.00    +0.282 C 
ATOM      6  O   UNL     1       6.124   7.823  -0.639  0.00  0.00    -0.267 OA
ENDROOT
BRANCH   2   7
ATOM      7  C   UNL     1       3.252   4.472  -0.257  0.00  0.00    -0.022 A 
ATOM      8  C   UNL     1       3.591   4.360  -1.593  0.00  0.00    +0.009 A 
ATOM      9  C   UNL     1       3.220   3.239  -2.309  0.00  0.00    +0.046 A 
ATOM     10  C   UNL     1       2.495   2.231  -1.691  0.00  0.00    +0.117 A 
ATOM     11  C   UNL     1       2.150   2.348  -0.352  0.00  0.00    +0.046 A 
ATOM     12  C   UNL     1       2.530   3.469   0.361  0.00  0.00    +0.009 A 
BRANCH  10  13
ATOM     13  O   UNL     1       2.124   1.129  -2.395  0.00  0.00    -0.507 OA
ATOM     14  H   UNL     1       1.263   1.211  -2.828  0.00  0.00    +0.292 HD
ENDBRANCH  10  13
ENDBRANCH   2   7
BRANCH   4  15
ATOM     15  O   UNL     1       3.426   9.009  -0.915  0.00  0.00    -0.502 OA
ATOM     16  H   UNL     1       4.261   9.479  -1.203  0.00  0.00    +0.292 HD
ENDBRANCH   4  15
BRANCH   3  17
ATOM     17  C   UNL     1       1.403   7.045   0.146  0.00  0.00    +0.201 C 
ATOM     18  O   UNL     1       0.748   7.116  -0.879  0.00  0.00    -0.286 OA
BRANCH  17  19
ATOM     19  C   UNL     1       0.735   7.112   1.448  0.00  0.00    +0.059 A 
ATOM     20  C   UNL     1      -0.605   7.338   1.735  0.00  0.00    +0.019 A 
ATOM     21  C   UNL     1      -0.968   7.343   3.057  0.00  0.00    +0.008 A 
ATOM     22  C   UNL     1      -0.016   7.144   4.008  0.00  0.00    +0.046 A 
ATOM     23  S   UNL     1       1.432   6.925   3.080  0.00  0.00    -0.093 S 
ENDBRANCH  17  19
ENDBRANCH   3  17
BRANCH   1  24
ATOM     24  C   UNL     1       6.221   5.154   0.519  0.00  0.00    +0.099 C 
BRANCH  24  25
ATOM     25  C   UNL     1       6.498   4.277  -0.704  0.00  0.00    -0.014 C 
BRANCH  25  26
ATOM     26  C   UNL     1       7.755   3.478  -0.475  0.00  0.00    -0.022 A 
ATOM     27  C   UNL     1       7.916   2.133  -0.433  0.00  0.00    +0.009 A 
ATOM     28  C   UNL     1       9.178   1.615  -0.207  0.00  0.00    +0.008 A 
ATOM     29  C   UNL     1      10.217   2.468  -0.034  0.00  0.00    +0.045 A 
ATOM     30  S   UNL     1       9.421   4.058  -0.196  0.00  0.00    -0.103 S 
ENDBRANCH  25  26
BRANCH  25  33
ATOM     31  C   UNL     1       7.889   5.940  -1.783  0.00  0.00    -0.096 C 
ATOM     32  C   UNL     1       6.675   4.326  -3.119  0.00  0.00    -0.096 C 
ATOM     33  N   UNL     1       6.646   5.147  -1.890  0.00  0.00    +0.382 N 
ATOM     34  H   UNL     1       5.845   5.787  -1.936  0.00  0.00    -0.082 HD
ENDBRANCH  25  33
ENDBRANCH  24  25
ENDBRANCH   1  24
TORSDOF 9
