REMARK  Name = ZINC20527647
REMARK  11 active torsions:
REMARK  status: ('A' for Active; 'I' for Inactive)
REMARK    1  A    between atoms: C_1  and  C_2
REMARK    2  A    between atoms: C_7  and  N_8
REMARK    3  A    between atoms: C_9  and  C_11
REMARK    4  A    between atoms: C_11  and  S_12
REMARK    5  A    between atoms: S_12  and  C_13
REMARK    6  A    between atoms: N_17  and  N_18
REMARK    7  A    between atoms: N_19  and  N_20
REMARK    8  A    between atoms: C_21  and  C_22
REMARK    9  A    between atoms: C_25  and  N_28
REMARK   10  A    between atoms: N_28  and  C_29
REMARK   11  A    between atoms: N_28  and  C_30
REMARK                            x       y       z     vdW  Elec       q    Type
REMARK                         _______ _______ _______ _____ _____    ______ ____
ROOT
ATOM      1  C   UNL     1       0.713  -2.097  -0.046  0.00  0.00    +0.210 A 
ATOM      2  N   UNL     1      -0.598  -2.116  -0.040  0.00  0.00    -0.119 NA
ATOM      3  N   UNL     1      -1.050  -0.789  -0.035  0.00  0.00    -0.109 NA
ATOM      4  C   UNL     1       0.000  -0.004  -0.045  0.00  0.00    +0.254 A 
ATOM      5  N   UNL     1       1.117  -0.792  -0.049  0.00  0.00    -0.211 N 
ATOM      6  N   UNL     1      -0.019   1.383  -0.045  0.00  0.00    -0.204 N 
ATOM      7  H   UNL     1       0.926   1.946  -0.045  0.00  0.00    +0.177 HD
ENDROOT
BRANCH   5   8
ATOM      8  N   UNL     1       2.410  -0.352  -0.055  0.00  0.00    -0.294 N 
ATOM      9  H   UNL     1       2.624   0.727  -0.057  0.00  0.00    +0.163 HD
ATOM     10  H   UNL     1       3.238  -1.077  -0.059  0.00  0.00    +0.163 HD
ENDBRANCH   5   8
BRANCH   6  11
ATOM     11  N   UNL     1      -1.242   2.067  -0.047  0.00  0.00    -0.188 NA
ATOM     12  C   UNL     1      -1.260   3.365  -0.047  0.00  0.00    +0.138 C 
BRANCH  12  13
ATOM     13  C   UNL     1      -2.546   4.085  -0.049  0.00  0.00    -0.005 A 
ATOM     14  C   UNL     1      -3.748   3.371  -0.055  0.00  0.00    +0.011 A 
ATOM     15  C   UNL     1      -4.949   4.046  -0.052  0.00  0.00    +0.024 A 
ATOM     16  C   UNL     1      -4.966   5.437  -0.052  0.00  0.00    +0.029 A 
ATOM     17  C   UNL     1      -3.772   6.151  -0.050  0.00  0.00    +0.024 A 
ATOM     18  C   UNL     1      -2.568   5.482  -0.049  0.00  0.00    +0.011 A 
BRANCH  16  19
ATOM     19  N   UNL     1      -6.184   6.118  -0.053  0.00  0.00    -0.336 N 
ATOM     20  C   UNL     1      -6.204   7.583  -0.054  0.00  0.00    +0.129 C 
ATOM     21  C   UNL     1      -7.442   5.368  -0.055  0.00  0.00    +0.129 C 
ENDBRANCH  16  19
ENDBRANCH  12  13
ENDBRANCH   6  11
BRANCH   1  22
ATOM     22  S   UNL     1       1.769  -3.508  -0.049  0.00  0.00    -0.075 S 
BRANCH  22  23
ATOM     23  C   UNL     1       0.622  -4.914  -0.043  0.00  0.00    +0.173 C 
BRANCH  23  25
ATOM     24  N   UNL     1       0.759  -7.384  -0.041  0.00  0.00    -0.285 N 
ATOM     25  C   UNL     1       1.405  -6.201  -0.044  0.00  0.00    +0.227 C 
ATOM     26  O   UNL     1       2.618  -6.173  -0.049  0.00  0.00    -0.275 OA
ATOM     27  H   UNL     1      -0.337  -7.411   0.055  0.00  0.00    +0.155 HD
BRANCH  24  34
ATOM     28  C   UNL     1      -0.389  -9.760   1.023  0.00  0.00    +0.045 C 
ATOM     29  C   UNL     1       0.958  -9.759   0.347  0.00  0.00    -0.029 A 
ATOM     30  C   UNL     1       1.670 -10.936   0.225  0.00  0.00    +0.006 A 
ATOM     31  C   UNL     1       2.909 -10.936  -0.391  0.00  0.00    +0.020 A 
ATOM     32  C   UNL     1       3.435  -9.758  -0.891  0.00  0.00    +0.043 A 
ATOM     33  C   UNL     1       2.724  -8.579  -0.777  0.00  0.00    +0.043 A 
ATOM     34  C   UNL     1       1.481  -8.576  -0.159  0.00  0.00    +0.038 A 
ATOM     35 CL   UNL     1       4.990  -9.763  -1.664  0.00  0.00    -0.083 Cl
ENDBRANCH  24  34
ENDBRANCH  23  25
ENDBRANCH  22  23
ENDBRANCH   1  22
TORSDOF 8
