REMARK  Name = ZINC39675201
REMARK  11 active torsions:
REMARK  status: ('A' for Active; 'I' for Inactive)
REMARK    1  A    between atoms: C_1  and  C_2
REMARK    2  A    between atoms: C_2  and  C_4
REMARK    3  A    between atoms: C_2  and  N_14
REMARK    4  A    between atoms: C_4  and  C_5
REMARK    5  A    between atoms: C_5  and  C_6
REMARK    6  A    between atoms: C_9  and  O_12
REMARK    7  A    between atoms: O_12  and  C_13
REMARK    8  A    between atoms: C_15  and  C_17
REMARK    9  A    between atoms: C_28  and  C_30
REMARK   10  A    between atoms: C_30  and  C_31
REMARK   11  A    between atoms: C_31  and  C_32
REMARK                            x       y       z     vdW  Elec       q    Type
REMARK                         _______ _______ _______ _____ _____    ______ ____
ROOT
ATOM      1  C   UNL     1      -3.442  -1.177   1.191  0.00  0.00    +0.100 C 
ATOM      2  C   UNL     1      -3.507  -2.570   0.526  0.00  0.00    +0.121 C 
ATOM      3  N   UNL     1      -3.410  -3.528   1.653  0.00  0.00    -0.300 N 
ATOM      4  C   UNL     1      -4.225  -2.915   2.729  0.00  0.00    +0.115 C 
ATOM      5  C   UNL     1      -3.917  -1.407   2.636  0.00  0.00    -0.004 C 
ATOM      6  C   UNL     1      -2.814  -1.032   3.621  0.00  0.00    -0.010 C 
ATOM      7  C   UNL     1      -3.330  -1.216   5.051  0.00  0.00    -0.082 C 
ATOM      8  N   UNL     1      -4.509  -0.367   5.261  0.00  0.00    +0.379 N 
ATOM      9  C   UNL     1      -5.597  -0.794   4.373  0.00  0.00    -0.082 C 
ATOM     10  C   UNL     1      -5.178  -0.593   2.914  0.00  0.00    -0.010 C 
ATOM     11  C   UNL     1      -2.734  -4.693   1.690  0.00  0.00    +0.216 C 
ATOM     12  O   UNL     1      -2.752  -5.372   2.695  0.00  0.00    -0.276 OA
ATOM     13  H   UNL     1      -4.810  -0.443   6.221  0.00  0.00    -0.086 HD
ATOM     14  H   UNL     1      -4.270   0.593   5.061  0.00  0.00    -0.086 HD
ENDROOT
BRANCH   1  16
ATOM     15  N   UNL     1      -1.800   0.673   1.157  0.00  0.00    -0.312 N 
ATOM     16  C   UNL     1      -2.029  -0.655   1.181  0.00  0.00    +0.218 C 
ATOM     17  O   UNL     1      -1.096  -1.431   1.193  0.00  0.00    -0.275 OA
ATOM     18  H   UNL     1      -2.546   1.293   1.147  0.00  0.00    +0.149 HD
BRANCH  15  20
ATOM     19  C   UNL     1       0.097   1.264   2.582  0.00  0.00    +0.028 C 
ATOM     20  C   UNL     1      -0.426   1.180   1.147  0.00  0.00    +0.070 C 
BRANCH  20  21
ATOM     21  C   UNL     1      -0.401   2.572   0.512  0.00  0.00    +0.026 C 
BRANCH  21  22
ATOM     22  C   UNL     1      -0.806   2.469  -0.959  0.00  0.00    +0.037 C 
BRANCH  22  23
ATOM     23  C   UNL     1      -0.781   3.841  -1.584  0.00  0.00    -0.047 A 
ATOM     24  C   UNL     1      -1.915   4.630  -1.561  0.00  0.00    +0.007 A 
ATOM     25  C   UNL     1      -1.895   5.887  -2.133  0.00  0.00    +0.046 A 
ATOM     26  C   UNL     1      -0.735   6.357  -2.731  0.00  0.00    +0.120 A 
ATOM     27  C   UNL     1       0.402   5.563  -2.753  0.00  0.00    +0.046 A 
ATOM     28  C   UNL     1       0.378   4.309  -2.175  0.00  0.00    +0.007 A 
BRANCH  26  29
ATOM     29  O   UNL     1      -0.713   7.594  -3.295  0.00  0.00    -0.495 OA
ATOM     30  C   UNL     1       0.515   8.012  -3.893  0.00  0.00    +0.277 C 
ENDBRANCH  26  29
ENDBRANCH  22  23
ENDBRANCH  21  22
ENDBRANCH  20  21
ENDBRANCH  15  20
ENDBRANCH   1  16
BRANCH  11  31
ATOM     31  C   UNL     1      -1.956  -5.152   0.484  0.00  0.00    +0.100 C 
BRANCH  31  32
ATOM     32  C   UNL     1      -1.288  -6.494   0.789  0.00  0.00    +0.044 C 
BRANCH  32  33
ATOM     33  C   UNL     1      -0.509  -6.953  -0.417  0.00  0.00    -0.047 A 
ATOM     34  C   UNL     1      -1.123  -7.734  -1.379  0.00  0.00    +0.003 A 
ATOM     35  C   UNL     1      -0.409  -8.155  -2.486  0.00  0.00    +0.000 A 
ATOM     36  C   UNL     1       0.918  -7.795  -2.630  0.00  0.00    +0.000 A 
ATOM     37  C   UNL     1       1.531  -7.014  -1.669  0.00  0.00    +0.000 A 
ATOM     38  C   UNL     1       0.816  -6.589  -0.564  0.00  0.00    +0.003 A 
ENDBRANCH  32  33
ENDBRANCH  31  32
ENDBRANCH  11  31
TORSDOF 9
