REMARK  Name = ZINC18180021
REMARK  12 active torsions:
REMARK  status: ('A' for Active; 'I' for Inactive)
REMARK    1  A    between atoms: C_1  and  C_2
REMARK    2  A    between atoms: C_4  and  C_39
REMARK    3  A    between atoms: C_6  and  N_8
REMARK    4  A    between atoms: C_9  and  C_11
REMARK    5  A    between atoms: C_12  and  N_38
REMARK    6  A    between atoms: C_19  and  C_21
REMARK    7  A    between atoms: C_24  and  O_29
REMARK    8  A    between atoms: C_25  and  O_27
REMARK    9  A    between atoms: O_27  and  C_28
REMARK   10  A    between atoms: O_29  and  C_30
REMARK   11  A    between atoms: C_34  and  C_36
REMARK   12  A    between atoms: C_34  and  C_37
REMARK                            x       y       z     vdW  Elec       q    Type
REMARK                         _______ _______ _______ _____ _____    ______ ____
ROOT
ATOM      1  C   UNL     1       3.392   3.563  -0.273  0.00  0.00    +0.097 A 
ATOM      2  C   UNL     1       3.577   2.192  -0.086  0.00  0.00    +0.050 A 
ATOM      3  C   UNL     1       2.469   1.371   0.021  0.00  0.00    +0.014 A 
ATOM      4  C   UNL     1       1.235   1.981  -0.070  0.00  0.00    +0.076 A 
ATOM      5  S   UNL     1       1.609   3.694  -0.297  0.00  0.00    -0.067 S 
ATOM      6  N   UNL     1       0.034   1.327   0.008  0.00  0.00    -0.312 N 
ATOM      7  C   UNL     1       0.040  -0.042  -0.136  0.00  0.00    +0.016 C 
ATOM      8  C   UNL     1       1.181  -0.757  -0.047  0.00  0.00    +0.024 C 
ATOM      9  C   UNL     1       2.528  -0.134   0.231  0.00  0.00    +0.088 C 
ATOM     10  C   UNL     1       1.159  -2.157  -0.206  0.00  0.00    +0.162 C 
ATOM     11  O   UNL     1       2.202  -2.777  -0.147  0.00  0.00    -0.292 OA
ATOM     12  C   UNL     1      -0.123  -2.902  -0.447  0.00  0.00    +0.086 C 
ATOM     13  C   UNL     1      -1.280  -2.122   0.186  0.00  0.00    -0.023 C 
ATOM     14  C   UNL     1      -1.286  -0.711  -0.405  0.00  0.00    +0.058 C 
ATOM     15  C   UNL     1      -1.083  -2.046   1.702  0.00  0.00    +0.011 C 
ATOM     16  C   UNL     1      -2.606  -2.819  -0.128  0.00  0.00    +0.011 C 
ATOM     17  H   UNL     1      -0.793   1.812   0.154  0.00  0.00    +0.152 HD
ENDROOT
BRANCH   9  18
ATOM     18  C   UNL     1       2.925  -0.419   1.657  0.00  0.00    -0.032 A 
ATOM     19  C   UNL     1       2.127   0.022   2.696  0.00  0.00    +0.008 A 
ATOM     20  C   UNL     1       2.487  -0.238   4.006  0.00  0.00    +0.050 A 
ATOM     21  C   UNL     1       3.648  -0.942   4.278  0.00  0.00    +0.162 A 
ATOM     22  C   UNL     1       4.451  -1.386   3.232  0.00  0.00    +0.162 A 
ATOM     23  C   UNL     1       4.082  -1.127   1.922  0.00  0.00    +0.054 A 
BRANCH  22  24
ATOM     24  O   UNL     1       5.592  -2.078   3.495  0.00  0.00    -0.491 OA
ATOM     25  C   UNL     1       6.366  -2.503   2.371  0.00  0.00    +0.277 C 
ENDBRANCH  22  24
BRANCH  21  26
ATOM     26  O   UNL     1       4.003  -1.199   5.566  0.00  0.00    -0.491 OA
ATOM     27  C   UNL     1       3.131  -0.713   6.588  0.00  0.00    +0.277 C 
ENDBRANCH  21  26
ENDBRANCH   9  18
BRANCH   1  29
ATOM     28  N   UNL     1       3.972   5.859  -0.581  0.00  0.00    -0.281 N 
ATOM     29  C   UNL     1       4.359   4.580  -0.406  0.00  0.00    +0.257 C 
ATOM     30  O   UNL     1       5.545   4.302  -0.363  0.00  0.00    -0.269 OA
ATOM     31  H   UNL     1       3.032   6.070  -0.692  0.00  0.00    +0.155 HD
BRANCH  28  37
ATOM     32  C   UNL     1       5.470  10.212  -2.305  0.00  0.00    +0.044 C 
ATOM     33  C   UNL     1       5.678   9.003  -1.429  0.00  0.00    -0.048 A 
ATOM     34  C   UNL     1       6.814   8.903  -0.647  0.00  0.00    +0.006 A 
ATOM     35  C   UNL     1       7.008   7.795   0.157  0.00  0.00    -0.048 A 
ATOM     36  C   UNL     1       6.068   6.784   0.181  0.00  0.00    +0.026 A 
ATOM     37  C   UNL     1       4.926   6.881  -0.603  0.00  0.00    +0.034 A 
ATOM     38  C   UNL     1       4.736   7.993  -1.413  0.00  0.00    +0.026 A 
ATOM     39  C   UNL     1       8.248   7.691   1.008  0.00  0.00    +0.044 C 
ENDBRANCH  28  37
ENDBRANCH   1  29
BRANCH   2  40
ATOM     40  N   UNL     1       4.861   1.659  -0.010  0.00  0.00    -0.357 N 
ATOM     41  H   UNL     1       4.982   0.705   0.119  0.00  0.00    +0.142 HD
ATOM     42  H   UNL     1       5.633   2.240  -0.086  0.00  0.00    +0.142 HD
ENDBRANCH   2  40
TORSDOF 6
