REMARK  Name = ZINC36484456
REMARK  15 active torsions:
REMARK  status: ('A' for Active; 'I' for Inactive)
REMARK    1  A    between atoms: C_1  and  C_2
REMARK    2  A    between atoms: C_2  and  C_3
REMARK    3  A    between atoms: C_2  and  C_4
REMARK    4  A    between atoms: C_2  and  C_5
REMARK    5  A    between atoms: C_5  and  C_6
REMARK    6  A    between atoms: C_6  and  C_7
REMARK    7  A    between atoms: C_6  and  C_8
REMARK    8  A    between atoms: C_6  and  N_9
REMARK    9  A    between atoms: C_10  and  C_12
REMARK   10  A    between atoms: C_12  and  C_14
REMARK   11  A    between atoms: C_12  and  N_21
REMARK   12  A    between atoms: C_19  and  O_20
REMARK   13  A    between atoms: N_21  and  C_22
REMARK   14  A    between atoms: C_29  and  C_31
REMARK   15  A    between atoms: C_32  and  C_33
REMARK                            x       y       z     vdW  Elec       q    Type
REMARK                         _______ _______ _______ _____ _____    ______ ____
ROOT
ATOM      1  C   UNL     1       5.332  -0.639  -4.194  0.00  0.00    +0.202 C 
ENDROOT
BRANCH   1   2
ATOM      2  C   UNL     1       4.720   0.250  -5.244  0.00  0.00    +0.024 A 
ATOM      3  C   UNL     1       3.992   1.363  -4.869  0.00  0.00    +0.009 A 
ATOM      4  C   UNL     1       3.430   2.180  -5.833  0.00  0.00    +0.001 A 
ATOM      5  C   UNL     1       3.594   1.885  -7.174  0.00  0.00    +0.004 A 
ATOM      6  C   UNL     1       4.321   0.774  -7.554  0.00  0.00    +0.046 A 
ATOM      7  C   UNL     1       4.891  -0.044  -6.589  0.00  0.00    +0.122 A 
BRANCH   7   8
ATOM      8  O   UNL     1       5.612  -1.135  -6.961  0.00  0.00    -0.506 OA
ATOM      9  H   UNL     1       5.101  -1.955  -6.981  0.00  0.00    +0.292 HD
ENDBRANCH   7   8
ENDBRANCH   1   2
BRANCH   1  11
ATOM     10  N   UNL     1       3.338  -1.061  -2.792  0.00  0.00    -0.308 N 
ATOM     11  C   UNL     1       4.560  -0.503  -2.907  0.00  0.00    +0.239 C 
ATOM     12  O   UNL     1       5.037   0.109  -1.975  0.00  0.00    -0.273 OA
ATOM     13  H   UNL     1       2.973  -1.584  -3.523  0.00  0.00    +0.149 HD
BRANCH  10  14
ATOM     14  C   UNL     1       2.561  -0.877  -1.564  0.00  0.00    +0.030 C 
ATOM     15  C   UNL     1       2.459   0.615  -1.244  0.00  0.00    +0.031 C 
ATOM     16  C   UNL     1       3.256  -1.601  -0.409  0.00  0.00    +0.031 C 
BRANCH  14  17
ATOM     17  C   UNL     1       1.158  -1.454  -1.757  0.00  0.00    +0.031 C 
BRANCH  17  19
ATOM     18  C   UNL     1       1.208  -1.969  -4.202  0.00  0.00    +0.010 C 
ATOM     19  C   UNL     1       0.623  -1.046  -3.131  0.00  0.00    -0.036 C 
ATOM     20  C   UNL     1       1.028   0.399  -3.427  0.00  0.00    +0.010 C 
ATOM     21  C   UNL     1      -0.903  -1.159  -3.139  0.00  0.00    +0.010 C 
ENDBRANCH  17  19
ENDBRANCH  14  17
ENDBRANCH  10  14
ENDBRANCH   1  11
BRANCH   1  22
ATOM     22  N   UNL     1       6.726  -0.244  -3.971  0.00  0.00    -0.245 N 
ATOM     23  C   UNL     1       7.725  -1.095  -4.278  0.00  0.00    +0.297 C 
ATOM     24  O   UNL     1       7.469  -2.225  -4.651  0.00  0.00    -0.260 OA
BRANCH  22  25
ATOM     25  C   UNL     1       7.019   1.015  -3.439  0.00  0.00    +0.040 A 
ATOM     26  C   UNL     1       7.719   1.121  -2.244  0.00  0.00    +0.023 A 
ATOM     27  C   UNL     1       8.007   2.366  -1.722  0.00  0.00    +0.003 A 
ATOM     28  C   UNL     1       7.599   3.508  -2.387  0.00  0.00    +0.020 A 
ATOM     29  C   UNL     1       6.901   3.407  -3.577  0.00  0.00    +0.043 A 
ATOM     30  C   UNL     1       6.615   2.163  -4.108  0.00  0.00    +0.043 A 
ATOM     31 CL   UNL     1       6.391   4.843  -4.408  0.00  0.00    -0.083 Cl
ENDBRANCH  22  25
BRANCH  23  32
ATOM     32  C   UNL     1       9.087  -0.670  -4.165  0.00  0.00    -0.002 C 
ATOM     33  C   UNL     1      10.205  -0.321  -4.072  0.00  0.00    -0.057 C 
BRANCH  33  34
ATOM     34  C   UNL     1      11.567   0.104  -3.960  0.00  0.00    +0.025 A 
ATOM     35  C   UNL     1      11.866   1.400  -3.526  0.00  0.00    +0.017 A 
ATOM     36  C   UNL     1      13.180   1.802  -3.420  0.00  0.00    +0.001 A 
ATOM     37  C   UNL     1      14.203   0.927  -3.742  0.00  0.00    +0.000 A 
ATOM     38  C   UNL     1      13.916  -0.357  -4.172  0.00  0.00    +0.001 A 
ATOM     39  C   UNL     1      12.607  -0.776  -4.277  0.00  0.00    +0.017 A 
ENDBRANCH  33  34
ENDBRANCH  23  32
ENDBRANCH   1  22
TORSDOF 10
