REMARK  Name = ZINC30499113
REMARK  10 active torsions:
REMARK  status: ('A' for Active; 'I' for Inactive)
REMARK    1  A    between atoms: C_1  and  C_2
REMARK    2  A    between atoms: C_2  and  C_3
REMARK    3  A    between atoms: N_5  and  C_6
REMARK    4  A    between atoms: C_9  and  C_12
REMARK    5  A    between atoms: C_12  and  C_14
REMARK    6  A    between atoms: C_12  and  N_15
REMARK    7  A    between atoms: N_15  and  C_16
REMARK    8  A    between atoms: C_16  and  C_18
REMARK    9  A    between atoms: C_16  and  C_19
REMARK   10  A    between atoms: N_21  and  C_22
REMARK                            x       y       z     vdW  Elec       q    Type
REMARK                         _______ _______ _______ _____ _____    ______ ____
ROOT
ATOM      1  N   UNL     1      -6.211  -1.900   1.492  0.00  0.00    +0.391 N 
ATOM      2  H   UNL     1      -5.643  -2.732   1.050  0.00  0.00    -0.084 HD
ATOM      3  H   UNL     1      -5.646  -1.478   2.336  0.00  0.00    -0.084 HD
ENDROOT
BRANCH   1   4
ATOM      4  C   UNL     1      -6.425  -0.859   0.477  0.00  0.00    -0.043 C 
ATOM      5  C   UNL     1      -5.184  -0.750  -0.411  0.00  0.00    -0.009 C 
BRANCH   4   9
ATOM      6  C   UNL     1      -7.130   2.889   2.406  0.00  0.00    +0.033 A 
ATOM      7  C   UNL     1      -6.164   2.022   2.901  0.00  0.00    +0.023 A 
ATOM      8  C   UNL     1      -5.943   0.809   2.279  0.00  0.00    +0.004 A 
ATOM      9  C   UNL     1      -6.673   0.462   1.157  0.00  0.00    -0.062 A 
ATOM     10  C   UNL     1      -7.632   1.325   0.658  0.00  0.00    +0.004 A 
ATOM     11  C   UNL     1      -7.862   2.537   1.280  0.00  0.00    +0.023 A 
BRANCH   6  14
ATOM     12  C   UNL     1      -8.610   4.619   3.096  0.00  0.00    +0.217 C 
ATOM     13  O   UNL     1      -9.518   4.055   2.522  0.00  0.00    -0.275 OA
ATOM     14  N   UNL     1      -7.362   4.115   3.038  0.00  0.00    -0.286 N 
ATOM     15  H   UNL     1      -6.524   4.669   3.488  0.00  0.00    +0.155 HD
BRANCH  12  17
ATOM     16  C   UNL     1     -10.367   6.227   3.787  0.00  0.00    +0.013 C 
ATOM     17  C   UNL     1      -8.880   5.879   3.878  0.00  0.00    +0.093 C 
ENDBRANCH  12  17
ENDBRANCH   6  14
ENDBRANCH   4   9
ENDBRANCH   1   4
BRANCH   1  18
ATOM     18  C   UNL     1      -7.491  -2.417   1.994  0.00  0.00    +0.014 C 
ATOM     19  C   UNL     1      -7.971  -3.554   1.090  0.00  0.00    -0.004 C 
BRANCH  18  20
ATOM     20  C   UNL     1      -7.309  -2.933   3.398  0.00  0.00    +0.203 C 
ATOM     21  O   UNL     1      -6.219  -2.877   3.928  0.00  0.00    -0.277 OA
ATOM     22  N   UNL     1      -8.356  -3.459   4.064  0.00  0.00    -0.287 N 
ATOM     23  H   UNL     1      -9.325  -3.578   3.558  0.00  0.00    +0.155 HD
BRANCH  22  24
ATOM     24  C   UNL     1      -8.210  -3.852   5.398  0.00  0.00    +0.034 A 
ATOM     25  C   UNL     1      -7.006  -4.426   5.823  0.00  0.00    +0.024 A 
ATOM     26  C   UNL     1      -6.834  -4.813   7.115  0.00  0.00    +0.010 A 
ATOM     27  C   UNL     1      -7.880  -4.648   8.041  0.00  0.00    -0.018 A 
ATOM     28  C   UNL     1      -7.733  -5.045   9.381  0.00  0.00    +0.008 A 
ATOM     29  C   UNL     1      -8.764  -4.871  10.252  0.00  0.00    +0.001 A 
ATOM     30  C   UNL     1      -9.968  -4.305   9.836  0.00  0.00    +0.001 A 
ATOM     31  C   UNL     1     -10.147  -3.910   8.546  0.00  0.00    +0.008 A 
ATOM     32  C   UNL     1      -9.104  -4.073   7.617  0.00  0.00    -0.016 A 
ATOM     33  C   UNL     1      -9.254  -3.676   6.279  0.00  0.00    +0.031 A 
ENDBRANCH  22  24
ENDBRANCH  18  20
ENDBRANCH   1  18
TORSDOF 7
