REMARK  Name = ZINC45514174
REMARK  7 active torsions:
REMARK  status: ('A' for Active; 'I' for Inactive)
REMARK    1  A    between atoms: C_1  and  C_2
REMARK    2  A    between atoms: C_2  and  N_3
REMARK    3  A    between atoms: N_14  and  N_15
REMARK    4  A    between atoms: C_16  and  C_18
REMARK    5  A    between atoms: C_18  and  N_23
REMARK    6  A    between atoms: N_26  and  C_27
REMARK    7  A    between atoms: C_27  and  C_28
REMARK                            x       y       z     vdW  Elec       q    Type
REMARK                         _______ _______ _______ _____ _____    ______ ____
ROOT
ATOM      1  N   UNL     1       4.314   0.746   0.590  0.00  0.00    -0.232 N 
ATOM      2  C   UNL     1       4.772  -0.354   1.219  0.00  0.00    +0.253 C 
ATOM      3  O   UNL     1       4.002  -1.076   1.817  0.00  0.00    -0.272 OA
ATOM      4  H   UNL     1       4.937   1.362   0.174  0.00  0.00    +0.173 HD
ENDROOT
BRANCH   1  16
ATOM      5  N   UNL     1       1.124   2.337  -0.136  0.00  0.00    -0.280 N 
ATOM      6  C   UNL     1       0.618   3.431  -0.751  0.00  0.00    +0.263 A 
ATOM      7  O   UNL     1      -0.581   3.639  -0.783  0.00  0.00    -0.267 OA
ATOM      8  C   UNL     1       1.569   4.359  -1.379  0.00  0.00    +0.065 A 
ATOM      9  C   UNL     1       1.148   5.514  -2.036  0.00  0.00    +0.015 A 
ATOM     10  C   UNL     1       2.076   6.343  -2.603  0.00  0.00    +0.001 A 
ATOM     11  C   UNL     1       3.431   6.046  -2.530  0.00  0.00    +0.002 A 
ATOM     12  C   UNL     1       3.872   4.921  -1.891  0.00  0.00    +0.028 A 
ATOM     13  C   UNL     1       2.947   4.054  -1.302  0.00  0.00    +0.080 A 
ATOM     14  N   UNL     1       3.339   2.928  -0.660  0.00  0.00    -0.214 NA
ATOM     15  C   UNL     1       2.471   2.120  -0.104  0.00  0.00    +0.216 A 
ATOM     16  N   UNL     1       2.937   1.000   0.537  0.00  0.00    -0.234 N 
ATOM     17  H   UNL     1       2.314   0.385   0.953  0.00  0.00    +0.173 HD
BRANCH   5  19
ATOM     18  C   UNL     1      -0.007   1.790   1.962  0.00  0.00    +0.027 C 
ATOM     19  C   UNL     1       0.219   1.381   0.505  0.00  0.00    +0.125 C 
ENDBRANCH   5  19
ENDBRANCH   1  16
BRANCH   2  20
ATOM     20  C   UNL     1       6.241  -0.688   1.180  0.00  0.00    +0.113 C 
ATOM     21  C   UNL     1       6.449  -2.193   1.448  0.00  0.00    +0.035 C 
ATOM     22  C   UNL     1       7.746  -2.253   2.293  0.00  0.00    +0.003 C 
ATOM     23  C   UNL     1       7.615  -1.010   3.208  0.00  0.00    +0.003 C 
ATOM     24  C   UNL     1       6.983   0.064   2.299  0.00  0.00    +0.035 C 
BRANCH  20  25
ATOM     25  N   UNL     1       6.803  -0.328  -0.125  0.00  0.00    -0.285 N 
ATOM     26  C   UNL     1       6.270  -0.839  -1.252  0.00  0.00    +0.301 C 
ATOM     27  O   UNL     1       5.384  -1.669  -1.183  0.00  0.00    -0.253 OA
ATOM     28  N   UNL     1       6.719  -0.431  -2.455  0.00  0.00    -0.295 N 
ATOM     29  H   UNL     1       7.558   0.279  -0.177  0.00  0.00    +0.151 HD
ATOM     30  H   UNL     1       7.426   0.231  -2.510  0.00  0.00    +0.151 HD
BRANCH  28  31
ATOM     31  C   UNL     1       6.140  -0.987  -3.681  0.00  0.00    +0.141 C 
BRANCH  31  32
ATOM     32  C   UNL     1       6.812  -0.369  -4.879  0.00  0.00    -0.030 A 
ATOM     33  C   UNL     1       6.306   0.791  -5.435  0.00  0.00    +0.005 A 
ATOM     34  C   UNL     1       6.923   1.358  -6.535  0.00  0.00    +0.000 A 
ATOM     35  C   UNL     1       8.047   0.765  -7.078  0.00  0.00    +0.000 A 
ATOM     36  C   UNL     1       8.554  -0.395  -6.522  0.00  0.00    +0.000 A 
ATOM     37  C   UNL     1       7.940  -0.959  -5.420  0.00  0.00    +0.005 A 
ENDBRANCH  31  32
ENDBRANCH  28  31
ENDBRANCH  20  25
ENDBRANCH   2  20
TORSDOF 6
