REMARK  Name = ZINC39411901
REMARK  10 active torsions:
REMARK  status: ('A' for Active; 'I' for Inactive)
REMARK    1  A    between atoms: C_1  and  C_2
REMARK    2  A    between atoms: C_6  and  C_7
REMARK    3  A    between atoms: C_7  and  C_9
REMARK    4  A    between atoms: C_7  and  C_25
REMARK    5  A    between atoms: C_12  and  C_14
REMARK    6  A    between atoms: C_19  and  C_20
REMARK    7  A    between atoms: C_20  and  O_22
REMARK    8  A    between atoms: O_22  and  C_23
REMARK    9  A    between atoms: C_26  and  C_32
REMARK   10  A    between atoms: C_29  and  O_31
REMARK                            x       y       z     vdW  Elec       q    Type
REMARK                         _______ _______ _______ _____ _____    ______ ____
ROOT
ATOM      1  C   UNL     1      -0.670  -0.885   2.193  0.00  0.00    +0.124 C 
ENDROOT
BRANCH   1   7
ATOM      2  C   UNL     1      -0.656   0.696  -0.490  0.00  0.00    +0.065 C 
ATOM      3  C   UNL     1      -0.495  -0.795  -0.344  0.00  0.00    +0.039 A 
ATOM      4  N   UNL     1      -0.313  -1.682  -1.366  0.00  0.00    -0.301 N 
ATOM      5  N   UNL     1      -0.207  -2.967  -0.817  0.00  0.00    -0.266 N 
ATOM      6  C   UNL     1      -0.325  -2.850   0.522  0.00  0.00    +0.269 A 
ATOM      7  C   UNL     1      -0.501  -1.478   0.818  0.00  0.00    +0.053 A 
ATOM      8  O   UNL     1      -0.283  -3.761   1.329  0.00  0.00    -0.266 OA
ATOM      9  H   UNL     1      -0.265  -1.461  -2.310  0.00  0.00    +0.186 HD
ATOM     10  H   UNL     1      -0.073  -3.791  -1.310  0.00  0.00    +0.190 HD
ENDBRANCH   1   7
BRANCH   1  11
ATOM     11  C   UNL     1      -1.892  -1.475   2.849  0.00  0.00    +0.020 C 
ATOM     12  C   UNL     1      -3.019  -0.852   3.199  0.00  0.00    +0.065 C 
ATOM     13  N   UNL     1      -3.890  -1.718   3.764  0.00  0.00    -0.156 NA
ATOM     14  N   UNL     1      -3.481  -2.879   3.841  0.00  0.00    -0.151 NA
ATOM     15  C   UNL     1      -2.129  -2.918   3.258  0.00  0.00    +0.284 C 
ATOM     16  C   UNL     1      -3.284   0.617   2.994  0.00  0.00    +0.067 C 
BRANCH  15  17
ATOM     17  O   UNL     1      -1.172  -3.330   4.236  0.00  0.00    -0.366 OA
ATOM     18  H   UNL     1      -1.231  -4.265   4.475  0.00  0.00    +0.212 HD
ENDBRANCH  15  17
ENDBRANCH   1  11
BRANCH   1  19
ATOM     19  C   UNL     1       0.547  -1.194   3.027  0.00  0.00    +0.118 A 
ATOM     20  C   UNL     1       1.263  -0.298   3.735  0.00  0.00    +0.046 A 
ATOM     21  C   UNL     1       2.306  -1.005   4.362  0.00  0.00    +0.050 A 
ATOM     22  C   UNL     1       2.169  -2.311   3.998  0.00  0.00    +0.136 A 
ATOM     23  O   UNL     1       1.093  -2.409   3.192  0.00  0.00    -0.459 OA
BRANCH  22  24
ATOM     24  C   UNL     1       3.041  -3.422   4.417  0.00  0.00    +0.031 A 
ATOM     25  C   UNL     1       3.237  -3.689   5.772  0.00  0.00    +0.013 A 
ATOM     26  C   UNL     1       4.054  -4.730   6.159  0.00  0.00    +0.016 A 
ATOM     27  C   UNL     1       4.686  -5.519   5.209  0.00  0.00    +0.019 A 
ATOM     28  C   UNL     1       4.507  -5.273   3.864  0.00  0.00    +0.031 A 
ATOM     29  C   UNL     1       3.678  -4.227   3.450  0.00  0.00    +0.071 A 
ATOM     30 BR   UNL     1       5.802  -6.942   5.762  0.00  0.00    -0.050 Br
BRANCH  29  31
ATOM     31  C   UNL     1       3.477  -3.964   2.015  0.00  0.00    +0.340 C 
ATOM     32  O   UNL     1       2.846  -2.988   1.659  0.00  0.00    -0.245 OA
BRANCH  31  33
ATOM     33  O   UNL     1       3.992  -4.805   1.097  0.00  0.00    -0.464 OA
ATOM     34  C   UNL     1       3.848  -4.434  -0.276  0.00  0.00    +0.280 C 
ENDBRANCH  31  33
ENDBRANCH  29  31
ENDBRANCH  22  24
ENDBRANCH   1  19
TORSDOF 7
