REMARK  Name = ZINC03670527
REMARK  12 active torsions:
REMARK  status: ('A' for Active; 'I' for Inactive)
REMARK    1  A    between atoms: C_1  and  C_2
REMARK    2  A    between atoms: C_2  and  O_3
REMARK    3  A    between atoms: O_3  and  C_4
REMARK    4  A    between atoms: C_4  and  C_5
REMARK    5  A    between atoms: C_5  and  C_6
REMARK    6  A    between atoms: C_6  and  N_7
REMARK    7  A    between atoms: C_8  and  C_10
REMARK    8  A    between atoms: C_10  and  O_31
REMARK    9  A    between atoms: N_20  and  C_21
REMARK   10  A    between atoms: C_24  and  O_27
REMARK   11  A    between atoms: O_27  and  C_28
REMARK   12  A    between atoms: C_28  and  C_29
REMARK                            x       y       z     vdW  Elec       q    Type
REMARK                         _______ _______ _______ _____ _____    ______ ____
ROOT
ATOM      1  C   UNL     1       3.070  -5.458  -5.306  0.00  0.00    +0.247 C 
ATOM      2  C   UNL     1       4.543  -5.162  -5.136  0.00  0.00    +0.034 A 
ATOM      3  C   UNL     1       5.187  -5.403  -3.944  0.00  0.00    +0.025 A 
ATOM      4  C   UNL     1       6.538  -5.120  -3.825  0.00  0.00    +0.018 A 
ATOM      5  C   UNL     1       7.234  -4.597  -4.901  0.00  0.00    +0.017 A 
ATOM      6  C   UNL     1       6.588  -4.354  -6.097  0.00  0.00    +0.025 A 
ATOM      7  C   UNL     1       5.234  -4.637  -6.222  0.00  0.00    +0.043 A 
ATOM      8  N   UNL     1       4.564  -4.399  -7.423  0.00  0.00    -0.269 N 
ATOM      9  C   UNL     1       3.260  -4.655  -7.593  0.00  0.00    +0.314 C 
ATOM     10  O   UNL     1       2.759  -4.416  -8.675  0.00  0.00    -0.252 OA
ATOM     11  N   UNL     1       2.479  -5.164  -6.622  0.00  0.00    -0.214 N 
ATOM     12 BR   UNL     1       7.432  -5.448  -2.191  0.00  0.00    -0.050 Br
ATOM     13  H   UNL     1       5.065  -4.033  -8.168  0.00  0.00    +0.156 HD
ENDROOT
BRANCH  11  14
ATOM     14  C   UNL     1       1.121  -5.410  -6.862  0.00  0.00    +0.042 A 
ATOM     15  C   UNL     1       0.196  -4.383  -6.734  0.00  0.00    +0.027 A 
ATOM     16  C   UNL     1      -1.143  -4.627  -6.970  0.00  0.00    +0.047 A 
ATOM     17  C   UNL     1      -1.563  -5.898  -7.333  0.00  0.00    +0.121 A 
ATOM     18  C   UNL     1      -0.640  -6.925  -7.461  0.00  0.00    +0.047 A 
ATOM     19  C   UNL     1       0.700  -6.681  -7.231  0.00  0.00    +0.027 A 
BRANCH  17  20
ATOM     20  O   UNL     1      -2.882  -6.137  -7.564  0.00  0.00    -0.492 OA
BRANCH  20  21
ATOM     21  C   UNL     1      -3.244  -7.469  -7.935  0.00  0.00    +0.225 C 
ATOM     22  C   UNL     1      -4.757  -7.544  -8.152  0.00  0.00    +0.048 C 
ENDBRANCH  20  21
ENDBRANCH  17  20
ENDBRANCH  11  14
BRANCH   1  24
ATOM     23  N   UNL     1       2.195  -3.331  -4.397  0.00  0.00    -0.311 N 
ATOM     24  C   UNL     1       2.314  -4.668  -4.270  0.00  0.00    +0.269 C 
ATOM     25  O   UNL     1       1.813  -5.234  -3.321  0.00  0.00    -0.270 OA
ATOM     26  H   UNL     1       2.595  -2.878  -5.155  0.00  0.00    +0.149 HD
BRANCH  23  27
ATOM     27  C   UNL     1       1.460  -2.562  -3.389  0.00  0.00    +0.106 C 
BRANCH  27  28
ATOM     28  C   UNL     1       1.474  -1.080  -3.768  0.00  0.00    +0.047 C 
BRANCH  28  29
ATOM     29  C   UNL     1       0.706  -0.277  -2.716  0.00  0.00    +0.161 C 
BRANCH  29  30
ATOM     30  O   UNL     1       0.719   1.107  -3.070  0.00  0.00    -0.380 OA
BRANCH  30  32
ATOM     31  C   UNL     1       0.104   3.401  -2.624  0.00  0.00    +0.034 C 
ATOM     32  C   UNL     1       0.026   1.950  -2.148  0.00  0.00    +0.156 C 
ENDBRANCH  30  32
ENDBRANCH  29  30
ENDBRANCH  28  29
ENDBRANCH  27  28
ENDBRANCH  23  27
ENDBRANCH   1  24
BRANCH   1  33
ATOM     33  O   UNL     1       2.866  -6.846  -5.032  0.00  0.00    -0.360 OA
ATOM     34  H   UNL     1       3.174  -7.124  -4.158  0.00  0.00    +0.213 HD
ENDBRANCH   1  33
TORSDOF 10
