REMARK  Name = ZINC63384284
REMARK  8 active torsions:
REMARK  status: ('A' for Active; 'I' for Inactive)
REMARK    1  A    between atoms: C_1  and  C_2
REMARK    2  A    between atoms: C_2  and  N_3
REMARK    3  A    between atoms: C_16  and  C_18
REMARK    4  A    between atoms: N_24  and  C_27
REMARK    5  A    between atoms: C_29  and  O_35
REMARK    6  A    between atoms: C_32  and  O_33
REMARK    7  A    between atoms: O_33  and  C_34
REMARK    8  A    between atoms: O_35  and  C_36
REMARK                            x       y       z     vdW  Elec       q    Type
REMARK                         _______ _______ _______ _____ _____    ______ ____
ROOT
ATOM      1  C   UNL     1       1.434  -2.551   0.113  0.00  0.00    +0.071 A 
ATOM      2  C   UNL     1       0.819  -3.351  -0.866  0.00  0.00    +0.259 A 
ATOM      3  N   UNL     1       1.563  -3.871  -1.863  0.00  0.00    -0.274 N 
ATOM      4  H   UNL     1       1.141  -4.423  -2.540  0.00  0.00    +0.173 HD
ATOM      5  C   UNL     1       2.885  -3.631  -1.926  0.00  0.00    +0.337 A 
ATOM      6  O   UNL     1       3.538  -4.109  -2.833  0.00  0.00    -0.246 OA
ATOM      7  N   UNL     1       3.495  -2.868  -1.000  0.00  0.00    -0.225 N 
ATOM      8  C   UNL     1       2.774  -2.315   0.030  0.00  0.00    +0.267 A 
ATOM      9  O   UNL     1       3.389  -1.546   0.955  0.00  0.00    -0.267 OA
ATOM     10  O   UNL     1      -0.378  -3.572  -0.815  0.00  0.00    -0.267 OA
ENDROOT
BRANCH   1  23
ATOM     11  N   UNL     1       0.645  -0.490   1.143  0.00  0.00    +0.386 N 
ATOM     12  C   UNL     1       2.010   0.033   1.043  0.00  0.00    -0.073 C 
ATOM     13  C   UNL     1       2.785  -0.241   2.345  0.00  0.00    +0.015 C 
ATOM     14  C   UNL     1       2.606  -1.710   2.638  0.00  0.00    -0.041 C 
ATOM     15  C   UNL     1       3.462  -2.673   2.945  0.00  0.00    -0.001 A 
ATOM     16  C   UNL     1       4.900  -2.646   3.259  0.00  0.00    +0.010 A 
ATOM     17  C   UNL     1       5.482  -3.849   3.507  0.00  0.00    +0.001 A 
ATOM     18  C   UNL     1       4.787  -5.062   3.475  0.00  0.00    +0.002 A 
ATOM     19  C   UNL     1       3.462  -5.179   3.207  0.00  0.00    +0.026 A 
ATOM     20  C   UNL     1       2.738  -3.981   2.940  0.00  0.00    +0.043 A 
ATOM     21  N   UNL     1       1.474  -3.801   2.688  0.00  0.00    -0.379 N 
ATOM     22  C   UNL     1       1.228  -2.365   2.581  0.00  0.00    +0.097 C 
ATOM     23  C   UNL     1       0.622  -1.958   1.236  0.00  0.00    -0.000 C 
ATOM     24  H   UNL     1       0.809  -4.500   2.588  0.00  0.00    +0.160 HD
ATOM     25  H   UNL     1       0.206  -0.103   1.965  0.00  0.00    -0.081 HD
BRANCH  11  27
ATOM     26  C   UNL     1      -0.203   1.452  -0.084  0.00  0.00    -0.017 C 
ATOM     27  C   UNL     1      -0.114  -0.075  -0.044  0.00  0.00    -0.081 C 
ENDBRANCH  11  27
ENDBRANCH   1  23
BRANCH   7  28
ATOM     28  C   UNL     1       4.875  -2.633  -1.089  0.00  0.00    +0.099 A 
ATOM     29  C   UNL     1       5.348  -1.537  -1.795  0.00  0.00    +0.075 A 
ATOM     30  C   UNL     1       6.713  -1.307  -1.882  0.00  0.00    +0.122 A 
ATOM     31  C   UNL     1       7.604  -2.173  -1.265  0.00  0.00    +0.049 A 
ATOM     32  C   UNL     1       7.134  -3.266  -0.561  0.00  0.00    +0.051 A 
ATOM     33  C   UNL     1       5.772  -3.497  -0.466  0.00  0.00    +0.144 A 
BRANCH  33  34
ATOM     34  O   UNL     1       5.310  -4.570   0.232  0.00  0.00    -0.493 OA
ATOM     35  C   UNL     1       6.287  -5.413   0.846  0.00  0.00    +0.277 C 
ENDBRANCH  33  34
BRANCH  30  36
ATOM     36  O   UNL     1       7.178  -0.233  -2.574  0.00  0.00    -0.495 OA
ATOM     37  C   UNL     1       8.595  -0.057  -2.623  0.00  0.00    +0.277 C 
ENDBRANCH  30  36
ENDBRANCH   7  28
TORSDOF 5
