REMARK  Name = ZINC08935649
REMARK  7 active torsions:
REMARK  status: ('A' for Active; 'I' for Inactive)
REMARK    1  A    between atoms: C_4  and  C_7
REMARK    2  A    between atoms: C_7  and  C_9
REMARK    3  A    between atoms: C_13  and  N_14
REMARK    4  A    between atoms: C_15  and  C_17
REMARK    5  A    between atoms: C_17  and  N_18
REMARK    6  A    between atoms: C_20  and  C_23
REMARK    7  A    between atoms: C_26  and  C_29
REMARK                            x       y       z     vdW  Elec       q    Type
REMARK                         _______ _______ _______ _____ _____    ______ ____
ROOT
ATOM      1  N   UNL     1      -1.580   6.443  -2.776  0.00  0.00    -0.278 N 
ATOM      2  C   UNL     1      -1.541   7.696  -2.282  0.00  0.00    +0.241 C 
ATOM      3  O   UNL     1      -1.308   7.877  -1.106  0.00  0.00    -0.273 OA
ATOM      4  H   UNL     1      -1.767   6.298  -3.717  0.00  0.00    +0.155 HD
ENDROOT
BRANCH   1   9
ATOM      5  C   UNL     1      -1.249   4.016  -2.277  0.00  0.00    +0.054 A 
ATOM      6  C   UNL     1      -1.005   3.073  -1.199  0.00  0.00    -0.024 A 
ATOM      7  C   UNL     1      -0.905   3.619   0.032  0.00  0.00    -0.005 A 
ATOM      8  S   UNL     1      -1.128   5.357  -0.223  0.00  0.00    -0.077 S 
ATOM      9  C   UNL     1      -1.353   5.362  -1.941  0.00  0.00    +0.083 A 
ATOM     10  C   UNL     1      -0.659   2.899   1.322  0.00  0.00    +0.043 C 
ATOM     11  C   UNL     1      -0.911   1.401   1.094  0.00  0.00    +0.005 C 
ATOM     12  C   UNL     1      -0.178   0.966  -0.178  0.00  0.00    +0.005 C 
ATOM     13  C   UNL     1      -0.866   1.569  -1.404  0.00  0.00    +0.037 C 
BRANCH   5  14
ATOM     14  C   UNL     1      -1.380   3.567  -3.665  0.00  0.00    +0.196 C 
ATOM     15  O   UNL     1      -0.412   3.578  -4.403  0.00  0.00    -0.287 OA
BRANCH  14  19
ATOM     16  C   UNL     1      -5.141   2.227  -5.117  0.00  0.00    +0.000 A 
ATOM     17  C   UNL     1      -4.020   2.137  -5.923  0.00  0.00    +0.001 A 
ATOM     18  C   UNL     1      -2.796   2.570  -5.457  0.00  0.00    +0.012 A 
ATOM     19  C   UNL     1      -2.690   3.101  -4.171  0.00  0.00    +0.022 A 
ATOM     20  C   UNL     1      -3.824   3.184  -3.361  0.00  0.00    +0.012 A 
ATOM     21  C   UNL     1      -5.043   2.752  -3.841  0.00  0.00    +0.001 A 
ENDBRANCH  14  19
ENDBRANCH   5  14
ENDBRANCH   1   9
BRANCH   2  22
ATOM     22  C   UNL     1      -1.788   8.873  -3.191  0.00  0.00    +0.264 C 
BRANCH  22  23
ATOM     23  N   UNL     1      -1.692  10.114  -2.419  0.00  0.00    -0.154 N 
ATOM     24  N   UNL     1      -2.672  10.697  -1.819  0.00  0.00    -0.130 NA
ATOM     25  C   UNL     1      -2.200  11.780  -1.233  0.00  0.00    +0.205 A 
ATOM     26  N   UNL     1      -0.890  11.829  -1.515  0.00  0.00    -0.108 NA
ATOM     27  N   UNL     1      -0.616  10.797  -2.240  0.00  0.00    -0.045 NA
BRANCH  25  28
ATOM     28  C   UNL     1      -2.970  12.757  -0.425  0.00  0.00    +0.023 A 
ATOM     29  C   UNL     1      -4.338  12.572  -0.224  0.00  0.00    +0.012 A 
ATOM     30  C   UNL     1      -5.052  13.475   0.530  0.00  0.00    +0.014 A 
ATOM     31  C   UNL     1      -4.409  14.584   1.085  0.00  0.00    +0.037 A 
ATOM     32  C   UNL     1      -3.040  14.772   0.878  0.00  0.00    +0.014 A 
ATOM     33  C   UNL     1      -2.326  13.864   0.128  0.00  0.00    +0.012 A 
BRANCH  31  34
ATOM     34  C   UNL     1      -5.175  15.558   1.890  0.00  0.00    +0.242 C 
ATOM     35  O   UNL     1      -4.615  16.523   2.372  0.00  0.00    -0.270 OA
ATOM     36  N   UNL     1      -6.496  15.376   2.089  0.00  0.00    -0.325 N 
ATOM     37  H   UNL     1      -6.943  14.606   1.704  0.00  0.00    +0.145 HD
ATOM     38  H   UNL     1      -6.999  16.015   2.617  0.00  0.00    +0.145 HD
ENDBRANCH  31  34
ENDBRANCH  25  28
ENDBRANCH  22  23
ENDBRANCH   2  22
TORSDOF 7
