REMARK  Name = ZINC20465316
REMARK  12 active torsions:
REMARK  status: ('A' for Active; 'I' for Inactive)
REMARK    1  A    between atoms: C_1  and  O_2
REMARK    2  A    between atoms: O_2  and  C_3
REMARK    3  A    between atoms: C_3  and  C_4
REMARK    4  A    between atoms: N_9  and  C_10
REMARK    5  A    between atoms: C_12  and  C_22
REMARK    6  A    between atoms: C_15  and  C_20
REMARK    7  A    between atoms: C_17  and  O_19
REMARK    8  A    between atoms: C_20  and  O_21
REMARK    9  A    between atoms: C_22  and  N_23
REMARK   10  A    between atoms: N_26  and  C_27
REMARK   11  A    between atoms: C_30  and  O_33
REMARK   12  A    between atoms: O_33  and  C_34
REMARK                            x       y       z     vdW  Elec       q    Type
REMARK                         _______ _______ _______ _____ _____    ______ ____
ROOT
ATOM      1  C   UNL     1      -0.026   0.044  -0.013  0.00  0.00    -0.006 C 
ATOM      2  C   UNL     1      -0.329   1.559   0.014  0.00  0.00    +0.125 C 
ATOM      3  O   UNL     1       0.968   2.194   0.048  0.00  0.00    -0.369 OA
ATOM      4  C   UNL     1       1.790   1.429  -0.861  0.00  0.00    +0.171 C 
ATOM      5  C   UNL     1       1.399  -0.043  -0.602  0.00  0.00    +0.135 C 
ENDROOT
BRANCH   1  10
ATOM      6  C   UNL     1      -1.440  -0.839   1.749  0.00  0.00    -0.042 C 
ATOM      7  C   UNL     1      -1.463  -2.335   2.129  0.00  0.00    -0.015 C 
ATOM      8  C   UNL     1       0.022  -2.632   2.465  0.00  0.00    -0.020 C 
ATOM      9  C   UNL     1       0.760  -1.738   1.437  0.00  0.00    -0.078 C 
ATOM     10  N   UNL     1      -0.060  -0.512   1.346  0.00  0.00    +0.388 N 
ATOM     11  H   UNL     1       0.347   0.260   2.016  0.00  0.00    -0.081 HD
BRANCH   6  12
ATOM     12  C   UNL     1      -2.397  -0.584   0.583  0.00  0.00    +0.144 C 
BRANCH  12  14
ATOM     13  C   UNL     1      -3.091  -1.477  -1.530  0.00  0.00    +0.193 C 
ATOM     14  O   UNL     1      -2.170  -1.555  -0.441  0.00  0.00    -0.385 OA
ENDBRANCH  12  14
ENDBRANCH   6  12
ENDBRANCH   1  10
BRANCH   5  15
ATOM     15  O   UNL     1       2.293  -0.643   0.338  0.00  0.00    -0.391 OA
ATOM     16  H   UNL     1       3.353  -0.782   0.078  0.00  0.00    +0.210 HD
ENDBRANCH   5  15
BRANCH   4  17
ATOM     17  C   UNL     1       3.272   1.648  -0.555  0.00  0.00    +0.190 C 
BRANCH  17  18
ATOM     18  O   UNL     1       3.640   2.983  -0.910  0.00  0.00    -0.392 OA
ATOM     19  H   UNL     1       4.674   3.327  -0.761  0.00  0.00    +0.210 HD
ENDBRANCH  17  18
ENDBRANCH   4  17
BRANCH   2  20
ATOM     20  C   UNL     1      -1.131   1.919   1.266  0.00  0.00    +0.135 C 
BRANCH  20  21
ATOM     21  N   UNL     1      -1.399   3.360   1.276  0.00  0.00    -0.297 N 
ATOM     22  C   UNL     1      -2.096   3.908   2.291  0.00  0.00    +0.304 C 
ATOM     23  O   UNL     1      -2.502   3.208   3.198  0.00  0.00    -0.253 OA
ATOM     24  N   UNL     1      -2.342   5.233   2.301  0.00  0.00    -0.269 N 
ATOM     25  H   UNL     1      -1.031   3.994   0.456  0.00  0.00    +0.150 HD
ATOM     26  H   UNL     1      -2.051   5.853   1.440  0.00  0.00    +0.156 HD
BRANCH  24  27
ATOM     27  C   UNL     1      -2.968   5.822   3.408  0.00  0.00    +0.035 A 
ATOM     28  C   UNL     1      -3.839   6.888   3.228  0.00  0.00    +0.027 A 
ATOM     29  C   UNL     1      -4.461   7.463   4.319  0.00  0.00    +0.048 A 
ATOM     30  C   UNL     1      -4.206   6.984   5.595  0.00  0.00    +0.130 A 
ATOM     31  C   UNL     1      -3.332   5.922   5.776  0.00  0.00    +0.048 A 
ATOM     32  C   UNL     1      -2.714   5.342   4.686  0.00  0.00    +0.027 A 
BRANCH  30  33
ATOM     33  O   UNL     1      -4.815   7.554   6.669  0.00  0.00    -0.406 OA
BRANCH  33  34
ATOM     34  C   UNL     1      -5.703   8.643   6.409  0.00  0.00    +0.575 C 
ATOM     35  F   UNL     1      -6.740   8.210   5.576  0.00  0.00    -0.133 F 
ATOM     36  F   UNL     1      -6.237   9.107   7.616  0.00  0.00    -0.133 F 
ATOM     37  F   UNL     1      -5.001   9.678   5.781  0.00  0.00    -0.133 F 
ENDBRANCH  33  34
ENDBRANCH  30  33
ENDBRANCH  24  27
ENDBRANCH  20  21
ENDBRANCH   2  20
TORSDOF 11
