REMARK  Name = ZINC09010267
REMARK  6 active torsions:
REMARK  status: ('A' for Active; 'I' for Inactive)
REMARK    1  A    between atoms: C_1  and  C_2
REMARK    2  A    between atoms: C_2  and  C_18
REMARK    3  A    between atoms: N_3  and  N_4
REMARK    4  A    between atoms: C_5  and  C_7
REMARK    5  A    between atoms: C_16  and  O_17
REMARK    6  A    between atoms: C_31  and  C_34
REMARK                            x       y       z     vdW  Elec       q    Type
REMARK                         _______ _______ _______ _____ _____    ______ ____
ROOT
ATOM      1  C   UNL     1      -6.048  -0.916   0.055  0.00  0.00    -0.002 A 
ATOM      2  C   UNL     1      -7.267  -0.233   0.076  0.00  0.00    +0.011 A 
ATOM      3  C   UNL     1      -8.450  -0.937   0.073  0.00  0.00    +0.024 A 
ATOM      4  C   UNL     1      -8.445  -2.329   0.059  0.00  0.00    +0.031 A 
ATOM      5  C   UNL     1      -7.222  -3.013   0.056  0.00  0.00    -0.019 A 
ATOM      6  C   UNL     1      -6.038  -2.314   0.047  0.00  0.00    +0.015 A 
ATOM      7  C   UNL     1      -7.267  -4.492   0.082  0.00  0.00    +0.049 C 
ATOM      8  C   UNL     1      -6.170  -5.349  -0.461  0.00  0.00    -0.023 C 
ATOM      9  C   UNL     1      -6.692  -6.467  -0.951  0.00  0.00    -0.030 C 
ATOM     10  C   UNL     1      -8.213  -6.452  -0.784  0.00  0.00    +0.033 C 
ATOM     11  C   UNL     1      -8.504  -4.946  -0.749  0.00  0.00    +0.029 C 
ATOM     12  C   UNL     1      -9.715  -4.491   0.046  0.00  0.00    +0.105 C 
ATOM     13  N   UNL     1      -9.664  -3.013   0.040  0.00  0.00    -0.336 N 
ATOM     14  H   UNL     1     -10.493  -2.509   0.022  0.00  0.00    +0.147 HD
ENDROOT
BRANCH  12  15
ATOM     15  C   UNL     1     -10.981  -4.972  -0.615  0.00  0.00    -0.027 A 
ATOM     16  C   UNL     1     -11.455  -4.335  -1.746  0.00  0.00    +0.005 A 
ATOM     17  C   UNL     1     -12.614  -4.778  -2.355  0.00  0.00    +0.000 A 
ATOM     18  C   UNL     1     -13.305  -5.852  -1.826  0.00  0.00    +0.000 A 
ATOM     19  C   UNL     1     -12.834  -6.486  -0.692  0.00  0.00    +0.000 A 
ATOM     20  C   UNL     1     -11.672  -6.046  -0.086  0.00  0.00    +0.005 A 
ENDBRANCH  12  15
BRANCH   1  22
ATOM     21  C   UNL     1      -4.794   1.340   0.055  0.00  0.00    +0.068 C 
ATOM     22  C   UNL     1      -4.779  -0.167   0.047  0.00  0.00    +0.063 C 
ATOM     23  N   UNL     1      -3.648  -0.805   0.033  0.00  0.00    -0.184 NA
BRANCH  23  24
ATOM     24  N   UNL     1      -2.442  -0.092   0.025  0.00  0.00    -0.203 N 
ATOM     25  C   UNL     1      -1.268  -0.754   0.010  0.00  0.00    +0.267 C 
ATOM     26  O   UNL     1      -1.256  -1.971   0.004  0.00  0.00    -0.268 OA
ATOM     27  H   UNL     1      -2.451   0.878   0.030  0.00  0.00    +0.178 HD
BRANCH  25  28
ATOM     28  C   UNL     1       0.002  -0.004   0.002  0.00  0.00    +0.080 A 
ATOM     29  C   UNL     1      -0.017   1.382   0.010  0.00  0.00    +0.025 A 
ATOM     30  C   UNL     1       1.194   2.089   0.002  0.00  0.00    -0.017 A 
ATOM     31  C   UNL     1       1.212   3.496   0.009  0.00  0.00    +0.008 A 
ATOM     32  C   UNL     1       2.403   4.154   0.002  0.00  0.00    +0.001 A 
ATOM     33  C   UNL     1       3.609   3.455  -0.012  0.00  0.00    +0.001 A 
ATOM     34  C   UNL     1       3.631   2.095  -0.020  0.00  0.00    +0.008 A 
ATOM     35  C   UNL     1       2.421   1.378  -0.013  0.00  0.00    -0.014 A 
ATOM     36  C   UNL     1       2.413  -0.027  -0.020  0.00  0.00    +0.054 A 
ATOM     37  C   UNL     1       1.228  -0.702  -0.013  0.00  0.00    +0.130 A 
BRANCH  37  38
ATOM     38  O   UNL     1       1.229  -2.059  -0.020  0.00  0.00    -0.506 OA
ATOM     39  H   UNL     1       1.220  -2.448  -0.905  0.00  0.00    +0.292 HD
ENDBRANCH  37  38
ENDBRANCH  25  28
ENDBRANCH  23  24
ENDBRANCH   1  22
TORSDOF 5
