REMARK  Name = ZINC09403470
REMARK  7 active torsions:
REMARK  status: ('A' for Active; 'I' for Inactive)
REMARK    1  A    between atoms: C_1  and  C_2
REMARK    2  A    between atoms: C_3  and  C_20
REMARK    3  A    between atoms: C_4  and  C_10
REMARK    4  A    between atoms: C_13  and  C_16
REMARK    5  A    between atoms: C_16  and  O_18
REMARK    6  A    between atoms: O_18  and  C_19
REMARK    7  A    between atoms: N_22  and  C_23
REMARK                            x       y       z     vdW  Elec       q    Type
REMARK                         _______ _______ _______ _____ _____    ______ ____
ROOT
ATOM      1  C   UNL     1      -3.272  -2.850  -0.940  0.00  0.00    +0.061 C 
ATOM      2  C   UNL     1      -1.886  -3.293  -0.545  0.00  0.00    +0.019 C 
ATOM      3  C   UNL     1      -0.882  -2.393  -0.526  0.00  0.00    +0.056 C 
ATOM      4  C   UNL     1       0.494  -2.879  -0.117  0.00  0.00    +0.142 C 
ATOM      5  N   UNL     1       0.624  -4.306   0.223  0.00  0.00    -0.288 N 
ATOM      6  C   UNL     1      -0.474  -5.085   0.150  0.00  0.00    +0.304 C 
ATOM      7  O   UNL     1      -0.377  -6.264   0.428  0.00  0.00    -0.252 OA
ATOM      8  N   UNL     1      -1.667  -4.602  -0.218  0.00  0.00    -0.273 N 
ATOM      9  H   UNL     1       1.479  -4.676   0.492  0.00  0.00    +0.151 HD
ATOM     10  H   UNL     1      -2.418  -5.215  -0.251  0.00  0.00    +0.156 HD
ENDROOT
BRANCH   4  11
ATOM     11  C   UNL     1       1.446  -2.582  -1.246  0.00  0.00    -0.023 A 
ATOM     12  C   UNL     1       1.369  -3.309  -2.421  0.00  0.00    +0.006 A 
ATOM     13  C   UNL     1       2.234  -3.039  -3.461  0.00  0.00    +0.015 A 
ATOM     14  C   UNL     1       3.196  -2.037  -3.322  0.00  0.00    +0.059 A 
ATOM     15  C   UNL     1       3.272  -1.311  -2.132  0.00  0.00    +0.015 A 
ATOM     16  C   UNL     1       2.397  -1.587  -1.102  0.00  0.00    +0.006 A 
BRANCH  14  17
ATOM     17  C   UNL     1       4.130  -1.747  -4.429  0.00  0.00    +0.339 C 
ATOM     18  O   UNL     1       4.967  -0.875  -4.305  0.00  0.00    -0.245 OA
BRANCH  17  19
ATOM     19  O   UNL     1       4.055  -2.449  -5.576  0.00  0.00    -0.464 OA
ATOM     20  C   UNL     1       5.004  -2.110  -6.621  0.00  0.00    +0.280 C 
ENDBRANCH  17  19
ENDBRANCH  14  17
ENDBRANCH   4  11
BRANCH   3  21
ATOM     21  C   UNL     1      -1.107  -1.037  -0.870  0.00  0.00    +0.248 C 
ATOM     22  O   UNL     1      -1.310  -0.213   0.003  0.00  0.00    -0.270 OA
ATOM     23  N   UNL     1      -1.097  -0.660  -2.163  0.00  0.00    -0.282 N 
ATOM     24  H   UNL     1      -1.037  -1.329  -2.863  0.00  0.00    +0.155 HD
BRANCH  23  25
ATOM     25  C   UNL     1      -1.172   0.697  -2.497  0.00  0.00    +0.034 A 
ATOM     26  C   UNL     1      -1.978   1.552  -1.756  0.00  0.00    +0.024 A 
ATOM     27  C   UNL     1      -2.046   2.891  -2.084  0.00  0.00    +0.017 A 
ATOM     28  C   UNL     1      -1.322   3.380  -3.157  0.00  0.00    +0.018 A 
ATOM     29  C   UNL     1      -0.523   2.530  -3.900  0.00  0.00    +0.017 A 
ATOM     30  C   UNL     1      -0.446   1.190  -3.573  0.00  0.00    +0.024 A 
ATOM     31 BR   UNL     1      -1.423   5.214  -3.607  0.00  0.00    -0.050 Br
ENDBRANCH  23  25
ENDBRANCH   3  21
TORSDOF 5
