REMARK  Name = ZINC52588355
REMARK  9 active torsions:
REMARK  status: ('A' for Active; 'I' for Inactive)
REMARK    1  A    between atoms: C_1  and  C_2
REMARK    2  A    between atoms: C_7  and  C_9
REMARK    3  A    between atoms: C_7  and  N_26
REMARK    4  A    between atoms: C_9  and  N_10
REMARK    5  A    between atoms: N_16  and  C_19
REMARK    6  A    between atoms: C_19  and  C_20
REMARK    7  A    between atoms: N_22  and  C_23
REMARK    8  A    between atoms: N_26  and  C_27
REMARK    9  A    between atoms: N_26  and  C_28
REMARK                            x       y       z     vdW  Elec       q    Type
REMARK                         _______ _______ _______ _____ _____    ______ ____
ROOT
ATOM      1  N   UNL     1       1.040  -3.668   1.858  0.00  0.00    -0.301 N 
ATOM      2  C   UNL     1       1.263  -4.454   2.930  0.00  0.00    +0.302 C 
ATOM      3  O   UNL     1       1.674  -3.967   3.966  0.00  0.00    -0.253 OA
ATOM      4  N   UNL     1       1.030  -5.779   2.855  0.00  0.00    -0.283 N 
ATOM      5  C   UNL     1       1.157  -6.637   4.043  0.00  0.00    +0.124 C 
ATOM      6  C   UNL     1      -0.123  -7.469   4.181  0.00  0.00    +0.104 C 
ATOM      7  N   UNL     1      -0.377  -8.184   2.924  0.00  0.00    -0.291 NA
ATOM      8  C   UNL     1      -0.618  -7.247   1.818  0.00  0.00    +0.104 C 
ATOM      9  C   UNL     1       0.636  -6.405   1.583  0.00  0.00    +0.124 C 
ATOM     10  H   UNL     1       0.773  -4.064   1.014  0.00  0.00    +0.150 HD
ENDROOT
BRANCH   1  11
ATOM     11  C   UNL     1       1.200  -2.216   1.968  0.00  0.00    +0.094 C 
BRANCH  11  17
ATOM     12  C   UNL     1       0.933   2.104  -0.529  0.00  0.00    +0.007 C 
ATOM     13  C   UNL     1       0.913   0.580  -0.664  0.00  0.00    -0.015 C 
ATOM     14  C   UNL     1      -0.415   0.140  -1.283  0.00  0.00    +0.003 C 
ATOM     15  C   UNL     1      -0.434  -1.384  -1.418  0.00  0.00    -0.001 C 
ATOM     16  C   UNL     1      -0.281  -2.020  -0.035  0.00  0.00    -0.010 C 
ATOM     17  C   UNL     1       1.047  -1.580   0.585  0.00  0.00    -0.050 C 
ATOM     18  C   UNL     1       1.066  -0.056   0.720  0.00  0.00    -0.007 C 
BRANCH  17  19
ATOM     19  N   UNL     1       2.156  -2.010  -0.277  0.00  0.00    +0.381 N 
ATOM     20  C   UNL     1       3.433  -1.718   0.386  0.00  0.00    -0.096 C 
ATOM     21  C   UNL     1       2.052  -3.454  -0.525  0.00  0.00    -0.096 C 
ATOM     22  H   UNL     1       2.111  -1.513  -1.155  0.00  0.00    -0.082 HD
ENDBRANCH  17  19
ENDBRANCH  11  17
ENDBRANCH   1  11
BRANCH   7  23
ATOM     23  C   UNL     1      -1.496  -9.124   3.070  0.00  0.00    +0.180 C 
BRANCH  23  24
ATOM     24  C   UNL     1      -1.571 -10.008   1.851  0.00  0.00    +0.227 C 
ATOM     25  O   UNL     1      -0.772  -9.868   0.950  0.00  0.00    -0.274 OA
ATOM     26  N   UNL     1      -2.527 -10.954   1.763  0.00  0.00    -0.311 N 
ATOM     27  H   UNL     1      -3.167 -11.066   2.484  0.00  0.00    +0.149 HD
BRANCH  26  28
ATOM     28  C   UNL     1      -2.600 -11.813   0.579  0.00  0.00    +0.073 C 
ATOM     29  C   UNL     1      -3.984 -12.075  -0.020  0.00  0.00    +0.024 C 
ATOM     30  C   UNL     1      -3.257 -13.185   0.741  0.00  0.00    +0.024 C 
ENDBRANCH  26  28
ENDBRANCH  23  24
ENDBRANCH   7  23
TORSDOF 6
