REMARK  Name = ZINC36011650
REMARK  6 active torsions:
REMARK  status: ('A' for Active; 'I' for Inactive)
REMARK    1  A    between atoms: C_6  and  C_7
REMARK    2  A    between atoms: C_10  and  C_32
REMARK    3  A    between atoms: C_15  and  C_17
REMARK    4  A    between atoms: C_20  and  C_27
REMARK    5  A    between atoms: C_20  and  O_30
REMARK    6  A    between atoms: C_22  and  C_24
REMARK                            x       y       z     vdW  Elec       q    Type
REMARK                         _______ _______ _______ _____ _____    ______ ____
ROOT
ATOM      1  C   UNL     1      -1.293  -0.775   0.011  0.00  0.00    +0.104 C 
ATOM      2  C   UNL     1      -1.616  -1.254  -1.409  0.00  0.00    +0.063 C 
ATOM      3  C   UNL     1      -0.456  -2.094  -1.953  0.00  0.00    +0.215 C 
ATOM      4  N   UNL     1      -0.099  -3.111  -0.960  0.00  0.00    -0.238 N 
ATOM      5  C   UNL     1      -0.439  -3.032   0.361  0.00  0.00    +0.119 A 
ATOM      6  C   UNL     1       0.040  -4.126   0.985  0.00  0.00    +0.078 A 
ATOM      7  C   UNL     1       0.703  -4.913   0.015  0.00  0.00    +0.151 A 
ATOM      8  N   UNL     1       0.614  -4.294  -1.149  0.00  0.00    -0.164 NA
ATOM      9  N   UNL     1      -1.162  -1.954   0.890  0.00  0.00    -0.322 N 
ATOM     10  H   UNL     1      -1.555  -1.979   1.777  0.00  0.00    +0.148 HD
ENDROOT
BRANCH   1  16
ATOM     11  C   UNL     1      -0.017   1.378   0.010  0.00  0.00    +0.007 A 
ATOM     12  C   UNL     1       1.171   2.086   0.002  0.00  0.00    +0.020 A 
ATOM     13  C   UNL     1       2.378   1.410  -0.013  0.00  0.00    +0.041 A 
ATOM     14  C   UNL     1       2.396   0.027  -0.021  0.00  0.00    +0.020 A 
ATOM     15  C   UNL     1       1.208  -0.679  -0.013  0.00  0.00    +0.007 A 
ATOM     16  C   UNL     1       0.002  -0.004   0.002  0.00  0.00    -0.027 A 
ATOM     17 CL   UNL     1       3.870   2.298  -0.023  0.00  0.00    -0.084 Cl
ENDBRANCH   1  16
BRANCH   7  18
ATOM     18  C   UNL     1       1.378  -6.204   0.261  0.00  0.00    +0.289 C 
ATOM     19  O   UNL     1       1.395  -6.678   1.381  0.00  0.00    -0.266 OA
ATOM     20  N   UNL     1       1.976  -6.856  -0.755  0.00  0.00    -0.150 N 
ATOM     21  C   UNL     1       2.676  -8.147  -0.653  0.00  0.00    +0.222 C 
ATOM     22  C   UNL     1       3.150  -8.408  -2.097  0.00  0.00    +0.121 C 
ATOM     23  C   UNL     1       2.650  -7.204  -2.864  0.00  0.00    +0.107 C 
ATOM     24  N   UNL     1       2.028  -6.423  -2.079  0.00  0.00    -0.178 NA
BRANCH  23  25
ATOM     25  C   UNL     1       2.854  -6.970  -4.338  0.00  0.00    +0.387 C 
ATOM     26  F   UNL     1       2.910  -5.594  -4.588  0.00  0.00    -0.203 F 
ATOM     27  F   UNL     1       4.052  -7.567  -4.745  0.00  0.00    -0.203 F 
ENDBRANCH  23  25
BRANCH  21  28
ATOM     28  C   UNL     1       3.871  -8.039   0.296  0.00  0.00    +0.393 C 
ATOM     29  F   UNL     1       3.421  -7.697   1.576  0.00  0.00    -0.204 F 
ATOM     30  F   UNL     1       4.537  -9.268   0.350  0.00  0.00    -0.204 F 
ENDBRANCH  21  28
BRANCH  21  31
ATOM     31  O   UNL     1       1.780  -9.174  -0.224  0.00  0.00    -0.365 OA
ATOM     32  H   UNL     1       1.396  -9.021   0.651  0.00  0.00    +0.212 HD
ENDBRANCH  21  31
ENDBRANCH   7  18
BRANCH   3  33
ATOM     33  C   UNL     1      -0.882  -2.775  -3.256  0.00  0.00    +0.412 C 
ATOM     34  F   UNL     1      -1.233  -1.801  -4.197  0.00  0.00    -0.168 F 
ATOM     35  F   UNL     1       0.178  -3.541  -3.751  0.00  0.00    -0.168 F 
ATOM     36  F   UNL     1      -1.982  -3.604  -3.010  0.00  0.00    -0.168 F 
ENDBRANCH   3  33
TORSDOF 6
