REMARK  Name = ZINC09137622
REMARK  6 active torsions:
REMARK  status: ('A' for Active; 'I' for Inactive)
REMARK    1  A    between atoms: C_8  and  C_11
REMARK    2  A    between atoms: N_13  and  C_14
REMARK    3  A    between atoms: C_14  and  C_16
REMARK    4  A    between atoms: C_14  and  C_27
REMARK    5  A    between atoms: C_16  and  C_17
REMARK    6  A    between atoms: N_29  and  C_30
REMARK                            x       y       z     vdW  Elec       q    Type
REMARK                         _______ _______ _______ _____ _____    ______ ____
ROOT
ATOM      1  C   UNL     1      -4.563   2.954   3.478  0.00  0.00    +0.163 C 
ENDROOT
BRANCH   1   4
ATOM      2  C   UNL     1      -4.305   2.265   5.801  0.00  0.00    +0.200 C 
ATOM      3  O   UNL     1      -3.218   2.803   5.809  0.00  0.00    -0.278 OA
ATOM      4  N   UNL     1      -5.058   2.284   4.683  0.00  0.00    -0.305 N 
ATOM      5  H   UNL     1      -5.927   1.854   4.677  0.00  0.00    +0.149 HD
BRANCH   2  13
ATOM      6  C   UNL     1      -5.285  -2.622   9.463  0.00  0.00    +0.000 A 
ATOM      7  C   UNL     1      -5.354  -1.900  10.640  0.00  0.00    +0.000 A 
ATOM      8  C   UNL     1      -5.175  -0.532  10.619  0.00  0.00    +0.002 A 
ATOM      9  C   UNL     1      -4.925   0.125   9.423  0.00  0.00    -0.061 A 
ATOM     10  C   UNL     1      -4.853  -0.596   8.250  0.00  0.00    -0.047 A 
ATOM     11  C   UNL     1      -5.036  -1.970   8.272  0.00  0.00    +0.004 A 
ATOM     12  C   UNL     1      -4.573   0.071   6.928  0.00  0.00    +0.028 C 
ATOM     13  C   UNL     1      -4.814   1.576   7.041  0.00  0.00    +0.021 C 
ATOM     14  C   UNL     1      -4.739   1.619   9.450  0.00  0.00    -0.045 C 
ATOM     15  N   UNL     1      -4.083   2.081   8.218  0.00  0.00    +0.389 N 
ATOM     16  H   UNL     1      -4.077   3.108   8.201  0.00  0.00    -0.084 HD
ATOM     17  H   UNL     1      -3.118   1.733   8.195  0.00  0.00    -0.084 HD
ENDBRANCH   2  13
ENDBRANCH   1   4
BRANCH   1  18
ATOM     18  C   UNL     1      -3.688   2.005   2.699  0.00  0.00    +0.234 C 
ATOM     19  O   UNL     1      -3.497   0.881   3.111  0.00  0.00    -0.274 OA
ATOM     20  N   UNL     1      -3.119   2.407   1.546  0.00  0.00    -0.311 N 
ATOM     21  H   UNL     1      -3.272   3.307   1.217  0.00  0.00    +0.149 HD
BRANCH  20  22
ATOM     22  C   UNL     1      -2.268   1.485   0.789  0.00  0.00    +0.073 C 
ATOM     23  C   UNL     1      -0.789   1.611   1.242  0.00  0.00    +0.022 C 
ATOM     24  C   UNL     1      -0.013   1.086   0.008  0.00  0.00    +0.002 C 
ATOM     25  C   UNL     1      -0.809   1.622  -1.200  0.00  0.00    +0.002 C 
ATOM     26  C   UNL     1      -2.243   1.875  -0.703  0.00  0.00    +0.022 C 
ENDBRANCH  20  22
ENDBRANCH   1  18
BRANCH   1  27
ATOM     27  C   UNL     1      -5.748   3.384   2.611  0.00  0.00    +0.069 C 
BRANCH  27  28
ATOM     28  C   UNL     1      -6.554   4.425   3.343  0.00  0.00    -0.020 A 
ATOM     29  C   UNL     1      -7.643   4.207   4.097  0.00  0.00    +0.087 A 
ATOM     30  N   UNL     1      -8.106   5.391   4.602  0.00  0.00    -0.360 N 
ATOM     31  H   UNL     1      -8.883   5.487   5.175  0.00  0.00    +0.165 HD
ATOM     32  C   UNL     1      -7.306   6.427   4.174  0.00  0.00    +0.047 A 
ATOM     33  C   UNL     1      -6.295   5.867   3.371  0.00  0.00    +0.003 A 
ATOM     34  C   UNL     1      -5.325   6.690   2.798  0.00  0.00    +0.010 A 
ATOM     35  C   UNL     1      -5.359   8.037   3.023  0.00  0.00    +0.001 A 
ATOM     36  C   UNL     1      -6.352   8.595   3.817  0.00  0.00    +0.002 A 
ATOM     37  C   UNL     1      -7.324   7.802   4.386  0.00  0.00    +0.026 A 
ENDBRANCH  27  28
ENDBRANCH   1  27
TORSDOF 6
