REMARK  Name = ZINC39666427
REMARK  7 active torsions:
REMARK  status: ('A' for Active; 'I' for Inactive)
REMARK    1  A    between atoms: C_1  and  C_2
REMARK    2  A    between atoms: C_2  and  C_4
REMARK    3  A    between atoms: C_2  and  O_29
REMARK    4  A    between atoms: C_4  and  N_5
REMARK    5  A    between atoms: C_6  and  C_8
REMARK    6  A    between atoms: C_19  and  C_21
REMARK    7  A    between atoms: O_29  and  C_30
REMARK                            x       y       z     vdW  Elec       q    Type
REMARK                         _______ _______ _______ _____ _____    ______ ____
ROOT
ATOM      1  C   UNL     1       0.990  -4.174  -2.549  0.00  0.00    +0.100 C 
ATOM      2  C   UNL     1      -0.454  -4.624  -2.865  0.00  0.00    +0.121 C 
ATOM      3  N   UNL     1      -0.478  -4.801  -4.336  0.00  0.00    -0.296 N 
ATOM      4  C   UNL     1       0.834  -5.415  -4.654  0.00  0.00    +0.115 C 
ATOM      5  C   UNL     1       1.833  -4.699  -3.724  0.00  0.00    -0.004 C 
ATOM      6  C   UNL     1       2.496  -3.537  -4.458  0.00  0.00    -0.010 C 
ATOM      7  C   UNL     1       3.373  -4.087  -5.586  0.00  0.00    -0.082 C 
ATOM      8  N   UNL     1       4.391  -4.983  -5.024  0.00  0.00    +0.379 N 
ATOM      9  C   UNL     1       3.747  -6.145  -4.400  0.00  0.00    -0.082 C 
ATOM     10  C   UNL     1       2.886  -5.682  -3.222  0.00  0.00    -0.010 C 
ATOM     11  C   UNL     1      -1.468  -4.478  -5.191  0.00  0.00    +0.247 C 
ATOM     12  O   UNL     1      -2.446  -3.878  -4.790  0.00  0.00    -0.270 OA
ATOM     13  H   UNL     1       5.006  -5.295  -5.761  0.00  0.00    -0.086 HD
ATOM     14  H   UNL     1       4.929  -4.485  -4.330  0.00  0.00    -0.086 HD
ENDROOT
BRANCH  11  15
ATOM     15  C   UNL     1      -1.364  -4.853  -6.618  0.00  0.00    +0.040 A 
ATOM     16  C   UNL     1      -0.570  -5.934  -7.002  0.00  0.00    +0.033 A 
ATOM     17  C   UNL     1      -0.477  -6.279  -8.336  0.00  0.00    +0.043 A 
ATOM     18  C   UNL     1      -1.169  -5.555  -9.291  0.00  0.00    +0.040 A 
ATOM     19  C   UNL     1      -1.958  -4.480  -8.916  0.00  0.00    +0.043 A 
ATOM     20  C   UNL     1      -2.064  -4.129  -7.585  0.00  0.00    +0.033 A 
ATOM     21 CL   UNL     1      -2.821  -3.577 -10.121  0.00  0.00    -0.083 Cl
ATOM     22 CL   UNL     1       0.510  -7.624  -8.816  0.00  0.00    -0.083 Cl
ENDBRANCH  11  15
BRANCH   1  24
ATOM     23  N   UNL     1       2.088  -2.080  -1.823  0.00  0.00    -0.312 N 
ATOM     24  C   UNL     1       1.068  -2.671  -2.477  0.00  0.00    +0.218 C 
ATOM     25  O   UNL     1       0.213  -1.994  -3.006  0.00  0.00    -0.275 OA
ATOM     26  H   UNL     1       2.771  -2.622  -1.399  0.00  0.00    +0.149 HD
BRANCH  23  27
ATOM     27  C   UNL     1       2.163  -0.619  -1.753  0.00  0.00    +0.148 C 
BRANCH  27  29
ATOM     28  C   UNL     1       3.420   1.310  -0.781  0.00  0.00    +0.053 C 
ATOM     29  C   UNL     1       3.407  -0.210  -0.961  0.00  0.00    +0.187 C 
BRANCH  29  30
ATOM     30  O   UNL     1       4.579  -0.615  -1.671  0.00  0.00    -0.486 OA
BRANCH  30  31
ATOM     31  C   UNL     1       5.707  -0.813  -0.939  0.00  0.00    +0.139 A 
ATOM     32  C   UNL     1       5.663  -0.718   0.444  0.00  0.00    +0.047 A 
ATOM     33  C   UNL     1       6.811  -0.920   1.186  0.00  0.00    +0.004 A 
ATOM     34  C   UNL     1       8.003  -1.216   0.551  0.00  0.00    +0.002 A 
ATOM     35  C   UNL     1       8.050  -1.310  -0.827  0.00  0.00    +0.023 A 
ATOM     36  C   UNL     1       6.904  -1.116  -1.574  0.00  0.00    +0.083 A 
ATOM     37 CL   UNL     1       6.962  -1.242  -3.304  0.00  0.00    -0.080 Cl
ENDBRANCH  30  31
ENDBRANCH  29  30
ENDBRANCH  27  29
ENDBRANCH  23  27
ENDBRANCH   1  24
TORSDOF 6
