REMARK  Name = ZINC30703300
REMARK  13 active torsions:
REMARK  status: ('A' for Active; 'I' for Inactive)
REMARK    1  A    between atoms: C_1  and  C_2
REMARK    2  A    between atoms: C_2  and  C_3
REMARK    3  A    between atoms: C_3  and  C_4
REMARK    4  A    between atoms: C_4  and  N_5
REMARK    5  A    between atoms: N_5  and  C_6
REMARK    6  A    between atoms: C_7  and  N_18
REMARK    7  A    between atoms: N_8  and  C_15
REMARK    8  A    between atoms: C_15  and  C_16
REMARK    9  A    between atoms: C_16  and  C_17
REMARK   10  A    between atoms: C_19  and  C_21
REMARK   11  A    between atoms: C_21  and  N_22
REMARK   12  A    between atoms: N_26  and  S_29
REMARK   13  A    between atoms: S_29  and  C_32
REMARK                            x       y       z     vdW  Elec       q    Type
REMARK                         _______ _______ _______ _____ _____    ______ ____
ROOT
ATOM      1  N   UNL     1       3.838   2.936   4.260  0.00  0.00    -0.266 N 
ATOM      2  C   UNL     1       2.772   2.678   3.475  0.00  0.00    +0.203 C 
ATOM      3  O   UNL     1       2.326   3.545   2.753  0.00  0.00    -0.277 OA
ENDROOT
BRANCH   1   4
ATOM      4  C   UNL     1       4.366   4.242   4.327  0.00  0.00    +0.140 A 
ATOM      5  C   UNL     1       4.915   4.835   3.208  0.00  0.00    +0.127 A 
ATOM      6  N   UNL     1       5.421   6.111   3.304  0.00  0.00    -0.280 N 
ATOM      7  C   UNL     1       5.382   6.772   4.474  0.00  0.00    +0.331 A 
ATOM      8  O   UNL     1       5.835   7.899   4.539  0.00  0.00    -0.246 OA
ATOM      9  N   UNL     1       4.851   6.211   5.575  0.00  0.00    -0.273 N 
ATOM     10  H   UNL     1       4.833   6.768   6.523  0.00  0.00    +0.173 HD
ATOM     11  C   UNL     1       4.337   4.966   5.534  0.00  0.00    +0.277 A 
ATOM     12  O   UNL     1       3.853   4.468   6.536  0.00  0.00    -0.266 OA
BRANCH   5  13
ATOM     13  N   UNL     1       4.955   4.159   2.012  0.00  0.00    -0.343 N 
ATOM     14  H   UNL     1       5.394   4.638   1.124  0.00  0.00    +0.144 HD
ATOM     15  H   UNL     1       4.549   3.139   1.943  0.00  0.00    +0.144 HD
ENDBRANCH   5  13
BRANCH   6  16
ATOM     16  C   UNL     1       6.006   6.752   2.124  0.00  0.00    +0.128 C 
BRANCH  16  17
ATOM     17  C   UNL     1       4.918   7.515   1.366  0.00  0.00    +0.018 C 
ATOM     18  C   UNL     1       5.529   8.185   0.133  0.00  0.00    +0.005 C 
ENDBRANCH  16  17
ENDBRANCH   6  16
ENDBRANCH   1   4
BRANCH   1  19
ATOM     19  C   UNL     1       4.448   1.859   5.045  0.00  0.00    +0.114 C 
BRANCH  19  20
ATOM     20  C   UNL     1       5.462   1.108   4.179  0.00  0.00    +0.019 C 
BRANCH  20  22
ATOM     21  C   UNL     1       7.112  -0.767   4.132  0.00  0.00    +0.004 C 
ATOM     22  C   UNL     1       6.098  -0.016   4.998  0.00  0.00    -0.002 C 
ENDBRANCH  20  22
ENDBRANCH  19  20
ENDBRANCH   1  19
BRANCH   2  23
ATOM     23  C   UNL     1       2.135   1.312   3.494  0.00  0.00    +0.019 C 
BRANCH  23  24
ATOM     24  N   UNL     1       1.060   1.259   2.493  0.00  0.00    +0.386 N 
ATOM     25  C   UNL     1       0.122   2.335   2.686  0.00  0.00    -0.077 C 
ATOM     26  C   UNL     1      -1.327   1.828   2.475  0.00  0.00    -0.001 C 
ATOM     27  C   UNL     1      -1.360   0.815   1.303  0.00  0.00    +0.107 C 
ATOM     28  N   UNL     1      -0.561   1.147   0.157  0.00  0.00    -0.183 NA
ATOM     29  C   UNL     1       0.866   0.680   0.108  0.00  0.00    +0.090 C 
ATOM     30  C   UNL     1       1.594   1.425   1.143  0.00  0.00    -0.061 C 
ATOM     31  H   UNL     1       0.558   0.288   2.612  0.00  0.00    -0.081 HD
BRANCH  28  32
ATOM     32  S   UNL     1      -1.202   2.028  -1.090  0.00  0.00    +0.029 S 
ATOM     33  O   UNL     1      -0.439   1.654  -2.229  0.00  0.00    -0.158 OA
ATOM     34  O   UNL     1      -2.599   1.768  -1.037  0.00  0.00    -0.158 OA
ATOM     35  C   UNL     1      -0.871   3.758  -0.657  0.00  0.00    +0.215 C 
ENDBRANCH  28  32
ENDBRANCH  23  24
ENDBRANCH   2  23
TORSDOF 10
