REMARK  Name = ZINC37514953
REMARK  6 active torsions:
REMARK  status: ('A' for Active; 'I' for Inactive)
REMARK    1  A    between atoms: C_1  and  C_2
REMARK    2  A    between atoms: C_5  and  C_9
REMARK    3  A    between atoms: C_6  and  C_8
REMARK    4  A    between atoms: C_9  and  C_10
REMARK    5  A    between atoms: C_9  and  C_16
REMARK    6  A    between atoms: C_9  and  N_19
REMARK                            x       y       z     vdW  Elec       q    Type
REMARK                         _______ _______ _______ _____ _____    ______ ____
ROOT
ATOM      1  C   UNL     1      -0.006  -4.225  -0.312  0.00  0.00    +0.145 C 
ENDROOT
BRANCH   1   6
ATOM      2  C   UNL     1       0.844   1.449   0.380  0.00  0.00    +0.044 C 
ATOM      3  C   UNL     1       0.623  -0.031   0.199  0.00  0.00    -0.050 A 
ATOM      4  C   UNL     1      -0.423  -0.658   0.851  0.00  0.00    +0.004 A 
ATOM      5  C   UNL     1      -0.627  -2.015   0.685  0.00  0.00    +0.007 A 
ATOM      6  C   UNL     1       0.215  -2.745  -0.133  0.00  0.00    -0.011 A 
ATOM      7  C   UNL     1       1.260  -2.118  -0.785  0.00  0.00    -0.044 A 
ATOM      8  C   UNL     1       1.461  -0.760  -0.622  0.00  0.00    +0.007 A 
ATOM      9  C   UNL     1       2.179  -2.915  -1.676  0.00  0.00    +0.044 C 
ENDBRANCH   1   6
BRANCH   1  10
ATOM     10  C   UNL     1       1.206  -4.977   0.175  0.00  0.00    -0.014 A 
ATOM     11  C   UNL     1       1.851  -4.574   1.330  0.00  0.00    +0.006 A 
ATOM     12  C   UNL     1       2.962  -5.264   1.777  0.00  0.00    +0.000 A 
ATOM     13  C   UNL     1       3.428  -6.357   1.070  0.00  0.00    +0.000 A 
ATOM     14  C   UNL     1       2.783  -6.760  -0.084  0.00  0.00    +0.000 A 
ATOM     15  C   UNL     1       1.669  -6.073  -0.529  0.00  0.00    +0.006 A 
ENDBRANCH   1  10
BRANCH   1  16
ATOM     16  C   UNL     1      -1.214  -4.652   0.480  0.00  0.00    +0.240 C 
ATOM     17  O   UNL     1      -1.079  -5.105   1.597  0.00  0.00    -0.273 OA
ATOM     18  N   UNL     1      -2.447  -4.531  -0.053  0.00  0.00    -0.327 N 
ATOM     19  H   UNL     1      -2.555  -4.169  -0.946  0.00  0.00    +0.145 HD
ATOM     20  H   UNL     1      -3.225  -4.806   0.457  0.00  0.00    +0.145 HD
ENDBRANCH   1  16
BRANCH   1  21
ATOM     21  N   UNL     1      -0.224  -4.518  -1.735  0.00  0.00    -0.310 NA
ATOM     22  H   UNL     1      -1.067  -4.077  -2.070  0.00  0.00    +0.120 HD
ATOM     23  H   UNL     1       0.573  -4.241  -2.288  0.00  0.00    +0.120 HD
ENDBRANCH   1  21
TORSDOF 4
