REMARK  Name = ZINC33382287
REMARK  8 active torsions:
REMARK  status: ('A' for Active; 'I' for Inactive)
REMARK    1  A    between atoms: C_1  and  C_2
REMARK    2  A    between atoms: C_7  and  N_8
REMARK    3  A    between atoms: C_13  and  C_30
REMARK    4  A    between atoms: C_16  and  C_21
REMARK    5  A    between atoms: C_16  and  C_27
REMARK    6  A    between atoms: C_33  and  C_36
REMARK    7  A    between atoms: C_36  and  O_38
REMARK    8  A    between atoms: O_38  and  C_39
REMARK                            x       y       z     vdW  Elec       q    Type
REMARK                         _______ _______ _______ _____ _____    ______ ____
ROOT
ATOM      1  N   UNL     1      -0.452   0.002   2.514  0.00  0.00    -0.210 N 
ATOM      2  C   UNL     1      -1.488   0.406   3.320  0.00  0.00    +0.229 C 
ATOM      3  O   UNL     1      -2.647   0.055   3.267  0.00  0.00    -0.275 OA
ATOM      4  C   UNL     1      -0.893   1.341   4.242  0.00  0.00    +0.078 C 
ATOM      5  C   UNL     1      -1.136   1.947   5.563  0.00  0.00    -0.026 C 
ATOM      6  N   UNL     1       0.171   2.635   5.840  0.00  0.00    +0.398 N 
ATOM      7  C   UNL     1       1.224   1.961   5.023  0.00  0.00    +0.074 C 
ATOM      8  C   UNL     1       0.541   0.709   4.453  0.00  0.00    +0.090 C 
ATOM      9  C   UNL     1       0.771   0.353   3.011  0.00  0.00    +0.229 C 
ATOM     10  O   UNL     1       1.825   0.375   2.412  0.00  0.00    -0.275 OA
ATOM     11  H   UNL     1       0.107   3.608   5.579  0.00  0.00    -0.083 HD
ATOM     12  H   UNL     1       0.398   2.558   6.820  0.00  0.00    -0.083 HD
ENDROOT
BRANCH   1  19
ATOM     13  C   UNL     1      -0.737   1.495   0.108  0.00  0.00    +0.045 C 
ATOM     14  C   UNL     1      -0.774  -0.011   0.119  0.00  0.00    -0.029 A 
ATOM     15  C   UNL     1      -0.944  -0.707  -1.063  0.00  0.00    +0.005 A 
ATOM     16  C   UNL     1      -0.977  -2.089  -1.054  0.00  0.00    +0.000 A 
ATOM     17  C   UNL     1      -0.840  -2.779   0.136  0.00  0.00    +0.002 A 
ATOM     18  C   UNL     1      -0.669  -2.089   1.321  0.00  0.00    +0.024 A 
ATOM     19  C   UNL     1      -0.631  -0.701   1.314  0.00  0.00    +0.047 A 
ENDBRANCH   1  19
BRANCH   7  20
ATOM     20  C   UNL     1       1.695   2.876   3.921  0.00  0.00    -0.047 A 
ATOM     21  C   UNL     1       2.994   2.784   3.455  0.00  0.00    +0.003 A 
ATOM     22  C   UNL     1       3.426   3.623   2.445  0.00  0.00    +0.000 A 
ATOM     23  C   UNL     1       2.559   4.552   1.900  0.00  0.00    +0.000 A 
ATOM     24  C   UNL     1       1.261   4.643   2.366  0.00  0.00    +0.000 A 
ATOM     25  C   UNL     1       0.828   3.801   3.373  0.00  0.00    +0.003 A 
ENDBRANCH   7  20
BRANCH   5  26
ATOM     26  C   UNL     1      -2.266   2.942   5.498  0.00  0.00    -0.061 A 
ATOM     27  C   UNL     1      -2.004   4.261   5.172  0.00  0.00    +0.003 A 
ATOM     28  C   UNL     1      -3.033   5.177   5.111  0.00  0.00    +0.015 A 
ATOM     29  C   UNL     1      -4.342   4.771   5.378  0.00  0.00    +0.059 A 
ATOM     30  C   UNL     1      -4.599   3.438   5.706  0.00  0.00    +0.015 A 
ATOM     31  C   UNL     1      -3.562   2.531   5.758  0.00  0.00    +0.003 A 
BRANCH  29  32
ATOM     32  C   UNL     1      -5.449   5.747   5.315  0.00  0.00    +0.339 C 
ATOM     33  O   UNL     1      -5.222   6.905   5.030  0.00  0.00    -0.245 OA
BRANCH  32  34
ATOM     34  O   UNL     1      -6.711   5.351   5.573  0.00  0.00    -0.464 OA
ATOM     35  C   UNL     1      -7.732   6.348   5.493  0.00  0.00    +0.280 C 
ENDBRANCH  32  34
ENDBRANCH  29  32
ENDBRANCH   5  26
BRANCH   7  36
ATOM     36  C   UNL     1       2.383   1.556   5.897  0.00  0.00    +0.350 C 
ATOM     37  O   UNL     1       2.370   1.819   7.088  0.00  0.00    -0.248 OA
ATOM     38  O   UNL     1       3.334   0.966   5.414  0.00  0.00    -0.248 OA
ENDBRANCH   7  36
TORSDOF 6
