REMARK  Name = ZINC12563727
REMARK  10 active torsions:
REMARK  status: ('A' for Active; 'I' for Inactive)
REMARK    1  A    between atoms: C_1  and  C_2
REMARK    2  A    between atoms: C_7  and  C_9
REMARK    3  A    between atoms: C_7  and  C_10
REMARK    4  A    between atoms: N_11  and  S_13
REMARK    5  A    between atoms: S_13  and  C_16
REMARK    6  A    between atoms: C_20  and  C_22
REMARK    7  A    between atoms: C_22  and  O_24
REMARK    8  A    between atoms: O_24  and  C_25
REMARK    9  A    between atoms: C_25  and  C_26
REMARK   10  A    between atoms: N_28  and  C_29
REMARK                            x       y       z     vdW  Elec       q    Type
REMARK                         _______ _______ _______ _____ _____    ______ ____
ROOT
ATOM      1  C   UNL     1      -0.634  -2.543  -4.124  0.00  0.00    +0.106 A 
ATOM      2  C   UNL     1      -1.883  -3.119  -4.279  0.00  0.00    +0.028 A 
ATOM      3  C   UNL     1      -2.665  -2.805  -5.375  0.00  0.00    +0.003 A 
ATOM      4  C   UNL     1      -2.205  -1.914  -6.323  0.00  0.00    +0.015 A 
ATOM      5  C   UNL     1      -0.946  -1.329  -6.173  0.00  0.00    +0.061 A 
ATOM      6  C   UNL     1      -0.164  -1.646  -5.060  0.00  0.00    +0.043 A 
ENDROOT
BRANCH   1   7
ATOM      7  S   UNL     1       0.354  -2.950  -2.723  0.00  0.00    +0.061 S 
ATOM      8  O   UNL     1       1.703  -2.689  -3.088  0.00  0.00    -0.153 OA
ATOM      9  O   UNL     1      -0.081  -4.227  -2.276  0.00  0.00    -0.153 OA
BRANCH   7  19
ATOM     10  C   UNL     1      -0.019   1.532   0.011  0.00  0.00    +0.012 C 
ATOM     11  C   UNL     1       0.002  -0.004   0.002  0.00  0.00    -0.016 C 
ATOM     12  C   UNL     1      -1.426  -0.615  -0.029  0.00  0.00    +0.028 C 
ATOM     13  C   UNL     1      -1.084  -2.048  -0.507  0.00  0.00    +0.081 C 
ATOM     14  C   UNL     1      -0.495  -2.791   0.691  0.00  0.00    +0.027 C 
ATOM     15  C   UNL     1       0.724  -2.107   1.283  0.00  0.00    -0.033 C 
ATOM     16  C   UNL     1       0.726  -0.591   1.212  0.00  0.00    +0.014 C 
ATOM     17  C   UNL     1       1.999  -2.669   0.639  0.00  0.00    +0.011 C 
ATOM     18  C   UNL     1       0.781  -2.494   2.782  0.00  0.00    +0.011 C 
ATOM     19  N   UNL     1      -0.028  -1.873  -1.524  0.00  0.00    -0.173 NA
ATOM     20  C   UNL     1       0.625  -0.576  -1.292  0.00  0.00    +0.116 C 
ENDBRANCH   7  19
ENDBRANCH   1   7
BRANCH   5  21
ATOM     21  C   UNL     1      -0.447  -0.374  -7.183  0.00  0.00    +0.340 C 
ATOM     22  O   UNL     1       0.649   0.134  -7.050  0.00  0.00    -0.245 OA
BRANCH  21  23
ATOM     23  O   UNL     1      -1.206  -0.066  -8.253  0.00  0.00    -0.452 OA
BRANCH  23  24
ATOM     24  C   UNL     1      -0.660   0.864  -9.190  0.00  0.00    +0.328 C 
BRANCH  24  25
ATOM     25  C   UNL     1      -1.644   1.084 -10.310  0.00  0.00    +0.251 C 
ATOM     26  O   UNL     1      -2.708   0.502 -10.306  0.00  0.00    -0.272 OA
ATOM     27  N   UNL     1      -1.341   1.929 -11.316  0.00  0.00    -0.307 N 
ATOM     28  H   UNL     1      -0.491   2.395 -11.319  0.00  0.00    +0.149 HD
BRANCH  27  29
ATOM     29  C   UNL     1      -2.298   2.143 -12.405  0.00  0.00    +0.035 C 
ATOM     30  C   UNL     1      -2.574   0.813 -13.110  0.00  0.00    +0.029 C 
ATOM     31  C   UNL     1      -3.573   1.036 -14.247  0.00  0.00    -0.008 C 
ATOM     32  C   UNL     1      -2.989   2.032 -15.250  0.00  0.00    +0.007 C 
ATOM     33  C   UNL     1      -2.712   3.362 -14.546  0.00  0.00    -0.008 C 
ATOM     34  C   UNL     1      -1.713   3.139 -13.409  0.00  0.00    +0.029 C 
ATOM     35  C   UNL     1      -4.018   3.919 -13.976  0.00  0.00    +0.007 C 
ATOM     36  C   UNL     1      -4.602   2.923 -12.973  0.00  0.00    -0.008 C 
ATOM     37  C   UNL     1      -4.879   1.593 -13.677  0.00  0.00    +0.007 C 
ATOM     38  C   UNL     1      -3.604   2.699 -11.835  0.00  0.00    +0.029 C 
ENDBRANCH  27  29
ENDBRANCH  24  25
ENDBRANCH  23  24
ENDBRANCH  21  23
ENDBRANCH   5  21
TORSDOF 7
