REMARK  Name = ZINC39678260
REMARK  5 active torsions:
REMARK  status: ('A' for Active; 'I' for Inactive)
REMARK    1  A    between atoms: C_4  and  N_32
REMARK    2  A    between atoms: C_5  and  C_7
REMARK    3  A    between atoms: C_7  and  N_8
REMARK    4  A    between atoms: C_9  and  C_11
REMARK    5  A    between atoms: C_22  and  C_24
REMARK                            x       y       z     vdW  Elec       q    Type
REMARK                         _______ _______ _______ _____ _____    ______ ____
ROOT
ATOM      1  C   UNL     1       2.330  -4.518   2.485  0.00  0.00    +0.100 C 
ATOM      2  C   UNL     1       3.614  -4.112   3.242  0.00  0.00    +0.121 C 
ATOM      3  N   UNL     1       3.970  -5.308   4.042  0.00  0.00    -0.296 N 
ATOM      4  C   UNL     1       3.679  -6.451   3.145  0.00  0.00    +0.115 C 
ATOM      5  C   UNL     1       2.377  -6.053   2.422  0.00  0.00    -0.004 C 
ATOM      6  C   UNL     1       2.415  -6.522   0.970  0.00  0.00    -0.010 C 
ATOM      7  C   UNL     1       2.403  -8.053   0.932  0.00  0.00    -0.082 C 
ATOM      8  N   UNL     1       1.192  -8.551   1.596  0.00  0.00    +0.379 N 
ATOM      9  C   UNL     1       1.208  -8.174   3.015  0.00  0.00    -0.082 C 
ATOM     10  C   UNL     1       1.170  -6.649   3.141  0.00  0.00    -0.010 C 
ATOM     11  C   UNL     1       4.450  -5.347   5.301  0.00  0.00    +0.247 C 
ATOM     12  O   UNL     1       4.515  -4.326   5.958  0.00  0.00    -0.270 OA
ATOM     13  H   UNL     1       0.378  -8.151   1.153  0.00  0.00    -0.086 HD
ATOM     14  H   UNL     1       1.155  -9.556   1.517  0.00  0.00    -0.086 HD
ENDROOT
BRANCH  11  15
ATOM     15  C   UNL     1       4.897  -6.630   5.882  0.00  0.00    +0.040 A 
ATOM     16  C   UNL     1       5.235  -7.697   5.048  0.00  0.00    +0.033 A 
ATOM     17  C   UNL     1       5.651  -8.894   5.597  0.00  0.00    +0.043 A 
ATOM     18  C   UNL     1       5.734  -9.037   6.972  0.00  0.00    +0.040 A 
ATOM     19  C   UNL     1       5.399  -7.982   7.804  0.00  0.00    +0.043 A 
ATOM     20  C   UNL     1       4.987  -6.779   7.267  0.00  0.00    +0.033 A 
ATOM     21 CL   UNL     1       5.505  -8.171   9.527  0.00  0.00    -0.083 Cl
ATOM     22 CL   UNL     1       6.072 -10.222   4.562  0.00  0.00    -0.083 Cl
ENDBRANCH  11  15
BRANCH   1  24
ATOM     23  N   UNL     1       1.171  -3.624   0.490  0.00  0.00    -0.311 N 
ATOM     24  C   UNL     1       2.335  -3.935   1.095  0.00  0.00    +0.218 C 
ATOM     25  O   UNL     1       3.386  -3.746   0.520  0.00  0.00    -0.275 OA
ATOM     26  H   UNL     1       0.330  -3.776   0.949  0.00  0.00    +0.149 HD
BRANCH  23  27
ATOM     27  C   UNL     1       1.176  -3.058  -0.861  0.00  0.00    +0.141 C 
BRANCH  27  32
ATOM     28  C   UNL     1      -2.176  -3.464  -2.551  0.00  0.00    +0.000 A 
ATOM     29  C   UNL     1      -2.847  -2.334  -2.119  0.00  0.00    +0.002 A 
ATOM     30  C   UNL     1      -2.219  -1.436  -1.280  0.00  0.00    +0.023 A 
ATOM     31  C   UNL     1      -0.912  -1.667  -0.869  0.00  0.00    +0.034 A 
ATOM     32  C   UNL     1      -0.242  -2.803  -1.304  0.00  0.00    -0.009 A 
ATOM     33  C   UNL     1      -0.876  -3.698  -2.144  0.00  0.00    +0.007 A 
BRANCH  31  34
ATOM     34  N   UNL     1      -0.274  -0.760  -0.020  0.00  0.00    -0.330 N 
ATOM     35  C   UNL     1       0.492   0.367  -0.568  0.00  0.00    +0.105 C 
ATOM     36  C   UNL     1      -0.022   1.665   0.062  0.00  0.00    +0.019 C 
ATOM     37  C   UNL     1       0.039   1.547   1.586  0.00  0.00    +0.003 C 
ATOM     38  C   UNL     1      -0.860   0.398   2.047  0.00  0.00    +0.019 C 
ATOM     39  C   UNL     1      -0.361  -0.912   1.439  0.00  0.00    +0.105 C 
ENDBRANCH  31  34
ENDBRANCH  27  32
ENDBRANCH  23  27
ENDBRANCH   1  24
TORSDOF 5
