REMARK  Name = ZINC29033396
REMARK  9 active torsions:
REMARK  status: ('A' for Active; 'I' for Inactive)
REMARK    1  A    between atoms: C_1  and  C_2
REMARK    2  A    between atoms: C_4  and  C_29
REMARK    3  A    between atoms: C_8  and  N_28
REMARK    4  A    between atoms: C_9  and  C_11
REMARK    5  A    between atoms: C_11  and  O_13
REMARK    6  A    between atoms: O_13  and  C_14
REMARK    7  A    between atoms: C_14  and  C_15
REMARK    8  A    between atoms: N_17  and  C_18
REMARK    9  A    between atoms: C_22  and  N_24
REMARK                            x       y       z     vdW  Elec       q    Type
REMARK                         _______ _______ _______ _____ _____    ______ ____
ROOT
ATOM      1  C   UNL     1       1.015  -0.978   4.151  0.00  0.00    +0.348 C 
ATOM      2  O   UNL     1       1.140   0.124   4.652  0.00  0.00    -0.244 OA
ENDROOT
BRANCH   1  11
ATOM      3  C   UNL     1      -2.039   1.704   0.397  0.00  0.00    +0.044 C 
ATOM      4  C   UNL     1      -1.906   0.220   0.169  0.00  0.00    -0.037 A 
ATOM      5  C   UNL     1      -2.513  -0.377  -0.911  0.00  0.00    +0.025 A 
ATOM      6  C   UNL     1      -2.389  -1.743  -1.118  0.00  0.00    +0.014 A 
ATOM      7  N   UNL     1      -1.688  -2.485  -0.283  0.00  0.00    -0.353 N 
ATOM      8  C   UNL     1      -1.089  -1.960   0.764  0.00  0.00    +0.088 A 
ATOM      9  C   UNL     1      -1.149  -0.579   1.061  0.00  0.00    +0.030 A 
ATOM     10  C   UNL     1      -0.423  -0.171   2.253  0.00  0.00    +0.055 A 
ATOM     11  C   UNL     1       0.249  -1.136   2.972  0.00  0.00    +0.119 A 
ATOM     12  S   UNL     1      -0.088  -2.634   2.067  0.00  0.00    -0.062 S 
ATOM     13  C   UNL     1      -3.061  -2.384  -2.306  0.00  0.00    +0.063 C 
ATOM     14  H   UNL     1      -1.613  -3.438  -0.444  0.00  0.00    +0.166 HD
BRANCH  10  15
ATOM     15  N   UNL     1      -0.407   1.156   2.657  0.00  0.00    -0.356 N 
ATOM     16  H   UNL     1      -0.613   1.859   2.021  0.00  0.00    +0.142 HD
ATOM     17  H   UNL     1      -0.190   1.381   3.575  0.00  0.00    +0.142 HD
ENDBRANCH  10  15
ENDBRANCH   1  11
BRANCH   1  18
ATOM     18  O   UNL     1       1.607  -2.049   4.720  0.00  0.00    -0.451 OA
BRANCH  18  19
ATOM     19  C   UNL     1       2.365  -1.816   5.909  0.00  0.00    +0.328 C 
BRANCH  19  20
ATOM     20  C   UNL     1       2.947  -3.117   6.397  0.00  0.00    +0.255 C 
ATOM     21  O   UNL     1       2.733  -4.144   5.787  0.00  0.00    -0.272 OA
ATOM     22  N   UNL     1       3.704  -3.141   7.512  0.00  0.00    -0.283 N 
ATOM     23  H   UNL     1       3.872  -2.320   8.001  0.00  0.00    +0.155 HD
BRANCH  22  24
ATOM     24  C   UNL     1       4.247  -4.349   7.963  0.00  0.00    +0.036 A 
ATOM     25  C   UNL     1       4.472  -4.547   9.320  0.00  0.00    +0.025 A 
ATOM     26  C   UNL     1       5.008  -5.740   9.762  0.00  0.00    +0.024 A 
ATOM     27  C   UNL     1       5.322  -6.738   8.856  0.00  0.00    +0.071 A 
ATOM     28  C   UNL     1       5.099  -6.543   7.504  0.00  0.00    +0.146 A 
ATOM     29  C   UNL     1       4.558  -5.354   7.057  0.00  0.00    +0.057 A 
ATOM     30 CL   UNL     1       5.996  -8.237   9.416  0.00  0.00    -0.081 Cl
BRANCH  28  31
ATOM     31  N   UNL     1       5.436  -7.612   6.538  0.00  0.00    +0.058 N 
ATOM     32  O   UNL     1       5.242  -7.443   5.356  0.00  0.00    -0.126 OA
ATOM     33  O   UNL     1       5.906  -8.655   6.929  0.00  0.00    -0.126 OA
ENDBRANCH  28  31
ENDBRANCH  22  24
ENDBRANCH  19  20
ENDBRANCH  18  19
ENDBRANCH   1  18
TORSDOF 7
