REMARK  Name = ZINC09090711
REMARK  13 active torsions:
REMARK  status: ('A' for Active; 'I' for Inactive)
REMARK    1  A    between atoms: C_1  and  C_2
REMARK    2  A    between atoms: C_7  and  O_8
REMARK    3  A    between atoms: O_8  and  C_9
REMARK    4  A    between atoms: C_9  and  C_10
REMARK    5  A    between atoms: N_12  and  N_13
REMARK    6  A    between atoms: C_14  and  C_15
REMARK    7  A    between atoms: C_18  and  O_21
REMARK    8  A    between atoms: O_21  and  C_22
REMARK    9  A    between atoms: C_24  and  O_37
REMARK   10  A    between atoms: C_26  and  O_36
REMARK   11  A    between atoms: C_28  and  O_35
REMARK   12  A    between atoms: C_30  and  C_33
REMARK   13  A    between atoms: C_33  and  O_34
REMARK                            x       y       z     vdW  Elec       q    Type
REMARK                         _______ _______ _______ _____ _____    ______ ____
ROOT
ATOM      1  C   UNL     1       6.771  -4.536  -0.087  0.00  0.00    -0.005 A 
ATOM      2  C   UNL     1       7.868  -3.671  -0.099  0.00  0.00    +0.013 A 
ATOM      3  C   UNL     1       9.147  -4.183  -0.109  0.00  0.00    +0.046 A 
ATOM      4  C   UNL     1       9.347  -5.558  -0.118  0.00  0.00    +0.124 A 
ATOM      5  C   UNL     1       8.259  -6.422  -0.112  0.00  0.00    +0.046 A 
ATOM      6  C   UNL     1       6.976  -5.918  -0.096  0.00  0.00    +0.013 A 
ENDROOT
BRANCH   1   8
ATOM      7  N   UNL     1       5.212  -2.709  -0.062  0.00  0.00    -0.188 NA
ATOM      8  C   UNL     1       5.400  -3.993  -0.071  0.00  0.00    +0.138 C 
BRANCH   7  11
ATOM      9  C   UNL     1       3.713  -0.859  -0.038  0.00  0.00    +0.270 C 
ATOM     10  O   UNL     1       4.664  -0.106  -0.043  0.00  0.00    -0.270 OA
ATOM     11  N   UNL     1       3.909  -2.193  -0.047  0.00  0.00    -0.204 N 
ATOM     12  H   UNL     1       3.149  -2.795  -0.043  0.00  0.00    +0.177 HD
BRANCH   9  13
ATOM     13  C   UNL     1       2.312  -0.304  -0.022  0.00  0.00    +0.326 C 
BRANCH  13  14
ATOM     14  O   UNL     1       2.366   1.124  -0.015  0.00  0.00    -0.482 OA
BRANCH  14  21
ATOM     15  C   UNL     1       2.451   3.947  -0.000  0.00  0.00    +0.047 C 
ATOM     16  C   UNL     1       1.158   3.173   0.008  0.00  0.00    -0.007 A 
ATOM     17  C   UNL     1      -0.050   3.844   0.022  0.00  0.00    +0.027 A 
ATOM     18  C   UNL     1      -1.237   3.134   0.030  0.00  0.00    +0.041 A 
ATOM     19  C   UNL     1      -1.218   1.751   0.017  0.00  0.00    +0.023 A 
ATOM     20  C   UNL     1      -0.013   1.076   0.008  0.00  0.00    +0.047 A 
ATOM     21  C   UNL     1       1.179   1.786   0.000  0.00  0.00    +0.124 A 
ATOM     22 CL   UNL     1      -2.753   3.980   0.048  0.00  0.00    -0.084 Cl
ENDBRANCH  14  21
ENDBRANCH  13  14
ENDBRANCH   9  13
ENDBRANCH   7  11
ENDBRANCH   1   8
BRANCH   4  23
ATOM     23  O   UNL     1      10.609  -6.058  -0.134  0.00  0.00    -0.461 OA
BRANCH  23  24
ATOM     24  C   UNL     1      11.682  -5.114  -0.140  0.00  0.00    +0.339 C 
ATOM     25  C   UNL     1      13.016  -5.856  -0.032  0.00  0.00    +0.214 C 
ATOM     26  C   UNL     1      13.188  -6.762  -1.256  0.00  0.00    +0.180 C 
ATOM     27  C   UNL     1      13.097  -5.910  -2.525  0.00  0.00    +0.177 C 
ATOM     28  C   UNL     1      11.759  -5.165  -2.536  0.00  0.00    +0.179 C 
ATOM     29  O   UNL     1      11.651  -4.366  -1.357  0.00  0.00    -0.331 OA
BRANCH  27  30
ATOM     30  O   UNL     1      14.169  -4.965  -2.545  0.00  0.00    -0.386 OA
ATOM     31  H   UNL     1      15.048  -5.368  -2.540  0.00  0.00    +0.210 HD
ENDBRANCH  27  30
BRANCH  26  32
ATOM     32  O   UNL     1      14.464  -7.403  -1.201  0.00  0.00    -0.386 OA
ATOM     33  H   UNL     1      14.590  -7.961  -0.421  0.00  0.00    +0.210 HD
ENDBRANCH  26  32
BRANCH  25  34
ATOM     34  O   UNL     1      14.086  -4.910   0.015  0.00  0.00    -0.383 OA
ATOM     35  H   UNL     1      14.039  -4.300   0.764  0.00  0.00    +0.210 HD
ENDBRANCH  25  34
BRANCH  28  36
ATOM     36  C   UNL     1      11.686  -4.265  -3.771  0.00  0.00    +0.190 C 
BRANCH  36  37
ATOM     37  O   UNL     1      10.394  -3.659  -3.843  0.00  0.00    -0.392 OA
ATOM     38  H   UNL     1      10.276  -3.073  -4.604  0.00  0.00    +0.210 HD
ENDBRANCH  36  37
ENDBRANCH  28  36
ENDBRANCH  23  24
ENDBRANCH   4  23
TORSDOF 12
