REMARK  Name = ZINC39635092
REMARK  7 active torsions:
REMARK  status: ('A' for Active; 'I' for Inactive)
REMARK    1  A    between atoms: C_1  and  O_2
REMARK    2  A    between atoms: O_2  and  C_3
REMARK    3  A    between atoms: C_6  and  C_9
REMARK    4  A    between atoms: C_9  and  C_10
REMARK    5  A    between atoms: C_10  and  N_11
REMARK    6  A    between atoms: C_12  and  C_14
REMARK    7  A    between atoms: C_25  and  C_27
REMARK                            x       y       z     vdW  Elec       q    Type
REMARK                         _______ _______ _______ _____ _____    ______ ____
ROOT
ATOM      1  C   UNL     1       6.620  -4.335  -6.328  0.00  0.00    +0.100 C 
ATOM      2  C   UNL     1       6.455  -3.477  -7.602  0.00  0.00    +0.121 C 
ATOM      3  N   UNL     1       7.696  -2.670  -7.673  0.00  0.00    -0.297 N 
ATOM      4  C   UNL     1       8.768  -3.603  -7.249  0.00  0.00    +0.115 C 
ATOM      5  C   UNL     1       8.139  -4.418  -6.101  0.00  0.00    -0.004 C 
ATOM      6  C   UNL     1       8.605  -5.869  -6.168  0.00  0.00    -0.010 C 
ATOM      7  C   UNL     1      10.108  -5.932  -5.882  0.00  0.00    -0.082 C 
ATOM      8  N   UNL     1      10.379  -5.371  -4.553  0.00  0.00    +0.379 N 
ATOM      9  C   UNL     1      10.014  -3.950  -4.526  0.00  0.00    -0.082 C 
ATOM     10  C   UNL     1       8.507  -3.803  -4.755  0.00  0.00    -0.010 C 
ATOM     11  C   UNL     1       7.822  -1.379  -8.041  0.00  0.00    +0.260 C 
ATOM     12  O   UNL     1       8.916  -0.855  -8.048  0.00  0.00    -0.271 OA
ATOM     13  H   UNL     1       9.838  -5.869  -3.862  0.00  0.00    -0.086 HD
ATOM     14  H   UNL     1      11.361  -5.469  -4.342  0.00  0.00    -0.086 HD
ENDROOT
BRANCH  11  15
ATOM     15  C   UNL     1       6.604  -0.588  -8.443  0.00  0.00    +0.296 C 
ATOM     16  C   UNL     1       6.013  -1.169  -9.735  0.00  0.00    +0.283 C 
ATOM     17  O   UNL     1       4.870  -0.387 -10.096  0.00  0.00    -0.484 OA
ATOM     18  C   UNL     1       5.014   0.966 -10.048  0.00  0.00    +0.162 A 
ATOM     19  C   UNL     1       4.101   1.771 -10.714  0.00  0.00    +0.049 A 
ATOM     20  C   UNL     1       4.232   3.146 -10.672  0.00  0.00    +0.004 A 
ATOM     21  C   UNL     1       5.273   3.723  -9.968  0.00  0.00    +0.004 A 
ATOM     22  C   UNL     1       6.186   2.926  -9.304  0.00  0.00    +0.049 A 
ATOM     23  C   UNL     1       6.061   1.545  -9.342  0.00  0.00    +0.163 A 
ATOM     24  O   UNL     1       6.973   0.773  -8.690  0.00  0.00    -0.473 OA
ENDBRANCH  11  15
BRANCH   1  26
ATOM     25  N   UNL     1       5.468  -4.410  -4.140  0.00  0.00    -0.315 N 
ATOM     26  C   UNL     1       5.951  -3.666  -5.155  0.00  0.00    +0.218 C 
ATOM     27  O   UNL     1       5.846  -2.458  -5.124  0.00  0.00    -0.275 OA
ATOM     28  H   UNL     1       5.552  -5.377  -4.165  0.00  0.00    +0.149 HD
BRANCH  25  29
ATOM     29  C   UNL     1       4.818  -3.760  -3.000  0.00  0.00    +0.109 C 
BRANCH  29  30
ATOM     30  C   UNL     1       4.365  -4.824  -1.997  0.00  0.00    +0.054 C 
BRANCH  30  34
ATOM     31  C   UNL     1       2.466  -2.928   1.329  0.00  0.00    +0.120 A 
ATOM     32  C   UNL     1       1.716  -3.313   0.228  0.00  0.00    +0.046 A 
ATOM     33  C   UNL     1       2.332  -3.926  -0.846  0.00  0.00    +0.007 A 
ATOM     34  C   UNL     1       3.695  -4.155  -0.824  0.00  0.00    -0.046 A 
ATOM     35  C   UNL     1       4.446  -3.772   0.273  0.00  0.00    +0.007 A 
ATOM     36  C   UNL     1       3.835  -3.153   1.347  0.00  0.00    +0.046 A 
BRANCH  31  38
ATOM     37  C   UNL     1       0.450  -2.124   2.300  0.00  0.00    +0.277 C 
ATOM     38  O   UNL     1       1.863  -2.325   2.387  0.00  0.00    -0.495 OA
ENDBRANCH  31  38
ENDBRANCH  30  34
ENDBRANCH  29  30
ENDBRANCH  25  29
ENDBRANCH   1  26
TORSDOF 6
