REMARK  Name = ZINC63363045
REMARK  13 active torsions:
REMARK  status: ('A' for Active; 'I' for Inactive)
REMARK    1  A    between atoms: C_1  and  C_2
REMARK    2  A    between atoms: C_2  and  C_4
REMARK    3  A    between atoms: C_2  and  N_19
REMARK    4  A    between atoms: N_6  and  C_7
REMARK    5  A    between atoms: C_7  and  C_8
REMARK    6  A    between atoms: C_8  and  C_9
REMARK    7  A    between atoms: C_12  and  O_17
REMARK    8  A    between atoms: C_13  and  O_15
REMARK    9  A    between atoms: O_15  and  C_16
REMARK   10  A    between atoms: O_17  and  C_18
REMARK   11  A    between atoms: C_22  and  C_40
REMARK   12  A    between atoms: C_28  and  O_33
REMARK   13  A    between atoms: O_33  and  C_34
REMARK                            x       y       z     vdW  Elec       q    Type
REMARK                         _______ _______ _______ _____ _____    ______ ____
ROOT
ATOM      1  N   UNL     1       0.711  -0.489   1.189  0.00  0.00    -0.212 N 
ATOM      2  C   UNL     1       0.159  -1.285   2.128  0.00  0.00    +0.249 C 
ATOM      3  O   UNL     1      -0.982  -1.694   2.162  0.00  0.00    -0.273 OA
ATOM      4  C   UNL     1       1.258  -1.562   3.130  0.00  0.00    +0.136 C 
ATOM      5  C   UNL     1       0.866  -1.014   4.507  0.00  0.00    +0.139 C 
ATOM      6  C   UNL     1       2.165  -0.831   5.283  0.00  0.00    -0.034 C 
ATOM      7  C   UNL     1       2.044  -1.556   6.390  0.00  0.00    +0.003 A 
ATOM      8  C   UNL     1       2.934  -1.733   7.548  0.00  0.00    +0.055 A 
ATOM      9  C   UNL     1       2.502  -2.576   8.526  0.00  0.00    +0.121 A 
ATOM     10  C   UNL     1       1.281  -3.265   8.485  0.00  0.00    +0.047 A 
ATOM     11  C   UNL     1       0.385  -3.171   7.470  0.00  0.00    +0.029 A 
ATOM     12  C   UNL     1       0.739  -2.284   6.352  0.00  0.00    +0.043 A 
ATOM     13  N   UNL     1       0.074  -1.987   5.263  0.00  0.00    -0.375 N 
ATOM     14  C   UNL     1       3.328  -0.017   4.770  0.00  0.00    +0.052 C 
ATOM     15  C   UNL     1       3.646  -0.522   3.349  0.00  0.00    +0.115 C 
ATOM     16  N   UNL     1       2.380  -0.728   2.640  0.00  0.00    -0.269 N 
ATOM     17  C   UNL     1       1.988  -0.202   1.472  0.00  0.00    +0.313 C 
ATOM     18  O   UNL     1       2.708   0.462   0.753  0.00  0.00    -0.252 OA
ATOM     19  C   UNL     1       1.626  -3.046   3.180  0.00  0.00    +0.044 C 
ATOM     20  H   UNL     1      -0.788  -2.345   4.997  0.00  0.00    +0.160 HD
ENDROOT
BRANCH   1  22
ATOM     21  C   UNL     1      -0.019   1.526   0.010  0.00  0.00    +0.038 C 
ATOM     22  C   UNL     1       0.002  -0.004   0.002  0.00  0.00    +0.168 C 
BRANCH  22  23
ATOM     23  C   UNL     1       0.707  -0.490  -1.238  0.00  0.00    +0.234 C 
ATOM     24  O   UNL     1       1.704  -1.174  -1.140  0.00  0.00    -0.274 OA
ATOM     25  N   UNL     1       0.231  -0.164  -2.456  0.00  0.00    -0.313 N 
ATOM     26  H   UNL     1      -0.566   0.383  -2.534  0.00  0.00    +0.149 HD
BRANCH  25  27
ATOM     27  C   UNL     1       0.917  -0.637  -3.661  0.00  0.00    +0.109 C 
BRANCH  27  28
ATOM     28  C   UNL     1       0.177  -0.130  -4.901  0.00  0.00    +0.054 C 
BRANCH  28  29
ATOM     29  C   UNL     1       0.882  -0.616  -6.141  0.00  0.00    -0.042 A 
ATOM     30  C   UNL     1       1.887   0.147  -6.706  0.00  0.00    +0.007 A 
ATOM     31  C   UNL     1       2.537  -0.295  -7.843  0.00  0.00    +0.049 A 
ATOM     32  C   UNL     1       2.182  -1.504  -8.419  0.00  0.00    +0.161 A 
ATOM     33  C   UNL     1       1.171  -2.272  -7.849  0.00  0.00    +0.162 A 
ATOM     34  C   UNL     1       0.526  -1.826  -6.707  0.00  0.00    +0.053 A 
BRANCH  33  35
ATOM     35  O   UNL     1       0.819  -3.459  -8.411  0.00  0.00    -0.491 OA
ATOM     36  C   UNL     1      -0.228  -4.194  -7.772  0.00  0.00    +0.277 C 
ENDBRANCH  33  35
BRANCH  32  37
ATOM     37  O   UNL     1       2.820  -1.940  -9.538  0.00  0.00    -0.491 OA
ATOM     38  C   UNL     1       3.848  -1.099 -10.067  0.00  0.00    +0.277 C 
ENDBRANCH  32  37
ENDBRANCH  28  29
ENDBRANCH  27  28
ENDBRANCH  25  27
ENDBRANCH  22  23
ENDBRANCH   1  22
BRANCH   9  39
ATOM     39  O   UNL     1       3.303  -2.761   9.609  0.00  0.00    -0.495 OA
ATOM     40  C   UNL     1       2.829  -3.651  10.622  0.00  0.00    +0.277 C 
ENDBRANCH   9  39
TORSDOF 8
