REMARK  Name = ZINC15945251
REMARK  6 active torsions:
REMARK  status: ('A' for Active; 'I' for Inactive)
REMARK    1  A    between atoms: C_4  and  C_7
REMARK    2  A    between atoms: C_7  and  N_61
REMARK    3  A    between atoms: C_18  and  C_21
REMARK    4  A    between atoms: C_24  and  O_27
REMARK    5  A    between atoms: O_27  and  C_28
REMARK    6  A    between atoms: C_28  and  C_30
REMARK                            x       y       z     vdW  Elec       q    Type
REMARK                         _______ _______ _______ _____ _____    ______ ____
ROOT
ATOM      1  C   UNL     1       1.228   5.214   1.407  0.00  0.00    -0.073 C 
ATOM      2  C   UNL     1       0.782   5.700   2.789  0.00  0.00    +0.018 C 
ATOM      3  C   UNL     1       1.805   5.223   3.814  0.00  0.00    -0.027 A 
ATOM      4  C   UNL     1       2.660   4.222   3.500  0.00  0.00    -0.021 A 
ATOM      5  S   UNL     1       3.650   3.995   4.952  0.00  0.00    -0.080 S 
ATOM      6  C   UNL     1       2.945   5.196   5.947  0.00  0.00    +0.080 A 
ATOM      7  C   UNL     1       1.944   5.774   5.150  0.00  0.00    +0.068 A 
ATOM      8  C   UNL     1       1.139   6.864   5.748  0.00  0.00    +0.248 C 
ATOM      9  O   UNL     1       0.175   7.331   5.169  0.00  0.00    -0.270 OA
ATOM     10  N   UNL     1       1.518   7.319   6.960  0.00  0.00    -0.289 N 
ATOM     11  C   UNL     1       2.785   6.967   7.593  0.00  0.00    +0.190 C 
ATOM     12  N   UNL     1       3.199   5.598   7.233  0.00  0.00    -0.316 N 
ATOM     13  C   UNL     1       2.729   3.486   2.199  0.00  0.00    -0.035 C 
ATOM     14  H   UNL     1       0.916   7.913   7.437  0.00  0.00    +0.151 HD
ATOM     15  H   UNL     1       3.629   5.011   7.875  0.00  0.00    +0.149 HD
ATOM     16  N   UNL     1       1.475   3.759   1.455  0.00  0.00    +0.386 N 
ATOM     17  H   UNL     1       0.693   3.303   1.940  0.00  0.00    -0.081 HD
ENDROOT
BRANCH  11  18
ATOM     18  C   UNL     1       3.847   7.937   7.145  0.00  0.00    -0.009 A 
ATOM     19  C   UNL     1       5.171   7.540   7.101  0.00  0.00    +0.010 A 
ATOM     20  C   UNL     1       6.146   8.426   6.686  0.00  0.00    +0.047 A 
ATOM     21  C   UNL     1       5.797   9.720   6.325  0.00  0.00    +0.132 A 
ATOM     22  C   UNL     1       4.469  10.118   6.375  0.00  0.00    +0.047 A 
ATOM     23  C   UNL     1       3.497   9.226   6.786  0.00  0.00    +0.010 A 
BRANCH  21  24
ATOM     24  O   UNL     1       6.756  10.595   5.922  0.00  0.00    -0.422 OA
BRANCH  24  25
ATOM     25  C   UNL     1       7.028  11.626   6.746  0.00  0.00    +0.344 C 
ATOM     26  O   UNL     1       6.504  11.683   7.840  0.00  0.00    -0.245 OA
BRANCH  25  27
ATOM     27  C   UNL     1       7.963  12.686   6.319  0.00  0.00    +0.059 A 
ATOM     28  C   UNL     1       8.572  12.620   5.064  0.00  0.00    +0.015 A 
ATOM     29  C   UNL     1       9.440  13.617   4.668  0.00  0.00    +0.001 A 
ATOM     30  C   UNL     1       9.717  14.674   5.517  0.00  0.00    +0.000 A 
ATOM     31  C   UNL     1       9.123  14.742   6.765  0.00  0.00    +0.001 A 
ATOM     32  C   UNL     1       8.248  13.755   7.170  0.00  0.00    +0.015 A 
ENDBRANCH  25  27
ENDBRANCH  24  25
ENDBRANCH  21  24
ENDBRANCH  11  18
BRANCH  16  33
ATOM     33  C   UNL     1       1.573   3.216   0.083  0.00  0.00    -0.043 C 
BRANCH  33  37
ATOM     34  C   UNL     1       1.681  -1.050   0.287  0.00  0.00    +0.000 A 
ATOM     35  C   UNL     1       0.468  -0.392   0.200  0.00  0.00    +0.000 A 
ATOM     36  C   UNL     1       0.433   0.988   0.134  0.00  0.00    +0.002 A 
ATOM     37  C   UNL     1       1.611   1.711   0.156  0.00  0.00    -0.064 A 
ATOM     38  C   UNL     1       2.824   1.054   0.243  0.00  0.00    +0.002 A 
ATOM     39  C   UNL     1       2.858  -0.327   0.309  0.00  0.00    +0.000 A 
ENDBRANCH  33  37
ENDBRANCH  16  33
TORSDOF 6
