REMARK  Name = ZINC63634400
REMARK  8 active torsions:
REMARK  status: ('A' for Active; 'I' for Inactive)
REMARK    1  A    between atoms: C_1  and  C_2
REMARK    2  A    between atoms: C_2  and  S_3
REMARK    3  A    between atoms: S_3  and  C_4
REMARK    4  A    between atoms: C_7  and  N_10
REMARK    5  A    between atoms: N_10  and  S_11
REMARK    6  A    between atoms: S_11  and  C_14
REMARK    7  A    between atoms: C_17  and  S_21
REMARK    8  A    between atoms: S_21  and  N_24
REMARK                            x       y       z     vdW  Elec       q    Type
REMARK                         _______ _______ _______ _____ _____    ______ ____
ROOT
ATOM      1  S   UNL     1      -0.143  -7.088   0.374  0.00  0.00    +0.094 S 
ATOM      2  O   UNL     1       0.644  -6.725   1.500  0.00  0.00    -0.148 OA
ATOM      3  O   UNL     1      -1.519  -6.748   0.266  0.00  0.00    -0.148 OA
ENDROOT
BRANCH   1   4
ATOM      4  C   UNL     1      -0.044  -8.841   0.233  0.00  0.00    +0.145 A 
ATOM      5  C   UNL     1       0.683  -9.569   1.157  0.00  0.00    +0.034 A 
ATOM      6  C   UNL     1       0.760 -10.944   1.046  0.00  0.00    +0.030 A 
ATOM      7  C   UNL     1       0.111 -11.594   0.013  0.00  0.00    +0.108 A 
ATOM      8  C   UNL     1      -0.616 -10.869  -0.911  0.00  0.00    +0.068 A 
ATOM      9  C   UNL     1      -0.699  -9.491  -0.799  0.00  0.00    +0.152 A 
ATOM     10  F   UNL     1      -1.414  -8.781  -1.699  0.00  0.00    -0.203 F 
BRANCH   7  11
ATOM     11  S   UNL     1       0.212 -13.348  -0.127  0.00  0.00    +0.056 S 
ATOM     12  O   UNL     1      -0.031 -13.661  -1.491  0.00  0.00    -0.153 OA
ATOM     13  O   UNL     1       1.401 -13.741   0.545  0.00  0.00    -0.153 OA
BRANCH  11  14
ATOM     14  N   UNL     1      -1.050 -13.981   0.737  0.00  0.00    -0.204 NA
ATOM     15  H   UNL     1      -1.669 -13.391   1.196  0.00  0.00    +0.144 HD
ATOM     16  H   UNL     1      -1.172 -14.942   0.785  0.00  0.00    +0.144 HD
ENDBRANCH  11  14
ENDBRANCH   7  11
ENDBRANCH   1   4
BRANCH   1  17
ATOM     17  N   UNL     1       0.609  -6.446  -0.955  0.00  0.00    -0.096 NA
BRANCH  17  21
ATOM     18  C   UNL     1       0.792  -2.345  -1.354  0.00  0.00    +0.097 A 
ATOM     19  C   UNL     1       1.368  -3.132  -2.347  0.00  0.00    +0.037 A 
ATOM     20  C   UNL     1       1.316  -4.508  -2.230  0.00  0.00    +0.031 A 
ATOM     21  C   UNL     1       0.685  -5.057  -1.114  0.00  0.00    +0.092 A 
ATOM     22  C   UNL     1       0.134  -4.211  -0.165  0.00  0.00    +0.138 A 
ATOM     23  N   UNL     1       0.206  -2.900  -0.305  0.00  0.00    -0.247 NA
BRANCH  18  24
ATOM     24  S   UNL     1       0.851  -0.589  -1.490  0.00  0.00    -0.106 S 
BRANCH  24  26
ATOM     25  C   UNL     1      -0.019   1.526   0.010  0.00  0.00    +0.015 C 
ATOM     26  C   UNL     1       0.002  -0.004   0.002  0.00  0.00    +0.072 C 
ENDBRANCH  24  26
ENDBRANCH  18  24
ENDBRANCH  17  21
ENDBRANCH   1  17
TORSDOF 7
