REMARK  Name = ZINC63479956
REMARK  4 active torsions:
REMARK  status: ('A' for Active; 'I' for Inactive)
REMARK    1  A    between atoms: C_1  and  C_2
REMARK    2  A    between atoms: C_6  and  N_8
REMARK    3  A    between atoms: C_13  and  C_31
REMARK    4  A    between atoms: C_31  and  C_32
REMARK                            x       y       z     vdW  Elec       q    Type
REMARK                         _______ _______ _______ _____ _____    ______ ____
ROOT
ATOM      1  N   UNL     1       0.050  -2.798   2.395  0.00  0.00    -0.210 N 
ATOM      2  C   UNL     1       0.141  -2.196   3.587  0.00  0.00    +0.232 C 
ATOM      3  O   UNL     1       0.221  -0.999   3.762  0.00  0.00    -0.274 OA
ATOM      4  C   UNL     1       0.126  -3.240   4.679  0.00  0.00    +0.107 C 
ATOM      5  C   UNL     1       1.504  -3.273   5.372  0.00  0.00    +0.072 C 
ATOM      6  N   UNL     1       2.320  -4.210   4.555  0.00  0.00    -0.295 NA
ATOM      7  C   UNL     1       1.375  -5.279   4.181  0.00  0.00    +0.136 C 
ATOM      8  C   UNL     1       0.023  -4.579   3.896  0.00  0.00    +0.123 C 
ATOM      9  C   UNL     1      -0.030  -4.133   2.452  0.00  0.00    +0.233 C 
ATOM     10  O   UNL     1      -0.128  -4.870   1.494  0.00  0.00    -0.274 OA
ATOM     11  C   UNL     1       1.240  -6.302   5.273  0.00  0.00    +0.006 A 
ATOM     12  C   UNL     1       0.845  -6.235   6.591  0.00  0.00    +0.046 A 
ATOM     13  C   UNL     1       0.824  -7.382   7.367  0.00  0.00    +0.124 A 
ATOM     14  C   UNL     1       1.200  -8.595   6.814  0.00  0.00    +0.040 A 
ATOM     15  C   UNL     1       1.595  -8.664   5.494  0.00  0.00    +0.026 A 
ATOM     16  C   UNL     1       1.619  -7.515   4.707  0.00  0.00    +0.039 A 
ATOM     17  N   UNL     1       1.976  -7.333   3.368  0.00  0.00    -0.283 N 
ATOM     18  C   UNL     1       1.861  -6.047   2.983  0.00  0.00    +0.243 C 
ATOM     19  O   UNL     1       2.101  -5.596   1.883  0.00  0.00    -0.273 OA
ATOM     20  F   UNL     1       0.438  -7.319   8.660  0.00  0.00    -0.205 F 
ATOM     21  H   UNL     1       2.688  -3.750   3.736  0.00  0.00    +0.124 HD
ATOM     22  H   UNL     1       2.272  -8.048   2.784  0.00  0.00    +0.155 HD
ENDROOT
BRANCH   1  28
ATOM     23  C   UNL     1      -2.370  -1.344  -1.632  0.00  0.00    +0.044 C 
ATOM     24  C   UNL     1      -1.125  -1.368  -0.784  0.00  0.00    -0.049 A 
ATOM     25  C   UNL     1       0.006  -0.689  -1.200  0.00  0.00    +0.003 A 
ATOM     26  C   UNL     1       1.151  -0.708  -0.426  0.00  0.00    +0.002 A 
ATOM     27  C   UNL     1       1.169  -1.407   0.766  0.00  0.00    +0.024 A 
ATOM     28  C   UNL     1       0.035  -2.089   1.186  0.00  0.00    +0.044 A 
ATOM     29  C   UNL     1      -1.115  -2.063   0.409  0.00  0.00    +0.027 A 
ENDBRANCH   1  28
BRANCH   5  30
ATOM     30  C   UNL     1       2.133  -1.878   5.373  0.00  0.00    +0.052 C 
BRANCH  30  31
ATOM     31  C   UNL     1       3.418  -1.907   6.160  0.00  0.00    -0.040 C 
ATOM     32  C   UNL     1       4.668  -2.070   5.669  0.00  0.00    -0.001 A 
ATOM     33  C   UNL     1       5.186  -2.263   4.309  0.00  0.00    +0.010 A 
ATOM     34  C   UNL     1       6.519  -2.400   4.128  0.00  0.00    +0.001 A 
ATOM     35  C   UNL     1       7.417  -2.364   5.204  0.00  0.00    +0.002 A 
ATOM     36  C   UNL     1       7.017  -2.190   6.481  0.00  0.00    +0.026 A 
ATOM     37  C   UNL     1       5.637  -2.035   6.788  0.00  0.00    +0.043 A 
ATOM     38  N   UNL     1       5.011  -1.857   7.926  0.00  0.00    -0.380 N 
ATOM     39  C   UNL     1       3.572  -1.753   7.656  0.00  0.00    +0.144 C 
ATOM     40  H   UNL     1       5.428  -1.800   8.799  0.00  0.00    +0.160 HD
ENDBRANCH  30  31
ENDBRANCH   5  30
TORSDOF 3
