REMARK  Name = ZINC03320623
REMARK  11 active torsions:
REMARK  status: ('A' for Active; 'I' for Inactive)
REMARK    1  A    between atoms: C_1  and  C_2
REMARK    2  A    between atoms: C_5  and  C_28
REMARK    3  A    between atoms: C_7  and  S_8
REMARK    4  A    between atoms: S_8  and  N_11
REMARK    5  A    between atoms: N_11  and  C_12
REMARK    6  A    between atoms: C_15  and  S_18
REMARK    7  A    between atoms: S_18  and  N_21
REMARK    8  A    between atoms: C_24  and  C_27
REMARK    9  A    between atoms: C_28  and  C_29
REMARK   10  A    between atoms: C_28  and  C_30
REMARK   11  A    between atoms: C_28  and  C_31
REMARK                            x       y       z     vdW  Elec       q    Type
REMARK                         _______ _______ _______ _____ _____    ______ ____
ROOT
ATOM      1  C   UNL     1      -1.663   2.273  -1.406  0.00  0.00    +0.048 A 
ATOM      2  C   UNL     1      -2.833   2.954  -1.715  0.00  0.00    +0.026 A 
ATOM      3  C   UNL     1      -3.205   3.123  -3.034  0.00  0.00    +0.030 A 
ATOM      4  C   UNL     1      -2.413   2.615  -4.047  0.00  0.00    +0.109 A 
ATOM      5  C   UNL     1      -1.247   1.936  -3.744  0.00  0.00    +0.030 A 
ATOM      6  C   UNL     1      -0.870   1.763  -2.426  0.00  0.00    +0.026 A 
ENDROOT
BRANCH   4   7
ATOM      7  S   UNL     1      -2.891   2.832  -5.729  0.00  0.00    +0.074 S 
ATOM      8  O   UNL     1      -3.737   3.973  -5.767  0.00  0.00    -0.150 OA
ATOM      9  O   UNL     1      -1.703   2.739  -6.504  0.00  0.00    -0.150 OA
BRANCH   7  10
ATOM     10  N   UNL     1      -3.829   1.532  -6.144  0.00  0.00    -0.197 N 
ATOM     11  C   UNL     1      -5.060   1.338  -5.525  0.00  0.00    +0.181 A 
ATOM     12  C   UNL     1      -5.979   0.281  -5.765  0.00  0.00    +0.092 A 
ATOM     13  C   UNL     1      -7.004   0.542  -4.924  0.00  0.00    +0.136 A 
ATOM     14  O   UNL     1      -6.682   1.663  -4.262  0.00  0.00    -0.358 OA
ATOM     15  N   UNL     1      -5.602   2.089  -4.601  0.00  0.00    -0.062 NA
ATOM     16  C   UNL     1      -8.264  -0.269  -4.761  0.00  0.00    +0.089 C 
ATOM     17  H   UNL     1      -3.521   0.906  -6.817  0.00  0.00    +0.175 HD
ENDBRANCH   7  10
ENDBRANCH   4   7
BRANCH   1  18
ATOM     18  N   UNL     1      -1.287   2.095  -0.072  0.00  0.00    -0.216 N 
ATOM     19  H   UNL     1      -0.994   1.224   0.237  0.00  0.00    +0.174 HD
BRANCH  18  20
ATOM     20  S   UNL     1      -1.343   3.372   0.981  0.00  0.00    +0.073 S 
ATOM     21  O   UNL     1      -2.648   3.925   0.880  0.00  0.00    -0.150 OA
ATOM     22  O   UNL     1      -0.805   2.907   2.211  0.00  0.00    -0.150 OA
BRANCH  20  29
ATOM     23  C   UNL     1       1.646   2.977   0.732  0.00  0.00    +0.046 C 
ATOM     24  C   UNL     1       1.123   4.322   0.297  0.00  0.00    -0.024 A 
ATOM     25  C   UNL     1       1.996   5.281  -0.183  0.00  0.00    +0.005 A 
ATOM     26  C   UNL     1       1.517   6.517  -0.576  0.00  0.00    +0.004 A 
ATOM     27  C   UNL     1       0.165   6.792  -0.493  0.00  0.00    -0.040 A 
ATOM     28  C   UNL     1      -0.708   5.832  -0.018  0.00  0.00    +0.033 A 
ATOM     29  C   UNL     1      -0.230   4.596   0.375  0.00  0.00    +0.112 A 
BRANCH  27  30
ATOM     30  C   UNL     1      -0.357   8.140  -0.921  0.00  0.00    -0.013 C 
ATOM     31  C   UNL     1      -1.045   8.820   0.264  0.00  0.00    +0.015 C 
ATOM     32  C   UNL     1       0.808   9.008  -1.402  0.00  0.00    +0.015 C 
ATOM     33  C   UNL     1      -1.362   7.959  -2.060  0.00  0.00    +0.015 C 
ENDBRANCH  27  30
ENDBRANCH  20  29
ENDBRANCH  18  20
ENDBRANCH   1  18
TORSDOF 6
