REMARK  Name = ZINC23462421
REMARK  10 active torsions:
REMARK  status: ('A' for Active; 'I' for Inactive)
REMARK    1  A    between atoms: C_1  and  C_2
REMARK    2  A    between atoms: C_2  and  C_3
REMARK    3  A    between atoms: C_2  and  C_4
REMARK    4  A    between atoms: C_4  and  C_5
REMARK    5  A    between atoms: C_5  and  N_6
REMARK    6  A    between atoms: C_16  and  S_17
REMARK    7  A    between atoms: S_17  and  C_18
REMARK    8  A    between atoms: C_18  and  C_19
REMARK    9  A    between atoms: C_21  and  O_22
REMARK   10  A    between atoms: C_31  and  C_33
REMARK                            x       y       z     vdW  Elec       q    Type
REMARK                         _______ _______ _______ _____ _____    ______ ____
ROOT
ATOM      1  C   UNL     1       3.485   2.519   4.840  0.00  0.00    +0.113 C 
ENDROOT
BRANCH   1   2
ATOM      2  C   UNL     1       3.668   3.903   4.271  0.00  0.00    -0.020 A 
ATOM      3  C   UNL     1       4.314   4.090   3.066  0.00  0.00    +0.092 A 
ATOM      4  C   UNL     1       4.473   5.372   2.558  0.00  0.00    +0.285 A 
ATOM      5  O   UNL     1       4.011   6.442   3.212  0.00  0.00    -0.425 OA
ATOM      6  C   UNL     1       3.373   6.316   4.394  0.00  0.00    +0.141 A 
ATOM      7  C   UNL     1       3.178   5.035   4.956  0.00  0.00    +0.022 A 
ATOM      8  C   UNL     1       2.507   4.899   6.184  0.00  0.00    +0.013 A 
ATOM      9  C   UNL     1       2.042   6.001   6.829  0.00  0.00    +0.024 A 
ATOM     10  C   UNL     1       2.227   7.280   6.274  0.00  0.00    +0.037 A 
ATOM     11  C   UNL     1       2.900   7.432   5.061  0.00  0.00    +0.070 A 
ATOM     12  N   UNL     1       1.756   8.376   6.930  0.00  0.00    -0.286 N 
ATOM     13  C   UNL     1       1.637   9.525   6.293  0.00  0.00    +0.214 C 
ATOM     14  O   UNL     1       1.831   9.578   5.091  0.00  0.00    -0.276 OA
ATOM     15  C   UNL     1       1.261  10.772   7.051  0.00  0.00    +0.109 C 
ATOM     16  H   UNL     1       1.508   8.313   7.865  0.00  0.00    +0.155 HD
BRANCH   4  17
ATOM     17  O   UNL     1       5.106   5.541   1.381  0.00  0.00    -0.480 OA
ATOM     18  H   UNL     1       5.174   6.463   1.100  0.00  0.00    +0.295 HD
ENDBRANCH   4  17
ENDBRANCH   1   2
BRANCH   1  19
ATOM     19  S   UNL     1       2.184   1.654   3.918  0.00  0.00    -0.083 S 
BRANCH  19  30
ATOM     20  N   UNL     1       1.186  -0.832   4.219  0.00  0.00    -0.287 N 
ATOM     21  C   UNL     1       1.085  -2.059   4.781  0.00  0.00    +0.262 A 
ATOM     22  O   UNL     1       0.286  -2.879   4.367  0.00  0.00    -0.267 OA
ATOM     23  C   UNL     1       1.975  -2.364   5.910  0.00  0.00    +0.065 A 
ATOM     24  C   UNL     1       1.949  -3.599   6.556  0.00  0.00    +0.015 A 
ATOM     25  C   UNL     1       2.800  -3.830   7.601  0.00  0.00    +0.001 A 
ATOM     26  C   UNL     1       3.688  -2.850   8.024  0.00  0.00    +0.002 A 
ATOM     27  C   UNL     1       3.735  -1.631   7.409  0.00  0.00    +0.028 A 
ATOM     28  C   UNL     1       2.878  -1.363   6.337  0.00  0.00    +0.079 A 
ATOM     29  N   UNL     1       2.892  -0.175   5.701  0.00  0.00    -0.223 NA
ATOM     30  C   UNL     1       2.092   0.074   4.693  0.00  0.00    +0.172 A 
BRANCH  20  31
ATOM     31  C   UNL     1       0.323  -0.475   3.091  0.00  0.00    +0.127 C 
BRANCH  31  32
ATOM     32  C   UNL     1       1.012  -0.859   1.780  0.00  0.00    +0.025 C 
BRANCH  32  34
ATOM     33  C   UNL     1      -0.051   1.034   0.543  0.00  0.00    +0.007 C 
ATOM     34  C   UNL     1       0.110  -0.486   0.602  0.00  0.00    -0.016 C 
ATOM     35  C   UNL     1       0.742  -0.983  -0.701  0.00  0.00    +0.007 C 
ENDBRANCH  32  34
ENDBRANCH  31  32
ENDBRANCH  20  31
ENDBRANCH  19  30
ENDBRANCH   1  19
TORSDOF 7
