REMARK  Name = ZINC40385170
REMARK  6 active torsions:
REMARK  status: ('A' for Active; 'I' for Inactive)
REMARK    1  A    between atoms: C_1  and  C_2
REMARK    2  A    between atoms: C_5  and  S_7
REMARK    3  A    between atoms: S_7  and  N_10
REMARK    4  A    between atoms: N_10  and  C_11
REMARK    5  A    between atoms: C_16  and  S_17
REMARK    6  A    between atoms: S_17  and  N_20
REMARK                            x       y       z     vdW  Elec       q    Type
REMARK                         _______ _______ _______ _____ _____    ______ ____
ROOT
ATOM      1  C   UNL     1       1.783  -6.019  -1.933  0.00  0.00    +0.103 A 
ATOM      2  C   UNL     1       2.118  -6.911  -0.922  0.00  0.00    +0.067 A 
ATOM      3  C   UNL     1       2.595  -8.169  -1.242  0.00  0.00    +0.125 A 
ATOM      4  C   UNL     1       2.739  -8.539  -2.569  0.00  0.00    +0.040 A 
ATOM      5  C   UNL     1       2.406  -7.653  -3.577  0.00  0.00    +0.033 A 
ATOM      6  C   UNL     1       1.923  -6.397  -3.263  0.00  0.00    +0.130 A 
ATOM      7  F   UNL     1       2.922  -9.037  -0.260  0.00  0.00    -0.205 F 
ENDROOT
BRANCH   6   8
ATOM      8  S   UNL     1       1.492  -5.272  -4.549  0.00  0.00    +0.058 S 
ATOM      9  O   UNL     1       2.120  -4.036  -4.235  0.00  0.00    -0.153 OA
ATOM     10  O   UNL     1       1.719  -5.951  -5.776  0.00  0.00    -0.153 OA
BRANCH   8  11
ATOM     11  N   UNL     1      -0.140  -5.012  -4.445  0.00  0.00    -0.203 NA
ATOM     12  H   UNL     1      -0.659  -5.457  -3.757  0.00  0.00    +0.144 HD
ATOM     13  H   UNL     1      -0.577  -4.416  -5.073  0.00  0.00    +0.144 HD
ENDBRANCH   8  11
ENDBRANCH   6   8
BRANCH   1  14
ATOM     14  N   UNL     1       1.300  -4.748  -1.614  0.00  0.00    -0.095 NA
BRANCH  14  15
ATOM     15  S   UNL     1       1.134  -4.300  -0.029  0.00  0.00    +0.098 S 
ATOM     16  O   UNL     1       2.445  -4.240   0.516  0.00  0.00    -0.148 OA
ATOM     17  O   UNL     1       0.117  -5.126   0.522  0.00  0.00    -0.148 OA
BRANCH  15  22
ATOM     18  C   UNL     1      -0.018   1.503   0.010  0.00  0.00    +0.051 C 
ATOM     19  C   UNL     1       0.002  -0.004   0.002  0.00  0.00    -0.011 A 
ATOM     20  C   UNL     1      -1.039  -0.872   0.002  0.00  0.00    +0.013 A 
ATOM     21  C   UNL     1      -0.780  -2.230  -0.007  0.00  0.00    +0.037 A 
ATOM     22  C   UNL     1       0.507  -2.653  -0.016  0.00  0.00    +0.148 A 
ATOM     23  S   UNL     1       1.404  -1.109  -0.018  0.00  0.00    -0.073 S 
ENDBRANCH  15  22
ENDBRANCH  14  15
ENDBRANCH   1  14
TORSDOF 5
