REMARK  Name = ZINC44583877
REMARK  9 active torsions:
REMARK  status: ('A' for Active; 'I' for Inactive)
REMARK    1  A    between atoms: C_1  and  N_2
REMARK    2  A    between atoms: N_2  and  C_3
REMARK    3  A    between atoms: N_2  and  C_4
REMARK    4  A    between atoms: C_13  and  S_14
REMARK    5  A    between atoms: S_14  and  N_17
REMARK    6  A    between atoms: N_17  and  C_18
REMARK    7  A    between atoms: C_18  and  C_19
REMARK    8  A    between atoms: C_19  and  C_20
REMARK    9  A    between atoms: C_20  and  N_21
REMARK                            x       y       z     vdW  Elec       q    Type
REMARK                         _______ _______ _______ _____ _____    ______ ____
ROOT
ATOM      1  N   UNL     1      -6.314  -2.046   1.906  0.00  0.00    -0.190 NA
ATOM      2  H   UNL     1      -6.933  -1.655   2.542  0.00  0.00    +0.148 HD
ENDROOT
BRANCH   1   3
ATOM      3  S   UNL     1      -5.226  -3.190   2.405  0.00  0.00    +0.059 S 
ATOM      4  O   UNL     1      -5.339  -4.280   1.500  0.00  0.00    -0.153 OA
ATOM      5  O   UNL     1      -5.410  -3.341   3.806  0.00  0.00    -0.153 OA
BRANCH   3  15
ATOM      6  C   UNL     1      -1.527   0.304   3.428  0.00  0.00    +0.037 A 
ATOM      7  C   UNL     1      -2.412   0.886   4.311  0.00  0.00    +0.024 A 
ATOM      8  C   UNL     1      -3.686   0.356   4.494  0.00  0.00    +0.002 A 
ATOM      9  C   UNL     1      -4.093  -0.748   3.809  0.00  0.00    +0.010 A 
ATOM     10  C   UNL     1      -3.222  -1.371   2.900  0.00  0.00    +0.010 A 
ATOM     11  C   UNL     1      -1.925  -0.838   2.700  0.00  0.00    +0.005 A 
ATOM     12  C   UNL     1      -1.057  -1.458   1.788  0.00  0.00    +0.010 A 
ATOM     13  C   UNL     1      -1.474  -2.559   1.103  0.00  0.00    +0.003 A 
ATOM     14  C   UNL     1      -2.752  -3.080   1.294  0.00  0.00    +0.029 A 
ATOM     15  C   UNL     1      -3.616  -2.512   2.179  0.00  0.00    +0.113 A 
BRANCH   6  17
ATOM     16  C   UNL     1       0.858   0.380   4.086  0.00  0.00    +0.129 C 
ATOM     17  N   UNL     1      -0.254   0.842   3.252  0.00  0.00    -0.336 N 
ATOM     18  C   UNL     1      -0.028   1.870   2.233  0.00  0.00    +0.129 C 
ENDBRANCH   6  17
ENDBRANCH   3  15
ENDBRANCH   1   3
BRANCH   1  19
ATOM     19  C   UNL     1      -6.340  -1.623   0.503  0.00  0.00    +0.104 C 
BRANCH  19  20
ATOM     20  C   UNL     1      -7.652  -0.890   0.216  0.00  0.00    -0.002 C 
BRANCH  20  21
ATOM     21  C   UNL     1      -7.680  -0.449  -1.249  0.00  0.00    -0.077 C 
BRANCH  21  22
ATOM     22  N   UNL     1      -8.940   0.255  -1.525  0.00  0.00    +0.381 N 
ATOM     23  C   UNL     1     -10.064  -0.679  -1.379  0.00  0.00    -0.068 C 
ATOM     24  C   UNL     1     -10.791  -0.401  -0.061  0.00  0.00    +0.050 C 
ATOM     25  S   UNL     1     -12.579  -0.339  -0.359  0.00  0.00    -0.162 S 
ATOM     26  C   UNL     1     -13.051   1.337   0.151  0.00  0.00    +0.079 C 
ATOM     27  C   UNL     1     -13.694   2.067  -1.029  0.00  0.00    +0.080 C 
ATOM     28  S   UNL     1     -13.014   3.745  -1.145  0.00  0.00    -0.159 S 
ATOM     29  C   UNL     1     -12.357   3.838  -2.833  0.00  0.00    +0.080 C 
ATOM     30  C   UNL     1     -10.868   4.184  -2.783  0.00  0.00    +0.079 C 
ATOM     31  S   UNL     1      -9.956   3.098  -3.914  0.00  0.00    -0.162 S 
ATOM     32  C   UNL     1      -8.719   2.299  -2.854  0.00  0.00    +0.050 C 
ATOM     33  C   UNL     1      -8.916   0.782  -2.895  0.00  0.00    -0.068 C 
ATOM     34  H   UNL     1      -9.049   1.017  -0.873  0.00  0.00    -0.082 HD
ENDBRANCH  21  22
ENDBRANCH  20  21
ENDBRANCH  19  20
ENDBRANCH   1  19
TORSDOF 7
