REMARK  Name = ZINC20875142
REMARK  11 active torsions:
REMARK  status: ('A' for Active; 'I' for Inactive)
REMARK    1  A    between atoms: C_1  and  C_2
REMARK    2  A    between atoms: C_5  and  C_8
REMARK    3  A    between atoms: C_8  and  O_9
REMARK    4  A    between atoms: O_9  and  C_10
REMARK    5  A    between atoms: C_15  and  C_16
REMARK    6  A    between atoms: C_16  and  N_17
REMARK    7  A    between atoms: N_17  and  C_18
REMARK    8  A    between atoms: C_18  and  C_19
REMARK    9  A    between atoms: C_19  and  N_20
REMARK   10  A    between atoms: N_20  and  C_21
REMARK   11  A    between atoms: C_24  and  N_27
REMARK                            x       y       z     vdW  Elec       q    Type
REMARK                         _______ _______ _______ _____ _____    ______ ____
ROOT
ATOM      1  C   UNL     1      -2.553   3.879   0.046  0.00  0.00    -0.043 C 
ENDROOT
BRANCH   1   7
ATOM      2  C   UNL     1      -1.223   1.754   0.017  0.00  0.00    +0.122 A 
ATOM      3  C   UNL     1      -0.013   1.076   0.008  0.00  0.00    +0.047 A 
ATOM      4  C   UNL     1       1.174   1.783   0.000  0.00  0.00    +0.023 A 
ATOM      5  C   UNL     1       1.156   3.167   0.008  0.00  0.00    +0.041 A 
ATOM      6  C   UNL     1      -0.051   3.844   0.023  0.00  0.00    +0.025 A 
ATOM      7  C   UNL     1      -1.239   3.140   0.030  0.00  0.00    -0.021 A 
ATOM      8 CL   UNL     1       2.648   4.053  -0.002  0.00  0.00    -0.084 Cl
BRANCH   2   9
ATOM      9  O   UNL     1      -2.392   1.059   0.019  0.00  0.00    -0.487 OA
BRANCH   9  10
ATOM     10  C   UNL     1      -2.299  -0.367   0.011  0.00  0.00    +0.264 C 
BRANCH  10  15
ATOM     11  C   UNL     1      -7.611  -2.643   0.024  0.00  0.00    +0.044 C 
ATOM     12  C   UNL     1      -6.226  -2.049   0.020  0.00  0.00    -0.050 A 
ATOM     13  C   UNL     1      -5.596  -1.770  -1.178  0.00  0.00    +0.004 A 
ATOM     14  C   UNL     1      -4.325  -1.226  -1.181  0.00  0.00    +0.007 A 
ATOM     15  C   UNL     1      -3.684  -0.960   0.014  0.00  0.00    -0.010 A 
ATOM     16  C   UNL     1      -4.312  -1.244   1.213  0.00  0.00    +0.007 A 
ATOM     17  C   UNL     1      -5.584  -1.784   1.216  0.00  0.00    +0.004 A 
ENDBRANCH  10  15
ENDBRANCH   9  10
ENDBRANCH   2   9
ENDBRANCH   1   7
BRANCH   1  18
ATOM     18  N   UNL     1      -3.085   3.903   1.415  0.00  0.00    +0.383 N 
ATOM     19  H   UNL     1      -3.240   2.872   1.766  0.00  0.00    -0.085 HD
ATOM     20  H   UNL     1      -2.370   4.412   2.078  0.00  0.00    -0.085 HD
BRANCH  18  21
ATOM     21  C   UNL     1      -4.368   4.616   1.470  0.00  0.00    -0.063 C 
BRANCH  21  22
ATOM     22  C   UNL     1      -4.889   4.620   2.908  0.00  0.00    +0.082 C 
BRANCH  22  23
ATOM     23  N   UNL     1      -6.168   5.331   2.962  0.00  0.00    -0.346 N 
ATOM     24  H   UNL     1      -6.598   5.760   2.045  0.00  0.00    +0.146 HD
BRANCH  23  25
ATOM     25  C   UNL     1      -6.842   5.466   4.178  0.00  0.00    +0.027 A 
ATOM     26  C   UNL     1      -6.303   4.920   5.336  0.00  0.00    +0.025 A 
ATOM     27  C   UNL     1      -6.969   5.060   6.538  0.00  0.00    +0.034 A 
ATOM     28  C   UNL     1      -8.176   5.732   6.587  0.00  0.00    +0.126 A 
ATOM     29  C   UNL     1      -8.719   6.271   5.435  0.00  0.00    +0.034 A 
ATOM     30  C   UNL     1      -8.055   6.140   4.231  0.00  0.00    +0.025 A 
BRANCH  28  31
ATOM     31  N   UNL     1      -8.890   5.875   7.876  0.00  0.00    +0.056 N 
ATOM     32  O   UNL     1      -9.953   6.467   7.921  0.00  0.00    -0.126 OA
ATOM     33  O   UNL     1      -8.413   5.401   8.892  0.00  0.00    -0.126 OA
ENDBRANCH  28  31
ENDBRANCH  23  25
ENDBRANCH  22  23
ENDBRANCH  21  22
ENDBRANCH  18  21
ENDBRANCH   1  18
TORSDOF 10
