REMARK  Name = ZINC12374808
REMARK  5 active torsions:
REMARK  status: ('A' for Active; 'I' for Inactive)
REMARK    1  A    between atoms: C_3  and  C_7
REMARK    2  A    between atoms: C_9  and  C_29
REMARK    3  A    between atoms: C_22  and  C_23
REMARK    4  A    between atoms: C_22  and  C_25
REMARK    5  A    between atoms: C_29  and  C_31
REMARK                            x       y       z     vdW  Elec       q    Type
REMARK                         _______ _______ _______ _____ _____    ______ ____
ROOT
ATOM      1  C   UNL     1      -4.206   2.243  -1.089  0.00  0.00    +0.080 C 
ATOM      2  C   UNL     1      -4.092   1.660   0.346  0.00  0.00    +0.155 C 
ATOM      3  N   UNL     1      -5.210   0.712   0.422  0.00  0.00    -0.310 N 
ATOM      4  C   UNL     1      -5.610   0.256   1.657  0.00  0.00    +0.038 A 
ATOM      5  C   UNL     1      -4.830   0.341   2.793  0.00  0.00    +0.026 A 
ATOM      6  C   UNL     1      -5.311  -0.137   3.998  0.00  0.00    +0.040 A 
ATOM      7  C   UNL     1      -6.575  -0.703   4.076  0.00  0.00    +0.124 A 
ATOM      8  C   UNL     1      -7.369  -0.798   2.947  0.00  0.00    +0.048 A 
ATOM      9  C   UNL     1      -6.895  -0.324   1.731  0.00  0.00    -0.001 A 
ATOM     10  C   UNL     1      -7.704  -0.417   0.492  0.00  0.00    +0.007 C 
ATOM     11  C   UNL     1      -7.435   0.458  -0.494  0.00  0.00    -0.002 C 
ATOM     12  C   UNL     1      -6.333   1.438  -0.228  0.00  0.00    +0.127 C 
ATOM     13  C   UNL     1      -5.696   2.042  -1.482  0.00  0.00    +0.163 C 
ATOM     14  F   UNL     1      -7.033  -1.164   5.260  0.00  0.00    -0.205 F 
ENDROOT
BRANCH   1  17
ATOM     15  C   UNL     1      -2.623   5.558  -1.949  0.00  0.00    +0.020 A 
ATOM     16  C   UNL     1      -2.916   4.204  -1.984  0.00  0.00    +0.007 A 
ATOM     17  C   UNL     1      -3.852   3.708  -1.090  0.00  0.00    -0.022 A 
ATOM     18  C   UNL     1      -4.462   4.575  -0.203  0.00  0.00    +0.114 A 
ATOM     19  N   UNL     1      -4.154   5.857  -0.194  0.00  0.00    -0.263 NA
ATOM     20  C   UNL     1      -3.268   6.363  -1.030  0.00  0.00    +0.111 A 
ENDBRANCH   1  17
BRANCH  13  21
ATOM     21  C   UNL     1      -6.334   3.367  -1.813  0.00  0.00    +0.233 C 
ATOM     22  O   UNL     1      -7.151   3.852  -1.059  0.00  0.00    -0.274 OA
ATOM     23  N   UNL     1      -5.997   4.012  -2.947  0.00  0.00    -0.328 N 
ATOM     24  H   UNL     1      -5.344   3.624  -3.550  0.00  0.00    +0.145 HD
ATOM     25  H   UNL     1      -6.408   4.865  -3.160  0.00  0.00    +0.145 HD
ENDBRANCH  13  21
BRANCH  13  26
ATOM     26  C   UNL     1      -5.815   1.115  -2.619  0.00  0.00    +0.082 C 
ATOM     27  N   UNL     1      -5.907   0.400  -3.497  0.00  0.00    -0.195 NA
ENDBRANCH  13  26
BRANCH   2  28
ATOM     28  C   UNL     1      -2.777   0.946   0.526  0.00  0.00    +0.184 C 
ATOM     29  O   UNL     1      -2.720  -0.259   0.408  0.00  0.00    -0.290 OA
BRANCH  28  30
ATOM     30  C   UNL     1      -1.563   1.712   0.847  0.00  0.00    +0.019 A 
ATOM     31  C   UNL     1      -0.340   1.053   1.015  0.00  0.00    +0.013 A 
ATOM     32  C   UNL     1       0.794   1.777   1.309  0.00  0.00    +0.020 A 
ATOM     33  C   UNL     1       0.726   3.154   1.444  0.00  0.00    +0.041 A 
ATOM     34  C   UNL     1      -0.483   3.813   1.284  0.00  0.00    +0.020 A 
ATOM     35  C   UNL     1      -1.625   3.102   0.990  0.00  0.00    +0.013 A 
ATOM     36 CL   UNL     1       2.160   4.059   1.815  0.00  0.00    -0.084 Cl
ENDBRANCH  28  30
ENDBRANCH   2  28
TORSDOF 5
