REMARK  Name = ZINC67029159
REMARK  9 active torsions:
REMARK  status: ('A' for Active; 'I' for Inactive)
REMARK    1  A    between atoms: C_1  and  C_2
REMARK    2  A    between atoms: C_3  and  C_23
REMARK    3  A    between atoms: C_4  and  C_10
REMARK    4  A    between atoms: C_14  and  O_16
REMARK    5  A    between atoms: O_16  and  C_17
REMARK    6  A    between atoms: C_17  and  C_19
REMARK    7  A    between atoms: C_17  and  C_20
REMARK    8  A    between atoms: C_23  and  O_25
REMARK    9  A    between atoms: O_25  and  C_26
REMARK                            x       y       z     vdW  Elec       q    Type
REMARK                         _______ _______ _______ _____ _____    ______ ____
ROOT
ATOM      1  C   UNL     1       0.208   1.011   0.606  0.00  0.00    +0.061 C 
ATOM      2  C   UNL     1       0.199  -0.472   0.340  0.00  0.00    +0.019 C 
ATOM      3  C   UNL     1      -0.980  -1.132   0.299  0.00  0.00    +0.078 C 
ATOM      4  C   UNL     1      -0.944  -2.623   0.028  0.00  0.00    +0.141 C 
ATOM      5  N   UNL     1       0.382  -3.233  -0.170  0.00  0.00    -0.315 N 
ATOM      6  C   UNL     1       1.470  -2.441  -0.099  0.00  0.00    +0.135 C 
ATOM      7  S   UNL     1       3.017  -3.137  -0.326  0.00  0.00    -0.019 S 
ATOM      8  N   UNL     1       1.379  -1.126   0.139  0.00  0.00    -0.300 N 
ATOM      9  H   UNL     1       0.470  -4.183  -0.346  0.00  0.00    +0.149 HD
ATOM     10  H   UNL     1       2.200  -0.610   0.173  0.00  0.00    +0.154 HD
ENDROOT
BRANCH   4  11
ATOM     11  C   UNL     1      -1.766  -2.891  -1.206  0.00  0.00    -0.019 A 
ATOM     12  C   UNL     1      -1.224  -2.671  -2.459  0.00  0.00    +0.006 A 
ATOM     13  C   UNL     1      -1.976  -2.916  -3.593  0.00  0.00    +0.004 A 
ATOM     14  C   UNL     1      -3.272  -3.380  -3.477  0.00  0.00    +0.046 A 
ATOM     15  C   UNL     1      -3.818  -3.602  -2.221  0.00  0.00    +0.122 A 
ATOM     16  C   UNL     1      -3.059  -3.361  -1.085  0.00  0.00    +0.051 A 
BRANCH  15  17
ATOM     17  O   UNL     1      -5.093  -4.059  -2.105  0.00  0.00    -0.478 OA
BRANCH  17  18
ATOM     18  C   UNL     1      -5.771  -4.404  -3.314  0.00  0.00    +0.282 C 
ATOM     19  C   UNL     1      -6.402  -3.150  -3.921  0.00  0.00    +0.064 C 
BRANCH  18  20
ATOM     20  C   UNL     1      -6.849  -5.414  -3.014  0.00  0.00    +0.395 C 
ATOM     21  O   UNL     1      -7.081  -5.734  -1.861  0.00  0.00    -0.242 OA
ATOM     22  O   UNL     1      -7.489  -5.911  -3.925  0.00  0.00    -0.242 OA
ENDBRANCH  18  20
ENDBRANCH  17  18
ENDBRANCH  15  17
ENDBRANCH   4  11
BRANCH   3  23
ATOM     23  C   UNL     1      -2.204  -0.455   0.502  0.00  0.00    +0.338 C 
ATOM     24  O   UNL     1      -2.209   0.742   0.718  0.00  0.00    -0.245 OA
BRANCH  23  25
ATOM     25  O   UNL     1      -3.368  -1.137   0.456  0.00  0.00    -0.465 OA
ATOM     26  C   UNL     1      -4.567  -0.390   0.670  0.00  0.00    +0.280 C 
ENDBRANCH  23  25
ENDBRANCH   3  23
TORSDOF 6
