REMARK  Name = ZINC06197027
REMARK  10 active torsions:
REMARK  status: ('A' for Active; 'I' for Inactive)
REMARK    1  A    between atoms: C_1  and  C_2
REMARK    2  A    between atoms: C_2  and  O_3
REMARK    3  A    between atoms: O_3  and  C_4
REMARK    4  A    between atoms: C_11  and  C_16
REMARK    5  A    between atoms: C_16  and  C_18
REMARK    6  A    between atoms: C_16  and  N_69
REMARK    7  A    between atoms: N_22  and  C_23
REMARK    8  A    between atoms: C_23  and  C_24
REMARK    9  A    between atoms: C_27  and  O_30
REMARK   10  A    between atoms: O_30  and  C_31
REMARK                            x       y       z     vdW  Elec       q    Type
REMARK                         _______ _______ _______ _____ _____    ______ ____
ROOT
ATOM      1  C   UNL     1       2.719   0.982   2.395  0.00  0.00    +0.039 C 
ENDROOT
BRANCH   1   9
ATOM      2  C   UNL     1       3.726  -5.104   3.015  0.00  0.00    +0.121 A 
ATOM      3  C   UNL     1       5.061  -5.075   2.621  0.00  0.00    +0.047 A 
ATOM      4  C   UNL     1       5.664  -3.889   2.267  0.00  0.00    +0.030 A 
ATOM      5  C   UNL     1       4.937  -2.703   2.300  0.00  0.00    +0.049 A 
ATOM      6  C   UNL     1       3.587  -2.727   2.698  0.00  0.00    +0.002 A 
ATOM      7  C   UNL     1       2.986  -3.939   3.056  0.00  0.00    +0.055 A 
ATOM      8  C   UNL     1       2.835  -1.471   2.735  0.00  0.00    +0.017 A 
ATOM      9  C   UNL     1       3.466  -0.327   2.373  0.00  0.00    +0.011 A 
ATOM     10  C   UNL     1       4.822  -0.357   1.981  0.00  0.00    +0.251 A 
ATOM     11  O   UNL     1       5.371   0.684   1.664  0.00  0.00    -0.268 OA
ATOM     12  N   UNL     1       5.522  -1.504   1.949  0.00  0.00    -0.322 N 
ATOM     13  H   UNL     1       6.481  -1.488   1.667  0.00  0.00    +0.169 HD
BRANCH   2  14
ATOM     14  O   UNL     1       3.148  -6.284   3.362  0.00  0.00    -0.492 OA
BRANCH  14  16
ATOM     15  C   UNL     1       3.151  -8.674   3.721  0.00  0.00    +0.048 C 
ATOM     16  C   UNL     1       3.969  -7.452   3.298  0.00  0.00    +0.225 C 
ENDBRANCH  14  16
ENDBRANCH   2  14
ENDBRANCH   1   9
BRANCH   1  26
ATOM     17  C   UNL     1       3.658   1.476   4.573  0.00  0.00    -0.072 C 
ATOM     18  C   UNL     1       4.732   2.334   5.244  0.00  0.00    +0.017 C 
ATOM     19  C   UNL     1       4.412   3.795   5.061  0.00  0.00    -0.048 A 
ATOM     20  C   UNL     1       5.048   4.719   5.876  0.00  0.00    +0.004 A 
ATOM     21  C   UNL     1       4.790   6.067   5.735  0.00  0.00    +0.000 A 
ATOM     22  C   UNL     1       3.892   6.500   4.777  0.00  0.00    +0.000 A 
ATOM     23  C   UNL     1       3.256   5.581   3.967  0.00  0.00    +0.002 A 
ATOM     24  C   UNL     1       3.513   4.225   4.108  0.00  0.00    -0.061 A 
ATOM     25  C   UNL     1       2.792   3.260   3.203  0.00  0.00    -0.041 C 
ATOM     26  N   UNL     1       3.490   1.964   3.189  0.00  0.00    +0.392 N 
ATOM     27  H   UNL     1       4.416   2.086   2.762  0.00  0.00    -0.080 HD
ENDBRANCH   1  26
BRANCH   1  28
ATOM     28  C   UNL     1       2.568   1.497   0.987  0.00  0.00    +0.143 A 
ATOM     29  N   UNL     1       3.531   1.894   0.191  0.00  0.00    -0.115 NA
ATOM     30  N   UNL     1       2.999   2.266  -0.922  0.00  0.00    -0.023 NA
ATOM     31  N   UNL     1       1.722   2.112  -0.859  0.00  0.00    -0.044 NA
ATOM     32  N   UNL     1       1.418   1.637   0.301  0.00  0.00    -0.226 N 
BRANCH  32  33
ATOM     33  C   UNL     1       0.073   1.316   0.784  0.00  0.00    +0.182 C 
BRANCH  33  34
ATOM     34  C   UNL     1      -0.321  -0.056   0.300  0.00  0.00    -0.026 A 
ATOM     35  C   UNL     1      -0.848  -0.215  -0.968  0.00  0.00    +0.009 A 
ATOM     36  C   UNL     1      -1.205  -1.472  -1.417  0.00  0.00    +0.046 A 
ATOM     37  C   UNL     1      -1.044  -2.574  -0.589  0.00  0.00    +0.120 A 
ATOM     38  C   UNL     1      -0.520  -2.410   0.685  0.00  0.00    +0.046 A 
ATOM     39  C   UNL     1      -0.160  -1.152   1.127  0.00  0.00    +0.009 A 
BRANCH  37  40
ATOM     40  O   UNL     1      -1.399  -3.811  -1.026  0.00  0.00    -0.495 OA
ATOM     41  C   UNL     1      -1.931  -3.903  -2.349  0.00  0.00    +0.277 C 
ENDBRANCH  37  40
ENDBRANCH  33  34
ENDBRANCH  32  33
ENDBRANCH   1  28
TORSDOF 8
