REMARK  Name = ZINC17146977
REMARK  5 active torsions:
REMARK  status: ('A' for Active; 'I' for Inactive)
REMARK    1  A    between atoms: C_10  and  C_11
REMARK    2  A    between atoms: C_13  and  C_17
REMARK    3  A    between atoms: C_17  and  N_19
REMARK    4  A    between atoms: N_20  and  C_21
REMARK    5  A    between atoms: C_30  and  O_31
REMARK                            x       y       z     vdW  Elec       q    Type
REMARK                         _______ _______ _______ _____ _____    ______ ____
ROOT
ATOM      1  C   UNL     1       8.403   0.942   0.809  0.00  0.00    +0.305 C 
ATOM      2  O   UNL     1       8.842   0.107   1.579  0.00  0.00    -0.265 OA
ENDROOT
BRANCH   1   5
ATOM      3  C   UNL     1       4.946   0.134  -0.044  0.00  0.00    +0.067 A 
ATOM      4  C   UNL     1       6.086  -0.178   0.645  0.00  0.00    +0.062 A 
ATOM      5  C   UNL     1       7.014   0.832   0.315  0.00  0.00    +0.151 A 
ATOM      6  N   UNL     1       6.413   1.661  -0.517  0.00  0.00    -0.169 NA
ATOM      7  N   UNL     1       5.210   1.275  -0.746  0.00  0.00    -0.276 N 
ATOM      8  H   UNL     1       4.581   1.727  -1.330  0.00  0.00    +0.189 HD
BRANCH   3  18
ATOM      9  C   UNL     1      -0.016   1.357   0.009  0.00  0.00    +0.001 A 
ATOM     10  C   UNL     1       1.168   2.090   0.002  0.00  0.00    +0.001 A 
ATOM     11  C   UNL     1       2.379   1.464  -0.013  0.00  0.00    +0.009 A 
ATOM     12  C   UNL     1       2.436   0.064  -0.021  0.00  0.00    -0.009 A 
ATOM     13  C   UNL     1       1.233  -0.683  -0.013  0.00  0.00    -0.017 A 
ATOM     14  C   UNL     1       0.002  -0.004   0.002  0.00  0.00    +0.008 A 
ATOM     15  C   UNL     1       1.289  -2.087  -0.021  0.00  0.00    +0.008 A 
ATOM     16  C   UNL     1       2.494  -2.723  -0.035  0.00  0.00    +0.001 A 
ATOM     17  C   UNL     1       3.685  -2.006  -0.043  0.00  0.00    +0.010 A 
ATOM     18  C   UNL     1       3.676  -0.621  -0.036  0.00  0.00    +0.008 A 
ENDBRANCH   3  18
ENDBRANCH   1   5
BRANCH   1  19
ATOM     19  N   UNL     1       9.182   1.966   0.408  0.00  0.00    -0.074 NA
ATOM     20  N   UNL     1      10.394   2.061   0.840  0.00  0.00    -0.151 NA
BRANCH  20  21
ATOM     21  C   UNL     1      11.167   3.076   0.443  0.00  0.00    +0.152 A 
ATOM     22  C   UNL     1      12.569   3.331   0.833  0.00  0.00    +0.032 A 
ATOM     23  C   UNL     1      13.471   2.671   1.661  0.00  0.00    +0.027 A 
ATOM     24  C   UNL     1      14.745   3.175   1.824  0.00  0.00    +0.019 A 
ATOM     25  C   UNL     1      15.125   4.335   1.165  0.00  0.00    +0.017 A 
ATOM     26  C   UNL     1      14.239   4.997   0.342  0.00  0.00    +0.027 A 
ATOM     27  C   UNL     1      12.952   4.504   0.166  0.00  0.00    +0.051 A 
ATOM     28  N   UNL     1      11.871   4.944  -0.581  0.00  0.00    -0.324 N 
ATOM     29  H   UNL     1      11.872   5.739  -1.138  0.00  0.00    +0.169 HD
ATOM     30  C   UNL     1      10.815   4.110  -0.432  0.00  0.00    +0.219 A 
ATOM     31 BR   UNL     1      15.976   2.284   2.949  0.00  0.00    -0.050 Br
BRANCH  30  32
ATOM     32  O   UNL     1       9.613   4.255  -1.028  0.00  0.00    -0.492 OA
ATOM     33  H   UNL     1       8.981   4.779  -0.518  0.00  0.00    +0.294 HD
ENDBRANCH  30  32
ENDBRANCH  20  21
ENDBRANCH   1  19
TORSDOF 5
