REMARK  Name = ZINC36781422
REMARK  8 active torsions:
REMARK  status: ('A' for Active; 'I' for Inactive)
REMARK    1  A    between atoms: C_1  and  C_2
REMARK    2  A    between atoms: C_2  and  C_3
REMARK    3  A    between atoms: C_2  and  N_4
REMARK    4  A    between atoms: C_5  and  C_7
REMARK    5  A    between atoms: C_7  and  N_8
REMARK    6  A    between atoms: N_8  and  S_9
REMARK    7  A    between atoms: S_9  and  C_12
REMARK    8  A    between atoms: C_13  and  N_20
REMARK                            x       y       z     vdW  Elec       q    Type
REMARK                         _______ _______ _______ _____ _____    ______ ____
ROOT
ATOM      1  S   UNL     1       0.389  -2.624   6.803  0.00  0.00    +0.062 S 
ATOM      2  O   UNL     1      -0.451  -2.600   7.949  0.00  0.00    -0.153 OA
ATOM      3  O   UNL     1       0.990  -3.819   6.324  0.00  0.00    -0.153 OA
ENDROOT
BRANCH   1   4
ATOM      4  C   UNL     1       1.701  -1.491   7.117  0.00  0.00    +0.140 A 
ATOM      5  C   UNL     1       2.934  -1.666   6.502  0.00  0.00    +0.053 A 
ATOM      6  C   UNL     1       3.965  -0.771   6.751  0.00  0.00    +0.040 A 
ATOM      7  C   UNL     1       3.763   0.292   7.611  0.00  0.00    +0.021 A 
ATOM      8  C   UNL     1       2.535   0.464   8.223  0.00  0.00    +0.032 A 
ATOM      9  C   UNL     1       1.503  -0.423   7.972  0.00  0.00    +0.047 A 
ATOM     10 BR   UNL     1      -0.177  -0.179   8.805  0.00  0.00    -0.048 Br
ATOM     11 BR   UNL     1       5.168   1.512   7.952  0.00  0.00    -0.050 Br
BRANCH   5  12
ATOM     12  N   UNL     1       3.135  -2.742   5.633  0.00  0.00    -0.356 N 
ATOM     13  H   UNL     1       2.380  -3.144   5.177  0.00  0.00    +0.142 HD
ATOM     14  H   UNL     1       4.030  -3.086   5.487  0.00  0.00    +0.142 HD
ENDBRANCH   5  12
ENDBRANCH   1   4
BRANCH   1  15
ATOM     15  N   UNL     1      -0.502  -2.007   5.551  0.00  0.00    -0.181 NA
ATOM     16  H   UNL     1      -1.421  -1.734   5.698  0.00  0.00    +0.149 HD
BRANCH  15  17
ATOM     17  C   UNL     1       0.098  -1.874   4.221  0.00  0.00    +0.201 C 
BRANCH  17  19
ATOM     18  N   UNL     1      -0.668  -1.497   1.900  0.00  0.00    -0.312 N 
ATOM     19  C   UNL     1      -0.987  -1.649   3.200  0.00  0.00    +0.229 C 
ATOM     20  O   UNL     1      -2.148  -1.604   3.549  0.00  0.00    -0.274 OA
ATOM     21  H   UNL     1       0.260  -1.533   1.621  0.00  0.00    +0.149 HD
BRANCH  18  23
ATOM     22  C   UNL     1      -2.064   0.212   0.846  0.00  0.00    +0.027 C 
ATOM     23  C   UNL     1      -1.723  -1.278   0.907  0.00  0.00    +0.067 C 
ATOM     24  C   UNL     1      -1.237  -1.747  -0.466  0.00  0.00    +0.027 C 
ENDBRANCH  18  23
ENDBRANCH  17  19
ENDBRANCH  15  17
ENDBRANCH   1  15
TORSDOF 6
