REMARK  Name = ZINC43047497
REMARK  9 active torsions:
REMARK  status: ('A' for Active; 'I' for Inactive)
REMARK    1  A    between atoms: C_1  and  C_2
REMARK    2  A    between atoms: C_5  and  S_8
REMARK    3  A    between atoms: S_8  and  N_11
REMARK    4  A    between atoms: N_11  and  C_12
REMARK    5  A    between atoms: N_11  and  C_13
REMARK    6  A    between atoms: C_13  and  C_14
REMARK    7  A    between atoms: N_16  and  N_17
REMARK    8  A    between atoms: N_20  and  C_21
REMARK    9  A    between atoms: C_27  and  C_29
REMARK                            x       y       z     vdW  Elec       q    Type
REMARK                         _______ _______ _______ _____ _____    ______ ____
ROOT
ATOM      1  C   UNL     1       3.089  -3.942  -1.678  0.00  0.00    +0.245 C 
ATOM      2  O   UNL     1       3.042  -2.974  -0.950  0.00  0.00    -0.273 OA
ATOM      3  N   UNL     1       3.805  -3.894  -2.819  0.00  0.00    -0.232 N 
ATOM      4  H   UNL     1       3.843  -4.668  -3.401  0.00  0.00    +0.173 HD
ENDROOT
BRANCH   3   5
ATOM      5  N   UNL     1       4.496  -2.724  -3.163  0.00  0.00    -0.218 N 
ATOM      6  C   UNL     1       5.212  -2.676  -4.304  0.00  0.00    +0.316 C 
ATOM      7  O   UNL     1       5.811  -1.661  -4.603  0.00  0.00    -0.251 OA
ATOM      8  N   UNL     1       5.264  -3.752  -5.113  0.00  0.00    -0.295 N 
ATOM      9  H   UNL     1       4.458  -1.950  -2.581  0.00  0.00    +0.174 HD
ATOM     10  H   UNL     1       4.786  -4.562  -4.875  0.00  0.00    +0.151 HD
BRANCH   8  11
ATOM     11  C   UNL     1       6.043  -3.700  -6.353  0.00  0.00    +0.077 C 
ATOM     12  C   UNL     1       5.190  -3.087  -7.466  0.00  0.00    +0.022 C 
ATOM     13  C   UNL     1       3.942  -3.946  -7.683  0.00  0.00    +0.002 C 
ATOM     14  C   UNL     1       4.362  -5.363  -8.082  0.00  0.00    +0.000 C 
ATOM     15  C   UNL     1       5.215  -5.975  -6.970  0.00  0.00    +0.005 C 
ATOM     16  C   UNL     1       6.463  -5.116  -6.752  0.00  0.00    +0.006 C 
ATOM     17  C   UNL     1       7.316  -5.728  -5.640  0.00  0.00    +0.009 C 
ENDBRANCH   8  11
ENDBRANCH   3   5
BRANCH   1  18
ATOM     18  C   UNL     1       2.346  -5.200  -1.308  0.00  0.00    +0.206 C 
BRANCH  18  19
ATOM     19  N   UNL     1       1.651  -4.999  -0.034  0.00  0.00    -0.171 NA
ATOM     20  C   UNL     1       2.360  -5.214   1.229  0.00  0.00    +0.132 C 
BRANCH  19  21
ATOM     21  S   UNL     1       0.063  -4.530  -0.023  0.00  0.00    +0.061 S 
ATOM     22  O   UNL     1      -0.476  -4.950   1.223  0.00  0.00    -0.153 OA
ATOM     23  O   UNL     1      -0.490  -4.937  -1.267  0.00  0.00    -0.153 OA
BRANCH  21  28
ATOM     24  C   UNL     1      -0.018   1.503   0.010  0.00  0.00    +0.044 C 
ATOM     25  C   UNL     1       0.002  -0.004   0.002  0.00  0.00    -0.050 A 
ATOM     26  C   UNL     1       0.006  -0.689  -1.199  0.00  0.00    +0.005 A 
ATOM     27  C   UNL     1       0.025  -2.071  -1.206  0.00  0.00    +0.029 A 
ATOM     28  C   UNL     1       0.040  -2.768  -0.013  0.00  0.00    +0.105 A 
ATOM     29  C   UNL     1       0.037  -2.084   1.188  0.00  0.00    +0.029 A 
ATOM     30  C   UNL     1       0.023  -0.702   1.195  0.00  0.00    +0.005 A 
ENDBRANCH  21  28
ENDBRANCH  19  21
ENDBRANCH  18  19
ENDBRANCH   1  18
TORSDOF 6
