REMARK  Name = ZINC04600962
REMARK  7 active torsions:
REMARK  status: ('A' for Active; 'I' for Inactive)
REMARK    1  A    between atoms: C_2  and  C_3
REMARK    2  A    between atoms: C_3  and  N_4
REMARK    3  A    between atoms: C_8  and  C_10
REMARK    4  A    between atoms: C_10  and  N_11
REMARK    5  A    between atoms: C_14  and  C_18
REMARK    6  A    between atoms: C_14  and  C_25
REMARK    7  A    between atoms: C_18  and  C_19
REMARK                            x       y       z     vdW  Elec       q    Type
REMARK                         _______ _______ _______ _____ _____    ______ ____
ROOT
ATOM      1  N   UNL     1       1.474   0.922  -3.227  0.00  0.00    -0.215 N 
ATOM      2  C   UNL     1       1.831   0.086  -2.232  0.00  0.00    +0.252 C 
ATOM      3  O   UNL     1       1.376  -1.014  -2.001  0.00  0.00    -0.272 OA
ATOM      4  C   UNL     1       2.922   0.806  -1.464  0.00  0.00    +0.142 C 
ATOM      5  N   UNL     1       3.065   2.084  -2.182  0.00  0.00    -0.281 N 
ATOM      6  C   UNL     1       2.179   2.058  -3.194  0.00  0.00    +0.310 C 
ATOM      7  O   UNL     1       2.035   2.966  -3.989  0.00  0.00    -0.252 OA
ATOM      8  H   UNL     1       3.679   2.804  -1.967  0.00  0.00    +0.152 HD
ENDROOT
BRANCH   4   9
ATOM      9  C   UNL     1       4.210   0.025  -1.508  0.00  0.00    -0.015 A 
ATOM     10  C   UNL     1       4.513  -0.867  -0.496  0.00  0.00    +0.006 A 
ATOM     11  C   UNL     1       5.692  -1.586  -0.539  0.00  0.00    +0.000 A 
ATOM     12  C   UNL     1       6.574  -1.406  -1.589  0.00  0.00    +0.000 A 
ATOM     13  C   UNL     1       6.273  -0.511  -2.598  0.00  0.00    +0.000 A 
ATOM     14  C   UNL     1       5.091   0.205  -2.557  0.00  0.00    +0.006 A 
ENDBRANCH   4   9
BRANCH   1  15
ATOM     15  C   UNL     1       0.441   0.623  -4.221  0.00  0.00    +0.214 C 
BRANCH  15  20
ATOM     16  N   UNL     1       0.101  -1.421  -8.559  0.00  0.00    -0.296 N 
ATOM     17  C   UNL     1       0.865  -1.050  -7.513  0.00  0.00    +0.306 C 
ATOM     18  O   UNL     1       2.061  -1.269  -7.525  0.00  0.00    -0.252 OA
ATOM     19  N   UNL     1       0.304  -0.435  -6.453  0.00  0.00    -0.239 N 
ATOM     20  C   UNL     1       1.068  -0.064  -5.407  0.00  0.00    +0.238 C 
ATOM     21  O   UNL     1       2.261  -0.282  -5.419  0.00  0.00    -0.274 OA
ATOM     22  H   UNL     1      -0.853  -1.246  -8.549  0.00  0.00    +0.151 HD
ATOM     23  H   UNL     1      -0.650  -0.260  -6.443  0.00  0.00    +0.159 HD
BRANCH  16  24
ATOM     24  C   UNL     1       0.711  -2.089  -9.711  0.00  0.00    +0.132 C 
BRANCH  24  26
ATOM     25  C   UNL     1      -0.217  -1.972 -11.966  0.00  0.00    +0.005 C 
ATOM     26  C   UNL     1      -0.351  -2.397 -10.735  0.00  0.00    -0.016 C 
ENDBRANCH  24  26
ENDBRANCH  16  24
ENDBRANCH  15  20
ENDBRANCH   1  15
BRANCH   4  27
ATOM     27  C   UNL     1       2.490   1.048  -0.016  0.00  0.00    +0.075 C 
BRANCH  27  28
ATOM     28  C   UNL     1       1.175   1.783   0.000  0.00  0.00    -0.045 A 
ATOM     29  C   UNL     1      -0.013   1.076   0.008  0.00  0.00    +0.004 A 
ATOM     30  C   UNL     1      -1.219   1.751   0.017  0.00  0.00    +0.000 A 
ATOM     31  C   UNL     1      -1.238   3.133   0.029  0.00  0.00    +0.000 A 
ATOM     32  C   UNL     1      -0.050   3.840   0.022  0.00  0.00    +0.000 A 
ATOM     33  C   UNL     1       1.156   3.165   0.008  0.00  0.00    +0.004 A 
ENDBRANCH  27  28
ENDBRANCH   4  27
TORSDOF 7
