REMARK  Name = ZINC35567482
REMARK  21 active torsions:
REMARK  status: ('A' for Active; 'I' for Inactive)
REMARK    1  A    between atoms: C_1  and  C_2
REMARK    2  A    between atoms: C_2  and  N_3
REMARK    3  A    between atoms: N_3  and  C_4
REMARK    4  A    between atoms: N_3  and  C_6
REMARK    5  A    between atoms: C_4  and  C_5
REMARK    6  A    between atoms: C_6  and  C_7
REMARK    7  A    between atoms: C_7  and  N_8
REMARK    8  A    between atoms: C_9  and  C_25
REMARK    9  A    between atoms: C_11  and  C_16
REMARK   10  A    between atoms: C_16  and  C_18
REMARK   11  A    between atoms: C_19  and  C_24
REMARK   12  A    between atoms: C_21  and  C_23
REMARK   13  A    between atoms: C_27  and  C_36
REMARK   14  A    between atoms: C_28  and  O_35
REMARK   15  A    between atoms: C_29  and  C_31
REMARK   16  A    between atoms: C_31  and  C_32
REMARK   17  A    between atoms: C_31  and  C_33
REMARK   18  A    between atoms: C_31  and  C_34
REMARK   19  A    between atoms: C_36  and  C_37
REMARK   20  A    between atoms: C_36  and  C_38
REMARK   21  A    between atoms: C_36  and  C_39
REMARK                            x       y       z     vdW  Elec       q    Type
REMARK                         _______ _______ _______ _____ _____    ______ ____
ROOT
ATOM      1  N   UNL     1      -0.448  -4.780  -3.226  0.00  0.00    -0.285 N 
ATOM      2  C   UNL     1      -0.104  -4.872  -4.650  0.00  0.00    +0.145 C 
ATOM      3  C   UNL     1      -0.775  -6.124  -5.165  0.00  0.00    +0.077 C 
ATOM      4  C   UNL     1      -1.431  -6.674  -4.118  0.00  0.00    +0.249 C 
ATOM      5  C   UNL     1      -1.219  -5.838  -2.918  0.00  0.00    +0.288 C 
ATOM      6  O   UNL     1      -1.677  -6.071  -1.817  0.00  0.00    -0.266 OA
ATOM      7  O   UNL     1      -2.162  -7.812  -4.161  0.00  0.00    -0.282 OA
ENDROOT
BRANCH   2   8
ATOM      8  C   UNL     1       1.391  -4.977  -4.816  0.00  0.00    -0.022 A 
ATOM      9  C   UNL     1       2.107  -3.905  -5.314  0.00  0.00    +0.013 A 
ATOM     10  C   UNL     1       3.476  -3.999  -5.468  0.00  0.00    +0.000 A 
ATOM     11  C   UNL     1       4.133  -5.171  -5.122  0.00  0.00    +0.124 A 
ATOM     12  C   UNL     1       3.412  -6.245  -4.622  0.00  0.00    +0.000 A 
ATOM     13  C   UNL     1       2.043  -6.144  -4.465  0.00  0.00    +0.013 A 
BRANCH  12  14
ATOM     14  C   UNL     1       4.122  -7.520  -4.245  0.00  0.00    -0.009 C 
ATOM     15  C   UNL     1       3.109  -8.525  -3.694  0.00  0.00    +0.015 C 
ATOM     16  C   UNL     1       4.803  -8.109  -5.482  0.00  0.00    +0.015 C 
ATOM     17  C   UNL     1       5.176  -7.220  -3.177  0.00  0.00    +0.015 C 
ENDBRANCH  12  14
BRANCH  10  18
ATOM     18  C   UNL     1       4.256  -2.830  -6.012  0.00  0.00    -0.009 C 
ATOM     19  C   UNL     1       3.300  -1.673  -6.311  0.00  0.00    +0.015 C 
ATOM     20  C   UNL     1       5.291  -2.381  -4.978  0.00  0.00    +0.015 C 
ATOM     21  C   UNL     1       4.970  -3.247  -7.300  0.00  0.00    +0.015 C 
ENDBRANCH  10  18
BRANCH  11  22
ATOM     22  O   UNL     1       5.480  -5.266  -5.273  0.00  0.00    -0.506 OA
ATOM     23  H   UNL     1       5.984  -4.987  -4.496  0.00  0.00    +0.292 HD
ENDBRANCH  11  22
ENDBRANCH   2   8
BRANCH   3  24
ATOM     24  C   UNL     1      -0.725  -6.643  -6.537  0.00  0.00    +0.203 C 
ATOM     25  O   UNL     1      -1.202  -7.734  -6.793  0.00  0.00    -0.286 OA
BRANCH  24  26
ATOM     26  C   UNL     1      -0.099  -5.848  -7.599  0.00  0.00    +0.082 A 
ATOM     27  C   UNL     1       0.209  -6.199  -8.908  0.00  0.00    +0.057 A 
ATOM     28  N   UNL     1       0.771  -5.271  -9.640  0.00  0.00    -0.249 NA
ATOM     29  C   UNL     1       1.028  -4.075  -9.160  0.00  0.00    +0.076 A 
ATOM     30  S   UNL     1       0.472  -4.156  -7.574  0.00  0.00    -0.069 S 
ATOM     31  C   UNL     1       1.665  -2.905  -9.865  0.00  0.00    +0.073 C 
ATOM     32  C   UNL     1      -0.088  -7.572  -9.454  0.00  0.00    +0.067 C 
ENDBRANCH  24  26
ENDBRANCH   3  24
BRANCH   1  33
ATOM     33  C   UNL     1      -0.021  -3.726  -2.302  0.00  0.00    +0.090 C 
BRANCH  33  34
ATOM     34  C   UNL     1       1.306  -4.124  -1.652  0.00  0.00    -0.060 C 
BRANCH  34  35
ATOM     35  N   UNL     1       1.734  -3.067  -0.726  0.00  0.00    +0.380 N 
ATOM     36  H   UNL     1       1.774  -2.186  -1.216  0.00  0.00    -0.082 HD
BRANCH  35  38
ATOM     37  C   UNL     1       0.603  -4.342   1.034  0.00  0.00    -0.017 C 
ATOM     38  C   UNL     1       0.773  -2.969   0.381  0.00  0.00    -0.082 C 
ENDBRANCH  35  38
BRANCH  35  39
ATOM     39  C   UNL     1       3.063  -3.392  -0.193  0.00  0.00    -0.082 C 
ATOM     40  C   UNL     1       3.557  -2.240   0.684  0.00  0.00    -0.017 C 
ENDBRANCH  35  39
ENDBRANCH  34  35
ENDBRANCH  33  34
ENDBRANCH   1  33
TORSDOF 11
