REMARK  Name = ZINC59333848
REMARK  9 active torsions:
REMARK  status: ('A' for Active; 'I' for Inactive)
REMARK    1  A    between atoms: C_1  and  C_2
REMARK    2  A    between atoms: C_7  and  S_29
REMARK    3  A    between atoms: C_12  and  C_14
REMARK    4  A    between atoms: C_14  and  N_15
REMARK    5  A    between atoms: N_15  and  C_16
REMARK    6  A    between atoms: N_15  and  C_19
REMARK    7  A    between atoms: C_19  and  C_21
REMARK    8  A    between atoms: C_19  and  C_22
REMARK    9  A    between atoms: S_29  and  N_32
REMARK                            x       y       z     vdW  Elec       q    Type
REMARK                         _______ _______ _______ _____ _____    ______ ____
ROOT
ATOM      1  C   UNL     1      -0.589   0.818  -0.120  0.00  0.00    +0.029 C 
ATOM      2  C   UNL     1      -0.216  -0.658   0.031  0.00  0.00    +0.083 C 
ATOM      3  C   UNL     1       0.610  -1.125  -1.178  0.00  0.00    +0.059 C 
ATOM      4  C   UNL     1       1.935  -1.556  -0.591  0.00  0.00    -0.022 A 
ATOM      5  C   UNL     1       3.071  -2.064  -1.192  0.00  0.00    +0.034 A 
ATOM      6  C   UNL     1       4.176  -2.388  -0.427  0.00  0.00    +0.105 A 
ATOM      7  C   UNL     1       4.143  -2.202   0.943  0.00  0.00    +0.030 A 
ATOM      8  C   UNL     1       3.012  -1.695   1.547  0.00  0.00    +0.026 A 
ATOM      9  C   UNL     1       1.892  -1.366   0.781  0.00  0.00    +0.040 A 
ATOM     10  N   UNL     1       0.659  -0.845   1.192  0.00  0.00    -0.270 N 
ATOM     11  C   UNL     1       0.325  -0.558   2.465  0.00  0.00    +0.204 C 
ATOM     12  O   UNL     1      -0.773  -0.107   2.717  0.00  0.00    -0.277 OA
ENDROOT
BRANCH   6  13
ATOM     13  S   UNL     1       5.623  -3.037  -1.196  0.00  0.00    +0.056 S 
ATOM     14  O   UNL     1       6.319  -3.769  -0.198  0.00  0.00    -0.153 OA
ATOM     15  O   UNL     1       5.203  -3.626  -2.419  0.00  0.00    -0.153 OA
BRANCH  13  16
ATOM     16  N   UNL     1       6.584  -1.749  -1.596  0.00  0.00    -0.204 NA
ATOM     17  H   UNL     1       6.294  -0.846  -1.392  0.00  0.00    +0.144 HD
ATOM     18  H   UNL     1       7.437  -1.898  -2.034  0.00  0.00    +0.144 HD
ENDBRANCH  13  16
ENDBRANCH   6  13
BRANCH  11  19
ATOM     19  C   UNL     1       1.315  -0.795   3.576  0.00  0.00    +0.020 C 
BRANCH  19  20
ATOM     20  N   UNL     1       0.723  -0.383   4.856  0.00  0.00    +0.392 N 
ATOM     21  H   UNL     1       1.354  -0.616   5.609  0.00  0.00    -0.080 HD
BRANCH  20  22
ATOM     22  C   UNL     1      -0.554  -1.081   5.053  0.00  0.00    -0.067 C 
ATOM     23  C   UNL     1      -0.789  -1.756   6.406  0.00  0.00    -0.017 C 
ATOM     24  C   UNL     1      -0.515  -2.607   5.164  0.00  0.00    -0.017 C 
ENDBRANCH  20  22
BRANCH  20  25
ATOM     25  C   UNL     1       0.491   1.068   4.843  0.00  0.00    -0.038 C 
ATOM     26  C   UNL     1      -0.238   1.479   6.124  0.00  0.00    -0.008 C 
BRANCH  25  27
ATOM     27  C   UNL     1       1.813   1.787   4.765  0.00  0.00    -0.043 A 
ATOM     28  C   UNL     1       2.978   1.134   5.122  0.00  0.00    +0.003 A 
ATOM     29  C   UNL     1       4.190   1.794   5.050  0.00  0.00    +0.000 A 
ATOM     30  C   UNL     1       4.239   3.107   4.620  0.00  0.00    +0.001 A 
ATOM     31  C   UNL     1       3.075   3.761   4.263  0.00  0.00    +0.020 A 
ATOM     32  C   UNL     1       1.862   3.099   4.330  0.00  0.00    +0.043 A 
ATOM     33 CL   UNL     1       0.400   3.918   3.875  0.00  0.00    -0.083 Cl
ENDBRANCH  25  27
ENDBRANCH  20  25
ENDBRANCH  19  20
ENDBRANCH  11  19
TORSDOF 7
