REMARK  Name = ZINC36581407
REMARK  15 active torsions:
REMARK  status: ('A' for Active; 'I' for Inactive)
REMARK    1  A    between atoms: C_1  and  C_2
REMARK    2  A    between atoms: C_4  and  C_15
REMARK    3  A    between atoms: C_12  and  C_13
REMARK    4  A    between atoms: C_12  and  C_14
REMARK    5  A    between atoms: N_17  and  C_18
REMARK    6  A    between atoms: N_17  and  C_38
REMARK    7  A    between atoms: C_18  and  C_20
REMARK    8  A    between atoms: C_18  and  C_29
REMARK    9  A    between atoms: C_21  and  O_28
REMARK   10  A    between atoms: C_23  and  O_27
REMARK   11  A    between atoms: C_25  and  O_26
REMARK   12  A    between atoms: N_31  and  C_32
REMARK   13  A    between atoms: C_38  and  C_39
REMARK   14  A    between atoms: C_38  and  C_40
REMARK   15  A    between atoms: C_38  and  C_41
REMARK                            x       y       z     vdW  Elec       q    Type
REMARK                         _______ _______ _______ _____ _____    ______ ____
ROOT
ATOM      1  C   UNL     1      -1.313  -2.904  -4.355  0.00  0.00    +0.200 C 
ENDROOT
BRANCH   1   2
ATOM      2  C   UNL     1      -2.577  -2.784  -3.543  0.00  0.00    +0.065 A 
ATOM      3  C   UNL     1      -3.065  -1.532  -3.201  0.00  0.00    +0.129 A 
ATOM      4  C   UNL     1      -4.228  -1.422  -2.454  0.00  0.00    +0.091 A 
ATOM      5  C   UNL     1      -4.903  -2.563  -2.049  0.00  0.00    +0.124 A 
ATOM      6  C   UNL     1      -4.415  -3.816  -2.393  0.00  0.00    +0.091 A 
ATOM      7  C   UNL     1      -3.255  -3.926  -3.143  0.00  0.00    +0.129 A 
BRANCH   7   8
ATOM      8  O   UNL     1      -2.779  -5.152  -3.483  0.00  0.00    -0.506 OA
ATOM      9  H   UNL     1      -2.166  -5.529  -2.838  0.00  0.00    +0.292 HD
ENDBRANCH   7   8
BRANCH   5  10
ATOM     10  O   UNL     1      -6.043  -2.455  -1.317  0.00  0.00    -0.507 OA
ATOM     11  H   UNL     1      -6.849  -2.406  -1.848  0.00  0.00    +0.292 HD
ENDBRANCH   5  10
BRANCH   3  12
ATOM     12  O   UNL     1      -2.403  -0.413  -3.597  0.00  0.00    -0.506 OA
ATOM     13  H   UNL     1      -2.739  -0.027  -4.418  0.00  0.00    +0.292 HD
ENDBRANCH   3  12
ENDBRANCH   1   2
BRANCH   1  14
ATOM     14  C   UNL     1      -1.436  -2.067  -5.602  0.00  0.00    +0.239 C 
ATOM     15  O   UNL     1      -0.709  -1.110  -5.764  0.00  0.00    -0.273 OA
ATOM     16  N   UNL     1      -2.354  -2.382  -6.537  0.00  0.00    -0.311 N 
ATOM     17  H   UNL     1      -2.935  -3.148  -6.407  0.00  0.00    +0.149 HD
BRANCH  16  18
ATOM     18  C   UNL     1      -2.473  -1.569  -7.750  0.00  0.00    +0.073 C 
ATOM     19  C   UNL     1      -3.382  -0.370  -7.472  0.00  0.00    +0.022 C 
ATOM     20  C   UNL     1      -3.507   0.480  -8.739  0.00  0.00    +0.002 C 
ATOM     21  C   UNL     1      -4.108  -0.366  -9.863  0.00  0.00    +0.000 C 
ATOM     22  C   UNL     1      -3.199  -1.565 -10.141  0.00  0.00    +0.002 C 
ATOM     23  C   UNL     1      -3.074  -2.415  -8.874  0.00  0.00    +0.022 C 
ENDBRANCH  16  18
ENDBRANCH   1  14
BRANCH   1  26
ATOM     24  C   UNL     1      -0.382  -1.890  -2.344  0.00  0.00    +0.220 C 
ATOM     25  O   UNL     1      -1.480  -1.949  -1.832  0.00  0.00    -0.275 OA
ATOM     26  N   UNL     1      -0.176  -2.432  -3.561  0.00  0.00    -0.280 N 
BRANCH  24  29
ATOM     27  C   UNL     1       0.794   1.187  -0.819  0.00  0.00    +0.008 C 
ATOM     28  C   UNL     1       0.222  -0.209  -0.600  0.00  0.00    +0.001 C 
ATOM     29  C   UNL     1       0.752  -1.209  -1.620  0.00  0.00    +0.079 C 
ATOM     30  C   UNL     1       1.700  -2.237  -1.014  0.00  0.00    +0.017 C 
ATOM     31  C   UNL     1       1.446  -2.445   0.480  0.00  0.00    -0.004 C 
ATOM     32  C   UNL     1      -0.013  -2.205   0.897  0.00  0.00    +0.008 C 
ATOM     33  C   UNL     1       0.371  -0.703   0.834  0.00  0.00    -0.001 C 
ATOM     34  C   UNL     1       1.755  -1.165   1.285  0.00  0.00    -0.029 C 
ATOM     35  C   UNL     1       1.854  -1.423   2.800  0.00  0.00    +0.011 C 
ATOM     36  C   UNL     1       2.961  -0.375   0.787  0.00  0.00    +0.011 C 
ENDBRANCH  24  29
BRANCH  26  37
ATOM     37  C   UNL     1       1.186  -2.550  -4.088  0.00  0.00    +0.030 C 
ATOM     38  C   UNL     1       1.814  -3.854  -3.592  0.00  0.00    +0.031 C 
ATOM     39  C   UNL     1       1.141  -2.555  -5.618  0.00  0.00    +0.031 C 
ATOM     40  C   UNL     1       2.024  -1.364  -3.607  0.00  0.00    +0.031 C 
ENDBRANCH  26  37
ENDBRANCH   1  26
TORSDOF 9
