REMARK  Name = ZINC35929261
REMARK  12 active torsions:
REMARK  status: ('A' for Active; 'I' for Inactive)
REMARK    1  A    between atoms: C_1  and  O_2
REMARK    2  A    between atoms: O_2  and  C_3
REMARK    3  A    between atoms: C_6  and  C_9
REMARK    4  A    between atoms: C_9  and  C_10
REMARK    5  A    between atoms: C_10  and  N_11
REMARK    6  A    between atoms: C_14  and  C_30
REMARK    7  A    between atoms: C_16  and  N_29
REMARK    8  A    between atoms: N_17  and  C_21
REMARK    9  A    between atoms: C_24  and  O_27
REMARK   10  A    between atoms: O_27  and  C_28
REMARK   11  A    between atoms: C_33  and  O_36
REMARK   12  A    between atoms: O_36  and  C_37
REMARK                            x       y       z     vdW  Elec       q    Type
REMARK                         _______ _______ _______ _____ _____    ______ ____
ROOT
ATOM      1  N   UNL     1       1.980  -4.195   6.261  0.00  0.00    -0.313 N 
ATOM      2  C   UNL     1       1.380  -4.244   7.506  0.00  0.00    +0.218 A 
ATOM      3  N   UNL     1       2.018  -4.876   8.486  0.00  0.00    -0.214 NA
ATOM      4  C   UNL     1       1.514  -4.971   9.711  0.00  0.00    +0.089 A 
ATOM      5  C   UNL     1       0.258  -4.376   9.966  0.00  0.00    +0.086 A 
ATOM      6  C   UNL     1      -0.581  -4.255  11.066  0.00  0.00    +0.131 A 
ATOM      7  N   UNL     1      -1.667  -3.559  10.674  0.00  0.00    -0.216 N 
ATOM      8  N   UNL     1      -1.551  -3.219   9.322  0.00  0.00    -0.144 NA
ATOM      9  C   UNL     1      -0.415  -3.685   8.851  0.00  0.00    +0.189 A 
ATOM     10  N   UNL     1       0.210  -3.658   7.657  0.00  0.00    -0.193 NA
ATOM     11  H   UNL     1       2.841  -4.617   6.120  0.00  0.00    +0.149 HD
ENDROOT
BRANCH   7  12
ATOM     12  C   UNL     1      -2.750  -3.227  11.498  0.00  0.00    +0.068 A 
ATOM     13  C   UNL     1      -3.163  -4.105  12.492  0.00  0.00    +0.031 A 
ATOM     14  C   UNL     1      -4.230  -3.776  13.304  0.00  0.00    +0.048 A 
ATOM     15  C   UNL     1      -4.891  -2.569  13.127  0.00  0.00    +0.120 A 
ATOM     16  C   UNL     1      -4.479  -1.691  12.134  0.00  0.00    +0.048 A 
ATOM     17  C   UNL     1      -3.408  -2.016  11.326  0.00  0.00    +0.031 A 
BRANCH  15  18
ATOM     18  O   UNL     1      -5.942  -2.246  13.926  0.00  0.00    -0.495 OA
ATOM     19  C   UNL     1      -6.575  -0.987  13.688  0.00  0.00    +0.277 C 
ENDBRANCH  15  18
ENDBRANCH   7  12
BRANCH   4  20
ATOM     20  C   UNL     1       2.248  -5.681  10.781  0.00  0.00    +0.001 A 
ATOM     21  C   UNL     1       1.581  -6.595  11.599  0.00  0.00    +0.013 A 
ATOM     22  C   UNL     1       2.268  -7.255  12.594  0.00  0.00    +0.046 A 
ATOM     23  C   UNL     1       3.623  -7.013  12.784  0.00  0.00    +0.120 A 
ATOM     24  C   UNL     1       4.290  -6.104  11.971  0.00  0.00    +0.046 A 
ATOM     25  C   UNL     1       3.611  -5.444  10.971  0.00  0.00    +0.013 A 
BRANCH  23  26
ATOM     26  O   UNL     1       4.297  -7.665  13.766  0.00  0.00    -0.495 OA
ATOM     27  C   UNL     1       5.688  -7.368  13.906  0.00  0.00    +0.277 C 
ENDBRANCH  23  26
ENDBRANCH   4  20
BRANCH   6  28
ATOM     28  N   UNL     1      -0.346  -4.758  12.333  0.00  0.00    -0.342 N 
ATOM     29  H   UNL     1       0.528  -5.111  12.559  0.00  0.00    +0.144 HD
ATOM     30  H   UNL     1      -1.055  -4.756  12.995  0.00  0.00    +0.144 HD
ENDBRANCH   6  28
BRANCH   1  31
ATOM     31  C   UNL     1       1.314  -3.503   5.154  0.00  0.00    +0.109 C 
BRANCH  31  32
ATOM     32  C   UNL     1       2.183  -3.596   3.898  0.00  0.00    +0.054 C 
BRANCH  32  36
ATOM     33  C   UNL     1       0.241  -1.580   0.669  0.00  0.00    +0.120 A 
ATOM     34  C   UNL     1       1.108  -0.886   1.501  0.00  0.00    +0.046 A 
ATOM     35  C   UNL     1       1.735  -1.540   2.544  0.00  0.00    +0.007 A 
ATOM     36  C   UNL     1       1.498  -2.885   2.760  0.00  0.00    -0.046 A 
ATOM     37  C   UNL     1       0.635  -3.579   1.932  0.00  0.00    +0.007 A 
ATOM     38  C   UNL     1       0.001  -2.928   0.891  0.00  0.00    +0.046 A 
BRANCH  33  40
ATOM     39  C   UNL     1      -0.082   0.450  -0.526  0.00  0.00    +0.277 C 
ATOM     40  O   UNL     1      -0.377  -0.939  -0.357  0.00  0.00    -0.495 OA
ENDBRANCH  33  40
ENDBRANCH  32  36
ENDBRANCH  31  32
ENDBRANCH   1  31
TORSDOF 9
