REMARK  Name = ZINC20768184
REMARK  8 active torsions:
REMARK  status: ('A' for Active; 'I' for Inactive)
REMARK    1  A    between atoms: C_6  and  C_7
REMARK    2  A    between atoms: N_9  and  C_10
REMARK    3  A    between atoms: C_10  and  C_11
REMARK    4  A    between atoms: C_11  and  C_12
REMARK    5  A    between atoms: C_21  and  C_24
REMARK    6  A    between atoms: C_24  and  S_25
REMARK    7  A    between atoms: S_25  and  C_28
REMARK    8  A    between atoms: C_28  and  C_29
REMARK                            x       y       z     vdW  Elec       q    Type
REMARK                         _______ _______ _______ _____ _____    ______ ____
ROOT
ATOM      1  C   UNL     1       3.621  -2.052  -0.460  0.00  0.00    +0.015 A 
ATOM      2  C   UNL     1       3.569  -0.689  -0.662  0.00  0.00    +0.025 A 
ATOM      3  C   UNL     1       2.367  -0.012  -0.515  0.00  0.00    +0.049 A 
ATOM      4  C   UNL     1       1.205  -0.703  -0.155  0.00  0.00    +0.055 A 
ATOM      5  C   UNL     1       1.253  -2.069   0.046  0.00  0.00    +0.038 A 
ATOM      6  C   UNL     1       2.464  -2.751  -0.107  0.00  0.00    +0.039 A 
ATOM      7  N   UNL     1       0.002  -0.004   0.002  0.00  0.00    -0.282 N 
ATOM      8  C   UNL     1      -0.016   1.341   0.009  0.00  0.00    +0.239 C 
ATOM      9  O   UNL     1      -1.078   1.928   0.018  0.00  0.00    -0.273 OA
ATOM     10  C   UNL     1       1.271   2.127   0.001  0.00  0.00    +0.178 C 
ATOM     11  N   UNL     1       2.293   1.365  -0.729  0.00  0.00    -0.330 N 
ATOM     12  H   UNL     1      -0.943  -0.555   0.121  0.00  0.00    +0.155 HD
ATOM     13  H   UNL     1       2.974   1.882  -1.421  0.00  0.00    +0.147 HD
ENDROOT
BRANCH   6  14
ATOM     14  C   UNL     1       2.520  -4.210   0.106  0.00  0.00    +0.244 C 
ATOM     15  O   UNL     1       1.514  -4.819   0.413  0.00  0.00    -0.270 OA
ATOM     16  N   UNL     1       3.687  -4.868  -0.041  0.00  0.00    -0.311 N 
ATOM     17  H   UNL     1       4.598  -4.317  -0.319  0.00  0.00    +0.149 HD
BRANCH  16  18
ATOM     18  C   UNL     1       3.743  -6.316   0.170  0.00  0.00    +0.109 C 
BRANCH  18  19
ATOM     19  C   UNL     1       5.173  -6.810  -0.058  0.00  0.00    +0.049 C 
BRANCH  19  20
ATOM     20  C   UNL     1       5.231  -8.300   0.159  0.00  0.00    -0.072 C 
ATOM     21  C   UNL     1       5.117  -9.069  -0.876  0.00  0.00    -0.028 C 
ATOM     22  C   UNL     1       5.145 -10.569  -0.817  0.00  0.00    +0.027 C 
ATOM     23  C   UNL     1       5.738 -11.032   0.515  0.00  0.00    +0.004 C 
ATOM     24  C   UNL     1       5.031 -10.279   1.649  0.00  0.00    +0.005 C 
ATOM     25  C   UNL     1       5.422  -8.800   1.561  0.00  0.00    +0.030 C 
ENDBRANCH  19  20
ENDBRANCH  18  19
ENDBRANCH  16  18
ENDBRANCH   6  14
BRANCH  10  26
ATOM     26  C   UNL     1       1.736   2.361   1.440  0.00  0.00    +0.198 C 
BRANCH  26  27
ATOM     27  S   UNL     1       3.202   3.431   1.435  0.00  0.00    -0.025 S 
ATOM     28  O   UNL     1       4.264   2.734   0.799  0.00  0.00    -0.174 OA
ATOM     29  O   UNL     1       2.823   4.710   0.944  0.00  0.00    -0.174 OA
BRANCH  27  30
ATOM     30  C   UNL     1       3.591   3.585   3.199  0.00  0.00    +0.202 C 
BRANCH  30  31
ATOM     31  C   UNL     1       4.807   4.459   3.371  0.00  0.00    -0.008 A 
ATOM     32  C   UNL     1       6.069   3.894   3.384  0.00  0.00    +0.009 A 
ATOM     33  C   UNL     1       7.184   4.695   3.535  0.00  0.00    +0.039 A 
ATOM     34  C   UNL     1       7.038   6.064   3.685  0.00  0.00    +0.125 A 
ATOM     35  C   UNL     1       5.775   6.629   3.678  0.00  0.00    +0.058 A 
ATOM     36  C   UNL     1       4.660   5.827   3.521  0.00  0.00    +0.048 A 
ATOM     37 CL   UNL     1       3.075   6.535   3.512  0.00  0.00    -0.083 Cl
ATOM     38  F   UNL     1       8.129   6.847   3.838  0.00  0.00    -0.205 F 
ENDBRANCH  30  31
ENDBRANCH  27  30
ENDBRANCH  26  27
ENDBRANCH  10  26
TORSDOF 8
