REMARK  Name = ZINC39558987
REMARK  5 active torsions:
REMARK  status: ('A' for Active; 'I' for Inactive)
REMARK    1  A    between atoms: C_6  and  N_7
REMARK    2  A    between atoms: C_8  and  C_10
REMARK    3  A    between atoms: C_10  and  N_11
REMARK    4  A    between atoms: C_12  and  C_14
REMARK    5  A    between atoms: C_14  and  C_15
REMARK                            x       y       z     vdW  Elec       q    Type
REMARK                         _______ _______ _______ _____ _____    ______ ____
ROOT
ATOM      1  N   UNL     1      -4.785   0.095   0.360  0.00  0.00    -0.307 N 
ATOM      2  C   UNL     1      -6.042  -0.375   0.480  0.00  0.00    +0.215 C 
ATOM      3  O   UNL     1      -6.244  -1.571   0.495  0.00  0.00    -0.276 OA
ATOM      4  H   UNL     1      -4.623   1.051   0.349  0.00  0.00    +0.149 HD
ENDROOT
BRANCH   1   5
ATOM      5  C   UNL     1      -3.662  -0.839   0.248  0.00  0.00    +0.200 C 
BRANCH   5   7
ATOM      6  N   UNL     1      -1.202  -0.720   0.010  0.00  0.00    -0.284 N 
ATOM      7  C   UNL     1      -2.374  -0.065   0.126  0.00  0.00    +0.234 C 
ATOM      8  O   UNL     1      -2.393   1.148   0.133  0.00  0.00    -0.274 OA
ATOM      9  H   UNL     1      -1.192  -1.687  -0.063  0.00  0.00    +0.155 HD
BRANCH   6  15
ATOM     10  C   UNL     1       1.138  -0.544   0.584  0.00  0.00    +0.025 A 
ATOM     11  C   UNL     1       2.328   0.157   0.572  0.00  0.00    +0.029 A 
ATOM     12  C   UNL     1       2.390   1.404  -0.031  0.00  0.00    +0.067 A 
ATOM     13  C   UNL     1       1.250   1.950  -0.625  0.00  0.00    +0.069 A 
ATOM     14  C   UNL     1       0.057   1.244  -0.610  0.00  0.00    +0.051 A 
ATOM     15  C   UNL     1       0.002  -0.003  -0.006  0.00  0.00    +0.036 A 
ATOM     16  N   UNL     1       1.618   3.191  -1.138  0.00  0.00    -0.306 N 
ATOM     17  H   UNL     1       1.034   3.807  -1.608  0.00  0.00    +0.170 HD
ATOM     18  C   UNL     1       2.922   3.392  -0.869  0.00  0.00    +0.325 A 
ATOM     19  O   UNL     1       3.557   4.382  -1.181  0.00  0.00    -0.247 OA
ATOM     20  N   UNL     1       3.416   2.332  -0.202  0.00  0.00    -0.306 N 
ATOM     21  H   UNL     1       4.330   2.232   0.107  0.00  0.00    +0.170 HD
ENDBRANCH   6  15
ENDBRANCH   5   7
ENDBRANCH   1   5
BRANCH   2  22
ATOM     22  C   UNL     1      -7.197   0.586   0.597  0.00  0.00    +0.119 C 
BRANCH  22  23
ATOM     23  C   UNL     1      -8.504  -0.201   0.720  0.00  0.00    +0.146 C 
ATOM     24  C   UNL     1      -9.649   0.752   0.949  0.00  0.00    +0.231 C 
ATOM     25  O   UNL     1     -10.041   0.920   2.084  0.00  0.00    -0.274 OA
ATOM     26  N   UNL     1     -10.249   1.417  -0.033  0.00  0.00    -0.284 N 
ATOM     27  C   UNL     1     -10.020   1.270  -1.397  0.00  0.00    +0.048 A 
ATOM     28  C   UNL     1     -10.463   2.259  -2.270  0.00  0.00    +0.044 A 
ATOM     29  C   UNL     1     -10.239   2.141  -3.628  0.00  0.00    +0.043 A 
ATOM     30  C   UNL     1      -9.573   1.039  -4.136  0.00  0.00    +0.021 A 
ATOM     31  C   UNL     1      -9.131   0.047  -3.280  0.00  0.00    +0.018 A 
ATOM     32  C   UNL     1      -9.357   0.159  -1.918  0.00  0.00    +0.030 A 
ATOM     33  S   UNL     1      -8.812  -1.120  -0.819  0.00  0.00    -0.110 S 
ATOM     34 CL   UNL     1     -10.797   3.382  -4.706  0.00  0.00    -0.083 Cl
ATOM     35  H   UNL     1     -10.916   2.071   0.229  0.00  0.00    +0.155 HD
ENDBRANCH  22  23
ENDBRANCH   2  22
TORSDOF 5
