REMARK  Name = ZINC36801177
REMARK  5 active torsions:
REMARK  status: ('A' for Active; 'I' for Inactive)
REMARK    1  A    between atoms: C_6  and  C_7
REMARK    2  A    between atoms: N_9  and  C_10
REMARK    3  A    between atoms: C_10  and  C_11
REMARK    4  A    between atoms: C_11  and  C_12
REMARK    5  A    between atoms: C_18  and  C_20
REMARK                            x       y       z     vdW  Elec       q    Type
REMARK                         _______ _______ _______ _____ _____    ______ ____
ROOT
ATOM      1  C   UNL     1      -3.491  -5.137   0.009  0.00  0.00    +0.220 C 
ATOM      2  O   UNL     1      -4.551  -4.548   0.023  0.00  0.00    -0.275 OA
ATOM      3  N   UNL     1      -3.469  -6.485   0.002  0.00  0.00    -0.263 N 
ATOM      4  C   UNL     1      -4.663  -7.199   0.010  0.00  0.00    +0.188 A 
ATOM      5  N   UNL     1      -5.902  -6.749   0.019  0.00  0.00    -0.126 NA
ATOM      6  N   UNL     1      -6.896  -7.529   0.025  0.00  0.00    -0.144 NA
ATOM      7  C   UNL     1      -6.689  -8.830   0.023  0.00  0.00    +0.110 A 
ATOM      8  S   UNL     1      -4.903  -8.868   0.003  0.00  0.00    -0.035 S 
ATOM      9  H   UNL     1      -2.622  -6.957  -0.009  0.00  0.00    +0.157 HD
ENDROOT
BRANCH   7  10
ATOM     10  C   UNL     1      -7.680  -9.966   0.030  0.00  0.00    +0.022 C 
ATOM     11  C   UNL     1      -8.551  -9.876   1.285  0.00  0.00    +0.017 C 
ATOM     12  C   UNL     1      -9.556 -11.029   1.291  0.00  0.00    -0.010 C 
ATOM     13  C   UNL     1     -10.444 -10.939   0.048  0.00  0.00    +0.007 C 
ATOM     14  C   UNL     1      -9.573 -11.029  -1.207  0.00  0.00    -0.010 C 
ATOM     15  C   UNL     1      -8.567  -9.876  -1.214  0.00  0.00    +0.017 C 
ATOM     16  C   UNL     1      -8.822 -12.361  -1.212  0.00  0.00    +0.007 C 
ATOM     17  C   UNL     1      -7.934 -12.451   0.031  0.00  0.00    -0.010 C 
ATOM     18  C   UNL     1      -8.805 -12.362   1.286  0.00  0.00    +0.007 C 
ATOM     19  C   UNL     1      -6.929 -11.299   0.024  0.00  0.00    +0.017 C 
ENDBRANCH   7  10
BRANCH   1  20
ATOM     20  C   UNL     1      -2.198  -4.363   0.001  0.00  0.00    +0.115 C 
BRANCH  20  21
ATOM     21  C   UNL     1      -2.501  -2.864   0.011  0.00  0.00    +0.113 C 
BRANCH  21  24
ATOM     22  C   UNL     1      -1.266  -0.763   0.011  0.00  0.00    +0.244 C 
ATOM     23  O   UNL     1      -2.328  -0.172   0.024  0.00  0.00    -0.270 OA
ATOM     24  N   UNL     1      -1.244  -2.111   0.003  0.00  0.00    -0.311 N 
ATOM     25  H   UNL     1      -0.397  -2.583  -0.008  0.00  0.00    +0.149 HD
BRANCH  22  31
ATOM     26  C   UNL     1      -0.017   1.392   0.010  0.00  0.00    +0.014 A 
ATOM     27  C   UNL     1       1.170   2.095   0.002  0.00  0.00    +0.016 A 
ATOM     28  C   UNL     1       2.378   1.419  -0.013  0.00  0.00    +0.018 A 
ATOM     29  C   UNL     1       2.403   0.034  -0.021  0.00  0.00    +0.016 A 
ATOM     30  C   UNL     1       1.224  -0.680  -0.014  0.00  0.00    +0.014 A 
ATOM     31  C   UNL     1       0.002  -0.004   0.002  0.00  0.00    +0.037 A 
ATOM     32 BR   UNL     1       4.000   2.390  -0.024  0.00  0.00    -0.050 Br
ENDBRANCH  22  31
ENDBRANCH  21  24
ENDBRANCH  20  21
ENDBRANCH   1  20
TORSDOF 5
