REMARK  Name = ZINC23159614
REMARK  7 active torsions:
REMARK  status: ('A' for Active; 'I' for Inactive)
REMARK    1  A    between atoms: C_4  and  C_7
REMARK    2  A    between atoms: C_7  and  C_9
REMARK    3  A    between atoms: C_7  and  N_15
REMARK    4  A    between atoms: C_9  and  N_10
REMARK    5  A    between atoms: N_15  and  C_16
REMARK    6  A    between atoms: C_16  and  C_17
REMARK    7  A    between atoms: C_22  and  C_23
REMARK                            x       y       z     vdW  Elec       q    Type
REMARK                         _______ _______ _______ _____ _____    ______ ____
ROOT
ATOM      1  C   UNL     1       3.958  -1.476   2.284  0.00  0.00    +0.120 C 
ENDROOT
BRANCH   1   2
ATOM      2  C   UNL     1       3.848  -2.715   3.135  0.00  0.00    +0.011 A 
ATOM      3  C   UNL     1       2.836  -3.014   3.977  0.00  0.00    +0.110 A 
ATOM      4  N   UNL     1       3.108  -4.206   4.551  0.00  0.00    -0.284 N 
ATOM      5  H   UNL     1       2.552  -4.666   5.199  0.00  0.00    +0.188 HD
ATOM      6  N   UNL     1       4.333  -4.663   4.047  0.00  0.00    -0.174 NA
ATOM      7  C   UNL     1       4.780  -3.771   3.188  0.00  0.00    +0.097 A 
BRANCH   7   8
ATOM      8  C   UNL     1       6.043  -3.859   2.417  0.00  0.00    +0.010 A 
ATOM      9  C   UNL     1       6.919  -2.788   2.386  0.00  0.00    +0.011 A 
ATOM     10  C   UNL     1       8.105  -2.863   1.665  0.00  0.00    +0.001 A 
ATOM     11  C   UNL     1       8.439  -3.988   0.973  0.00  0.00    +0.008 A 
ATOM     12  C   UNL     1       7.579  -5.099   0.978  0.00  0.00    -0.017 A 
ATOM     13  C   UNL     1       6.368  -5.041   1.711  0.00  0.00    -0.009 A 
ATOM     14  C   UNL     1       5.513  -6.152   1.718  0.00  0.00    +0.009 A 
ATOM     15  C   UNL     1       5.857  -7.273   1.026  0.00  0.00    +0.001 A 
ATOM     16  C   UNL     1       7.051  -7.334   0.309  0.00  0.00    +0.001 A 
ATOM     17  C   UNL     1       7.899  -6.271   0.271  0.00  0.00    +0.008 A 
ENDBRANCH   7   8
ENDBRANCH   1   2
BRANCH   1  18
ATOM     18  N   UNL     1       3.526  -1.783   0.914  0.00  0.00    -0.304 NA
ATOM     19  H   UNL     1       2.591  -2.163   0.906  0.00  0.00    +0.123 HD
BRANCH  18  20
ATOM     20  C   UNL     1       3.620  -0.596   0.054  0.00  0.00    +0.104 C 
BRANCH  20  24
ATOM     21  C   UNL     1       0.064   1.737   0.453  0.00  0.00    +0.000 A 
ATOM     22  C   UNL     1       1.294   2.362   0.367  0.00  0.00    +0.000 A 
ATOM     23  C   UNL     1       2.445   1.607   0.238  0.00  0.00    +0.005 A 
ATOM     24  C   UNL     1       2.365   0.227   0.195  0.00  0.00    -0.029 A 
ATOM     25  C   UNL     1       1.135  -0.397   0.282  0.00  0.00    +0.005 A 
ATOM     26  C   UNL     1      -0.016   0.358   0.410  0.00  0.00    +0.000 A 
ENDBRANCH  20  24
BRANCH  20  27
ATOM     27  C   UNL     1       3.781  -1.033  -1.404  0.00  0.00    +0.146 C 
BRANCH  27  28
ATOM     28  N   UNL     1       5.059  -1.731  -1.566  0.00  0.00    -0.337 N 
ATOM     29  C   UNL     1       6.261  -1.160  -1.883  0.00  0.00    +0.104 A 
ATOM     30  C   UNL     1       7.166  -2.157  -1.929  0.00  0.00    +0.101 A 
ATOM     31  N   UNL     1       6.532  -3.305  -1.648  0.00  0.00    -0.352 N 
ATOM     32  C   UNL     1       5.271  -3.057  -1.425  0.00  0.00    +0.173 A 
ATOM     33  H   UNL     1       6.947  -4.181  -1.614  0.00  0.00    +0.166 HD
ENDBRANCH  27  28
ENDBRANCH  20  27
ENDBRANCH  18  20
ENDBRANCH   1  18
TORSDOF 7
