REMARK  Name = ZINC39674458
REMARK  10 active torsions:
REMARK  status: ('A' for Active; 'I' for Inactive)
REMARK    1  A    between atoms: C_1  and  C_2
REMARK    2  A    between atoms: C_4  and  C_7
REMARK    3  A    between atoms: C_9  and  C_14
REMARK    4  A    between atoms: C_10  and  C_13
REMARK    5  A    between atoms: C_18  and  C_27
REMARK    6  A    between atoms: N_29  and  C_30
REMARK    7  A    between atoms: C_30  and  C_32
REMARK    8  A    between atoms: C_30  and  C_33
REMARK    9  A    between atoms: C_34  and  C_40
REMARK   10  A    between atoms: C_37  and  C_39
REMARK                            x       y       z     vdW  Elec       q    Type
REMARK                         _______ _______ _______ _____ _____    ______ ____
ROOT
ATOM      1  C   UNL     1       2.154  -5.440  -2.240  0.00  0.00    +0.247 C 
ATOM      2  O   UNL     1       2.490  -6.146  -3.174  0.00  0.00    -0.270 OA
ATOM      3  N   UNL     1       2.891  -5.417  -1.112  0.00  0.00    -0.296 N 
ATOM      4  C   UNL     1       2.589  -4.712   0.156  0.00  0.00    +0.121 C 
ATOM      5  C   UNL     1       3.034  -5.694   1.263  0.00  0.00    +0.100 C 
ATOM      6  C   UNL     1       4.083  -6.595   0.591  0.00  0.00    -0.004 C 
ATOM      7  C   UNL     1       4.184  -6.097  -0.858  0.00  0.00    +0.115 C 
ATOM      8  C   UNL     1       3.622  -8.049   0.612  0.00  0.00    -0.010 C 
ATOM      9  C   UNL     1       4.707  -8.933  -0.010  0.00  0.00    -0.082 C 
ATOM     10  N   UNL     1       5.956  -8.783   0.747  0.00  0.00    +0.379 N 
ATOM     11  C   UNL     1       6.441  -7.402   0.644  0.00  0.00    -0.082 C 
ATOM     12  C   UNL     1       5.430  -6.454   1.294  0.00  0.00    -0.010 C 
ATOM     13  H   UNL     1       5.789  -9.009   1.716  0.00  0.00    -0.086 HD
ATOM     14  H   UNL     1       6.651  -9.412   0.373  0.00  0.00    -0.086 HD
ENDROOT
BRANCH   1  16
ATOM     15  C   UNL     1       0.864  -3.321  -3.063  0.00  0.00    +0.237 C 
ATOM     16  C   UNL     1       0.989  -4.644  -2.340  0.00  0.00    +0.072 C 
ATOM     17  C   UNL     1      -0.217  -4.920  -1.809  0.00  0.00    +0.047 C 
ATOM     18  N   UNL     1      -1.113  -3.939  -2.099  0.00  0.00    -0.269 N 
ATOM     19  O   UNL     1      -0.501  -2.921  -2.872  0.00  0.00    -0.260 OA
ATOM     20  C   UNL     1      -0.533  -6.154  -1.003  0.00  0.00    +0.066 C 
ATOM     21  H   UNL     1      -2.041  -3.936  -1.815  0.00  0.00    +0.194 HD
BRANCH  15  25
ATOM     22  C   UNL     1       0.362  -3.261  -8.132  0.00  0.00    +0.089 C 
ATOM     23  C   UNL     1       0.920  -3.462  -6.747  0.00  0.00    +0.135 A 
ATOM     24  C   UNL     1       0.301  -3.154  -5.591  0.00  0.00    +0.073 A 
ATOM     25  C   UNL     1       1.158  -3.497  -4.531  0.00  0.00    +0.120 A 
ATOM     26  N   UNL     1       2.252  -3.991  -5.038  0.00  0.00    -0.080 NA
ATOM     27  O   UNL     1       2.120  -3.983  -6.448  0.00  0.00    -0.360 OA
ENDBRANCH  15  25
ENDBRANCH   1  16
BRANCH   5  28
ATOM     28  C   UNL     1       3.646  -4.941   2.417  0.00  0.00    +0.219 C 
ATOM     29  O   UNL     1       4.273  -3.924   2.212  0.00  0.00    -0.275 OA
ATOM     30  N   UNL     1       3.497  -5.399   3.675  0.00  0.00    -0.309 N 
ATOM     31  H   UNL     1       2.995  -6.213   3.839  0.00  0.00    +0.149 HD
BRANCH  30  32
ATOM     32  C   UNL     1       4.092  -4.668   4.796  0.00  0.00    +0.100 C 
ATOM     33  C   UNL     1       3.102  -3.618   5.304  0.00  0.00    +0.033 C 
BRANCH  32  34
ATOM     34  C   UNL     1       4.417  -5.631   5.909  0.00  0.00    -0.001 C 
ATOM     35  C   UNL     1       5.603  -5.863   6.475  0.00  0.00    +0.063 C 
ATOM     36  N   UNL     1       5.497  -6.800   7.444  0.00  0.00    -0.159 NA
ATOM     37  N   UNL     1       4.357  -7.242   7.606  0.00  0.00    -0.180 NA
ATOM     38  C   UNL     1       3.470  -6.559   6.650  0.00  0.00    +0.154 C 
ATOM     39  C   UNL     1       2.837  -7.566   5.688  0.00  0.00    +0.039 C 
ATOM     40  C   UNL     1       6.886  -5.174   6.088  0.00  0.00    +0.067 C 
ENDBRANCH  32  34
ENDBRANCH  30  32
ENDBRANCH   5  28
TORSDOF 5
