REMARK  Name = ZINC39665966
REMARK  8 active torsions:
REMARK  status: ('A' for Active; 'I' for Inactive)
REMARK    1  A    between atoms: C_1  and  C_2
REMARK    2  A    between atoms: C_5  and  O_8
REMARK    3  A    between atoms: O_8  and  C_9
REMARK    4  A    between atoms: C_9  and  C_11
REMARK    5  A    between atoms: C_9  and  C_12
REMARK    6  A    between atoms: C_12  and  N_13
REMARK    7  A    between atoms: C_14  and  C_16
REMARK    8  A    between atoms: C_27  and  C_29
REMARK                            x       y       z     vdW  Elec       q    Type
REMARK                         _______ _______ _______ _____ _____    ______ ____
ROOT
ATOM      1  C   UNL     1       5.027  -6.674  -0.166  0.00  0.00    +0.100 C 
ATOM      2  C   UNL     1       5.758  -6.044   1.041  0.00  0.00    +0.121 C 
ATOM      3  N   UNL     1       6.330  -7.196   1.776  0.00  0.00    -0.296 N 
ATOM      4  C   UNL     1       6.803  -8.114   0.711  0.00  0.00    +0.115 C 
ATOM      5  C   UNL     1       5.719  -8.030  -0.382  0.00  0.00    -0.004 C 
ATOM      6  C   UNL     1       6.359  -8.083  -1.766  0.00  0.00    -0.010 C 
ATOM      7  C   UNL     1       6.989  -9.462  -1.979  0.00  0.00    -0.082 C 
ATOM      8  N   UNL     1       5.958 -10.499  -1.855  0.00  0.00    +0.379 N 
ATOM      9  C   UNL     1       5.413 -10.502  -0.492  0.00  0.00    -0.082 C 
ATOM     10  C   UNL     1       4.715  -9.168  -0.216  0.00  0.00    -0.010 C 
ATOM     11  C   UNL     1       6.405  -7.371   3.110  0.00  0.00    +0.247 C 
ATOM     12  O   UNL     1       6.020  -6.495   3.860  0.00  0.00    -0.270 OA
ATOM     13  H   UNL     1       5.215 -10.313  -2.512  0.00  0.00    -0.086 HD
ATOM     14  H   UNL     1       6.363 -11.401  -2.056  0.00  0.00    -0.086 HD
ENDROOT
BRANCH  11  15
ATOM     15  C   UNL     1       6.956  -8.627   3.661  0.00  0.00    +0.037 A 
ATOM     16  C   UNL     1       7.923  -9.343   2.933  0.00  0.00    +0.013 A 
ATOM     17  C   UNL     1       8.443 -10.499   3.418  0.00  0.00    +0.009 A 
ATOM     18  C   UNL     1       8.016 -10.996   4.663  0.00  0.00    -0.018 A 
ATOM     19  C   UNL     1       8.540 -12.190   5.186  0.00  0.00    +0.008 A 
ATOM     20  C   UNL     1       8.107 -12.646   6.394  0.00  0.00    +0.001 A 
ATOM     21  C   UNL     1       7.149 -11.946   7.124  0.00  0.00    +0.001 A 
ATOM     22  C   UNL     1       6.618 -10.785   6.650  0.00  0.00    +0.008 A 
ATOM     23  C   UNL     1       7.041 -10.283   5.406  0.00  0.00    -0.017 A 
ATOM     24  C   UNL     1       6.519  -9.087   4.892  0.00  0.00    +0.021 A 
ENDBRANCH  11  15
BRANCH   1  26
ATOM     25  N   UNL     1       2.669  -6.971  -0.850  0.00  0.00    -0.312 N 
ATOM     26  C   UNL     1       3.567  -6.874   0.150  0.00  0.00    +0.218 C 
ATOM     27  O   UNL     1       3.201  -6.948   1.304  0.00  0.00    -0.275 OA
ATOM     28  H   UNL     1       2.962  -6.911  -1.772  0.00  0.00    +0.149 HD
BRANCH  25  29
ATOM     29  C   UNL     1       1.249  -7.165  -0.542  0.00  0.00    +0.148 C 
BRANCH  29  30
ATOM     30  C   UNL     1       0.452  -7.241  -1.846  0.00  0.00    +0.187 C 
ATOM     31  C   UNL     1      -1.043  -7.319  -1.525  0.00  0.00    +0.053 C 
BRANCH  30  32
ATOM     32  O   UNL     1       0.843  -8.405  -2.576  0.00  0.00    -0.488 OA
BRANCH  32  37
ATOM     33  C   UNL     1       0.364  -8.186  -8.184  0.00  0.00    +0.044 C 
ATOM     34  C   UNL     1       0.492  -8.245  -6.684  0.00  0.00    -0.050 A 
ATOM     35  C   UNL     1       0.029  -7.197  -5.910  0.00  0.00    +0.007 A 
ATOM     36  C   UNL     1       0.145  -7.248  -4.534  0.00  0.00    +0.046 A 
ATOM     37  C   UNL     1       0.727  -8.353  -3.929  0.00  0.00    +0.121 A 
ATOM     38  C   UNL     1       1.191  -9.403  -4.708  0.00  0.00    +0.046 A 
ATOM     39  C   UNL     1       1.067  -9.350  -6.083  0.00  0.00    +0.007 A 
ENDBRANCH  32  37
ENDBRANCH  30  32
ENDBRANCH  29  30
ENDBRANCH  25  29
ENDBRANCH   1  26
TORSDOF 6
