REMARK  Name = ZINC14530796
REMARK  13 active torsions:
REMARK  status: ('A' for Active; 'I' for Inactive)
REMARK    1  A    between atoms: C_1  and  C_2
REMARK    2  A    between atoms: C_2  and  N_3
REMARK    3  A    between atoms: N_3  and  C_4
REMARK    4  A    between atoms: N_3  and  C_6
REMARK    5  A    between atoms: C_4  and  C_5
REMARK    6  A    between atoms: C_9  and  C_12
REMARK    7  A    between atoms: C_12  and  N_69
REMARK    8  A    between atoms: C_17  and  C_23
REMARK    9  A    between atoms: N_19  and  C_20
REMARK   10  A    between atoms: C_20  and  C_21
REMARK   11  A    between atoms: C_21  and  O_22
REMARK   12  A    between atoms: N_25  and  C_26
REMARK   13  A    between atoms: C_26  and  C_27
REMARK                            x       y       z     vdW  Elec       q    Type
REMARK                         _______ _______ _______ _____ _____    ______ ____
ROOT
ATOM      1  C   UNL     1       1.342   2.027   0.000  0.00  0.00    -0.072 C 
ATOM      2  C   UNL     1       2.012   1.788   1.361  0.00  0.00    +0.037 C 
ATOM      3  C   UNL     1       1.826   0.335   1.717  0.00  0.00    +0.040 A 
ATOM      4  C   UNL     1       0.920  -0.467   1.099  0.00  0.00    -0.011 A 
ATOM      5  C   UNL     1       1.051  -1.728   1.698  0.00  0.00    +0.149 A 
ATOM      6  N   UNL     1       1.997  -1.616   2.616  0.00  0.00    -0.166 NA
ATOM      7  N   UNL     1       2.456  -0.411   2.635  0.00  0.00    -0.265 N 
ATOM      8  C   UNL     1       0.002  -0.004   0.002  0.00  0.00    -0.038 C 
ATOM      9  N   UNL     1      -0.033   1.480   0.036  0.00  0.00    +0.385 N 
ATOM     10  H   UNL     1      -0.488   1.782   0.906  0.00  0.00    -0.081 HD
ENDROOT
BRANCH   5  11
ATOM     11  C   UNL     1       0.282  -2.946   1.368  0.00  0.00    +0.265 C 
ATOM     12  O   UNL     1      -0.565  -2.912   0.497  0.00  0.00    -0.268 OA
ATOM     13  N   UNL     1       0.520  -4.094   2.033  0.00  0.00    -0.306 N 
ATOM     14  H   UNL     1       1.196  -4.120   2.728  0.00  0.00    +0.149 HD
BRANCH  13  15
ATOM     15  C   UNL     1      -0.243  -5.301   1.706  0.00  0.00    +0.140 C 
BRANCH  15  16
ATOM     16  C   UNL     1       0.212  -6.436   2.587  0.00  0.00    -0.030 A 
ATOM     17  C   UNL     1       1.242  -7.261   2.174  0.00  0.00    +0.005 A 
ATOM     18  C   UNL     1       1.663  -8.299   2.984  0.00  0.00    +0.000 A 
ATOM     19  C   UNL     1       1.046  -8.519   4.202  0.00  0.00    +0.000 A 
ATOM     20  C   UNL     1       0.013  -7.698   4.612  0.00  0.00    +0.000 A 
ATOM     21  C   UNL     1      -0.404  -6.656   3.805  0.00  0.00    +0.005 A 
ENDBRANCH  15  16
ENDBRANCH  13  15
ENDBRANCH   5  11
BRANCH   9  22
ATOM     22  C   UNL     1      -0.809   1.992  -1.112  0.00  0.00    -0.043 C 
BRANCH  22  26
ATOM     23  C   UNL     1      -1.387   6.197  -0.614  0.00  0.00    +0.030 A 
ATOM     24  C   UNL     1      -0.282   5.724  -1.309  0.00  0.00    +0.023 A 
ATOM     25  C   UNL     1      -0.098   4.365  -1.468  0.00  0.00    +0.003 A 
ATOM     26  C   UNL     1      -1.013   3.474  -0.937  0.00  0.00    -0.064 A 
ATOM     27  C   UNL     1      -2.118   3.942  -0.249  0.00  0.00    +0.003 A 
ATOM     28  C   UNL     1      -2.305   5.300  -0.081  0.00  0.00    +0.023 A 
BRANCH  23  29
ATOM     29  N   UNL     1      -1.576   7.571  -0.450  0.00  0.00    -0.330 N 
BRANCH  29  31
ATOM     30  C   UNL     1      -2.395   8.199   1.767  0.00  0.00    +0.024 C 
ATOM     31  C   UNL     1      -2.743   8.068   0.283  0.00  0.00    +0.102 C 
ENDBRANCH  29  31
BRANCH  29  32
ATOM     32  C   UNL     1      -0.608   8.516  -1.013  0.00  0.00    +0.102 C 
ATOM     33  C   UNL     1      -1.025   8.887  -2.437  0.00  0.00    +0.024 C 
ENDBRANCH  29  32
ENDBRANCH  23  29
ENDBRANCH  22  26
ENDBRANCH   9  22
BRANCH   7  34
ATOM     34  C   UNL     1       3.512   0.071   3.529  0.00  0.00    +0.171 C 
BRANCH  34  35
ATOM     35  C   UNL     1       2.884   0.603   4.819  0.00  0.00    +0.179 C 
BRANCH  35  36
ATOM     36  O   UNL     1       3.914   1.074   5.691  0.00  0.00    -0.393 OA
ATOM     37  H   UNL     1       3.588   1.426   6.531  0.00  0.00    +0.209 HD
ENDBRANCH  35  36
ENDBRANCH  34  35
ENDBRANCH   7  34
TORSDOF 11
