REMARK  Name = ZINC39941743
REMARK  7 active torsions:
REMARK  status: ('A' for Active; 'I' for Inactive)
REMARK    1  A    between atoms: C_1  and  C_2
REMARK    2  A    between atoms: C_5  and  S_8
REMARK    3  A    between atoms: S_8  and  N_11
REMARK    4  A    between atoms: N_11  and  C_12
REMARK    5  A    between atoms: C_12  and  C_13
REMARK    6  A    between atoms: N_15  and  N_16
REMARK    7  A    between atoms: C_17  and  C_18
REMARK                            x       y       z     vdW  Elec       q    Type
REMARK                         _______ _______ _______ _____ _____    ______ ____
ROOT
ATOM      1  C   UNL     1       3.767  -5.528   1.029  0.00  0.00    +0.248 C 
ATOM      2  O   UNL     1       3.928  -6.294   0.102  0.00  0.00    -0.273 OA
ATOM      3  N   UNL     1       4.713  -5.418   1.983  0.00  0.00    -0.206 N 
ATOM      4  H   UNL     1       4.584  -4.805   2.724  0.00  0.00    +0.177 HD
ENDROOT
BRANCH   3   5
ATOM      5  N   UNL     1       5.880  -6.188   1.905  0.00  0.00    -0.192 NA
ATOM      6  C   UNL     1       6.778  -6.083   2.812  0.00  0.00    +0.120 C 
BRANCH   6   7
ATOM      7  C   UNL     1       8.033  -6.912   2.728  0.00  0.00    +0.141 C 
ATOM      8  C   UNL     1       8.054  -7.847   3.922  0.00  0.00    +0.001 C 
ATOM      9  C   UNL     1       9.127  -7.766   4.760  0.00  0.00    -0.007 A 
ATOM     10  C   UNL     1       9.227  -8.631   5.936  0.00  0.00    +0.009 A 
ATOM     11  C   UNL     1      10.313  -8.515   6.744  0.00  0.00    +0.001 A 
ATOM     12  C   UNL     1      11.325  -7.594   6.472  0.00  0.00    +0.002 A 
ATOM     13  C   UNL     1      11.292  -6.764   5.397  0.00  0.00    +0.024 A 
ATOM     14  C   UNL     1      10.210  -6.803   4.498  0.00  0.00    +0.040 A 
ATOM     15  N   UNL     1      10.188  -5.984   3.446  0.00  0.00    -0.284 N 
ATOM     16  C   UNL     1       9.203  -5.968   2.565  0.00  0.00    +0.229 C 
ATOM     17  O   UNL     1       9.238  -5.196   1.626  0.00  0.00    -0.274 OA
ATOM     18  H   UNL     1      10.929  -5.370   3.323  0.00  0.00    +0.155 HD
ENDBRANCH   6   7
ENDBRANCH   3   5
BRANCH   1  19
ATOM     19  C   UNL     1       2.512  -4.699   1.113  0.00  0.00    +0.203 C 
BRANCH  19  20
ATOM     20  N   UNL     1       1.651  -4.999  -0.034  0.00  0.00    -0.181 NA
ATOM     21  H   UNL     1       2.011  -5.473  -0.800  0.00  0.00    +0.149 HD
BRANCH  20  22
ATOM     22  S   UNL     1       0.063  -4.530  -0.023  0.00  0.00    +0.059 S 
ATOM     23  O   UNL     1      -0.476  -4.950   1.223  0.00  0.00    -0.153 OA
ATOM     24  O   UNL     1      -0.490  -4.937  -1.267  0.00  0.00    -0.153 OA
BRANCH  22  29
ATOM     25  C   UNL     1      -0.018   1.503   0.010  0.00  0.00    +0.044 C 
ATOM     26  C   UNL     1       0.002  -0.004   0.002  0.00  0.00    -0.050 A 
ATOM     27  C   UNL     1       0.006  -0.689  -1.199  0.00  0.00    +0.005 A 
ATOM     28  C   UNL     1       0.025  -2.071  -1.206  0.00  0.00    +0.029 A 
ATOM     29  C   UNL     1       0.040  -2.768  -0.013  0.00  0.00    +0.105 A 
ATOM     30  C   UNL     1       0.037  -2.084   1.188  0.00  0.00    +0.029 A 
ATOM     31  C   UNL     1       0.023  -0.702   1.195  0.00  0.00    +0.005 A 
ENDBRANCH  22  29
ENDBRANCH  20  22
ENDBRANCH  19  20
ENDBRANCH   1  19
TORSDOF 6
