REMARK  Name = ZINC10039895
REMARK  11 active torsions:
REMARK  status: ('A' for Active; 'I' for Inactive)
REMARK    1  A    between atoms: C_1  and  C_2
REMARK    2  A    between atoms: C_2  and  C_3
REMARK    3  A    between atoms: C_2  and  C_4
REMARK    4  A    between atoms: C_4  and  C_6
REMARK    5  A    between atoms: C_4  and  N_21
REMARK    6  A    between atoms: N_8  and  N_9
REMARK    7  A    between atoms: C_10  and  C_11
REMARK    8  A    between atoms: C_13  and  O_19
REMARK    9  A    between atoms: C_14  and  O_18
REMARK   10  A    between atoms: O_19  and  C_20
REMARK   11  A    between atoms: C_22  and  C_24
REMARK                            x       y       z     vdW  Elec       q    Type
REMARK                         _______ _______ _______ _____ _____    ______ ____
ROOT
ATOM      1  C   UNL     1      -1.349   1.660  -0.126  0.00  0.00    +0.253 C 
ATOM      2  O   UNL     1      -1.436   2.803   0.274  0.00  0.00    -0.272 OA
ATOM      3  N   UNL     1      -0.159   1.177  -0.533  0.00  0.00    -0.205 N 
ATOM      4  H   UNL     1      -0.075   0.244  -0.785  0.00  0.00    +0.177 HD
ENDROOT
BRANCH   3   5
ATOM      5  N   UNL     1       0.956   2.023  -0.598  0.00  0.00    -0.188 NA
ATOM      6  C   UNL     1       2.101   1.559  -0.995  0.00  0.00    +0.138 C 
BRANCH   6   7
ATOM      7  C   UNL     1       3.273   2.450  -1.063  0.00  0.00    -0.001 A 
ATOM      8  C   UNL     1       4.509   1.950  -1.485  0.00  0.00    +0.059 A 
ATOM      9  C   UNL     1       5.604   2.790  -1.552  0.00  0.00    +0.163 A 
ATOM     10  C   UNL     1       5.479   4.129  -1.189  0.00  0.00    +0.173 A 
ATOM     11  C   UNL     1       4.254   4.625  -0.765  0.00  0.00    +0.063 A 
ATOM     12  C   UNL     1       3.154   3.793  -0.700  0.00  0.00    +0.028 A 
ATOM     13 BR   UNL     1       4.091   6.444  -0.274  0.00  0.00    -0.046 Br
BRANCH  10  14
ATOM     14  O   UNL     1       6.558   4.953  -1.252  0.00  0.00    -0.503 OA
ATOM     15  H   UNL     1       7.076   4.985  -0.436  0.00  0.00    +0.292 HD
ENDBRANCH  10  14
BRANCH   9  16
ATOM     16  O   UNL     1       6.806   2.308  -1.968  0.00  0.00    -0.491 OA
ATOM     17  C   UNL     1       6.862   0.926  -2.325  0.00  0.00    +0.277 C 
ENDBRANCH   9  16
ENDBRANCH   6   7
ENDBRANCH   3   5
BRANCH   1  18
ATOM     18  C   UNL     1      -2.573   0.782  -0.167  0.00  0.00    +0.163 C 
BRANCH  18  19
ATOM     19  N   UNL     1      -3.765   1.613  -0.353  0.00  0.00    -0.300 N 
ATOM     20  C   UNL     1      -4.873   1.087  -0.911  0.00  0.00    +0.246 C 
ATOM     21  O   UNL     1      -4.884  -0.077  -1.260  0.00  0.00    -0.270 OA
ATOM     22  H   UNL     1      -3.756   2.543  -0.075  0.00  0.00    +0.150 HD
BRANCH  20  23
ATOM     23  C   UNL     1      -6.075   1.926  -1.099  0.00  0.00    +0.055 A 
ATOM     24  C   UNL     1      -6.066   3.264  -0.699  0.00  0.00    +0.016 A 
ATOM     25  C   UNL     1      -7.190   4.041  -0.877  0.00  0.00    +0.021 A 
ATOM     26  C   UNL     1      -8.329   3.498  -1.451  0.00  0.00    +0.042 A 
ATOM     27  C   UNL     1      -8.345   2.173  -1.849  0.00  0.00    +0.040 A 
ATOM     28  C   UNL     1      -7.224   1.385  -1.682  0.00  0.00    +0.054 A 
ATOM     29 CL   UNL     1      -7.243  -0.275  -2.189  0.00  0.00    -0.083 Cl
ATOM     30 CL   UNL     1      -9.740   4.485  -1.671  0.00  0.00    -0.083 Cl
ENDBRANCH  20  23
ENDBRANCH  18  19
BRANCH  18  32
ATOM     31  C   UNL     1      -1.485  -0.919   1.305  0.00  0.00    +0.009 C 
ATOM     32  C   UNL     1      -2.691   0.009   1.149  0.00  0.00    +0.012 C 
ATOM     33  C   UNL     1      -2.730   0.996   2.318  0.00  0.00    +0.009 C 
ENDBRANCH  18  32
ENDBRANCH   1  18
TORSDOF 8
