REMARK  Name = ZINC39684131
REMARK  10 active torsions:
REMARK  status: ('A' for Active; 'I' for Inactive)
REMARK    1  A    between atoms: C_1  and  C_2
REMARK    2  A    between atoms: C_2  and  C_3
REMARK    3  A    between atoms: C_3  and  C_4
REMARK    4  A    between atoms: C_3  and  C_6
REMARK    5  A    between atoms: C_4  and  C_5
REMARK    6  A    between atoms: C_10  and  C_19
REMARK    7  A    between atoms: N_21  and  C_22
REMARK    8  A    between atoms: C_22  and  C_23
REMARK    9  A    between atoms: C_23  and  C_24
REMARK   10  A    between atoms: C_29  and  C_33
REMARK                            x       y       z     vdW  Elec       q    Type
REMARK                         _______ _______ _______ _____ _____    ______ ____
ROOT
ATOM      1  C   UNL     1      -1.677  -2.058   0.373  0.00  0.00    +0.219 C 
ATOM      2  O   UNL     1      -2.303  -2.835  -0.317  0.00  0.00    -0.275 OA
ATOM      3  N   UNL     1      -0.942  -2.516   1.407  0.00  0.00    -0.300 N 
ATOM      4  C   UNL     1      -0.123  -1.728   2.358  0.00  0.00    +0.121 C 
ATOM      5  C   UNL     1      -0.355  -2.406   3.727  0.00  0.00    +0.100 C 
ATOM      6  C   UNL     1      -0.778  -3.845   3.386  0.00  0.00    -0.004 C 
ATOM      7  C   UNL     1      -0.776  -3.920   1.852  0.00  0.00    +0.115 C 
ATOM      8  C   UNL     1      -2.180  -4.124   3.920  0.00  0.00    -0.010 C 
ATOM      9  C   UNL     1      -2.556  -5.578   3.618  0.00  0.00    -0.082 C 
ATOM     10  N   UNL     1      -1.582  -6.477   4.248  0.00  0.00    +0.379 N 
ATOM     11  C   UNL     1      -0.253  -6.266   3.663  0.00  0.00    -0.082 C 
ATOM     12  C   UNL     1       0.220  -4.841   3.966  0.00  0.00    -0.010 C 
ATOM     13  H   UNL     1      -1.545  -6.290   5.239  0.00  0.00    -0.086 HD
ATOM     14  H   UNL     1      -1.865  -7.434   4.100  0.00  0.00    -0.086 HD
ENDROOT
BRANCH   5  15
ATOM     15  C   UNL     1       0.918  -2.409   4.534  0.00  0.00    +0.218 C 
ATOM     16  O   UNL     1       1.992  -2.364   3.972  0.00  0.00    -0.275 OA
ATOM     17  N   UNL     1       0.863  -2.461   5.879  0.00  0.00    -0.315 N 
ATOM     18  H   UNL     1       0.004  -2.497   6.328  0.00  0.00    +0.149 HD
BRANCH  17  19
ATOM     19  C   UNL     1       2.100  -2.463   6.663  0.00  0.00    +0.109 C 
BRANCH  19  20
ATOM     20  C   UNL     1       1.759  -2.527   8.154  0.00  0.00    +0.056 C 
BRANCH  20  21
ATOM     21  C   UNL     1       3.032  -2.529   8.960  0.00  0.00    -0.021 A 
ATOM     22  C   UNL     1       3.797  -1.354   9.384  0.00  0.00    +0.003 A 
ATOM     23  C   UNL     1       3.637   0.022   9.213  0.00  0.00    +0.010 A 
ATOM     24  C   UNL     1       4.552   0.884   9.748  0.00  0.00    +0.001 A 
ATOM     25  C   UNL     1       5.640   0.402  10.463  0.00  0.00    +0.005 A 
ATOM     26  C   UNL     1       5.818  -0.952  10.644  0.00  0.00    -0.027 A 
ATOM     27  C   UNL     1       4.898  -1.847  10.108  0.00  0.00    +0.050 A 
ATOM     28  N   UNL     1       4.797  -3.221  10.115  0.00  0.00    -0.360 N 
ATOM     29  C   UNL     1       3.677  -3.608   9.432  0.00  0.00    +0.087 A 
ATOM     30  C   UNL     1       7.004  -1.462  11.421  0.00  0.00    +0.046 C 
ATOM     31  H   UNL     1       5.425  -3.823  10.543  0.00  0.00    +0.165 HD
ENDBRANCH  20  21
ENDBRANCH  19  20
ENDBRANCH  17  19
ENDBRANCH   5  15
BRANCH   1  32
ATOM     32  C   UNL     1      -1.720  -0.582   0.075  0.00  0.00    +0.075 C 
BRANCH  32  34
ATOM     33  C   UNL     1      -0.329   1.441  -0.388  0.00  0.00    +0.004 C 
ATOM     34  C   UNL     1      -0.307  -0.080  -0.225  0.00  0.00    +0.009 C 
ENDBRANCH  32  34
BRANCH  32  35
ATOM     35  C   UNL     1      -2.619  -0.332  -1.138  0.00  0.00    +0.009 C 
ATOM     36  C   UNL     1      -4.065  -0.682  -0.781  0.00  0.00    +0.004 C 
ENDBRANCH  32  35
ENDBRANCH   1  32
TORSDOF 7
