REMARK  Name = ZINC37055405
REMARK  10 active torsions:
REMARK  status: ('A' for Active; 'I' for Inactive)
REMARK    1  A    between atoms: C_1  and  C_2
REMARK    2  A    between atoms: C_2  and  N_3
REMARK    3  A    between atoms: N_3  and  C_4
REMARK    4  A    between atoms: N_3  and  C_6
REMARK    5  A    between atoms: C_4  and  C_5
REMARK    6  A    between atoms: C_6  and  C_7
REMARK    7  A    between atoms: C_7  and  N_8
REMARK    8  A    between atoms: N_8  and  S_9
REMARK    9  A    between atoms: S_9  and  C_12
REMARK   10  A    between atoms: C_13  and  N_20
REMARK                            x       y       z     vdW  Elec       q    Type
REMARK                         _______ _______ _______ _____ _____    ______ ____
ROOT
ATOM      1  S   UNL     1      -8.423  -3.768   2.086  0.00  0.00    +0.061 S 
ATOM      2  O   UNL     1      -9.042  -5.044   2.165  0.00  0.00    -0.153 OA
ATOM      3  O   UNL     1      -8.248  -2.934   3.223  0.00  0.00    -0.153 OA
ENDROOT
BRANCH   1   4
ATOM      4  C   UNL     1      -9.345  -2.832   0.912  0.00  0.00    +0.140 A 
ATOM      5  C   UNL     1      -9.382  -1.446   1.001  0.00  0.00    +0.053 A 
ATOM      6  C   UNL     1     -10.110  -0.712   0.074  0.00  0.00    +0.040 A 
ATOM      7  C   UNL     1     -10.796  -1.361  -0.935  0.00  0.00    +0.021 A 
ATOM      8  C   UNL     1     -10.758  -2.742  -1.021  0.00  0.00    +0.032 A 
ATOM      9  C   UNL     1     -10.029  -3.475  -0.102  0.00  0.00    +0.047 A 
ATOM     10 BR   UNL     1      -9.974  -5.361  -0.229  0.00  0.00    -0.048 Br
ATOM     11 BR   UNL     1     -11.787  -0.363  -2.198  0.00  0.00    -0.050 Br
BRANCH   5  12
ATOM     12  N   UNL     1      -8.688  -0.792   2.022  0.00  0.00    -0.356 N 
ATOM     13  H   UNL     1      -7.906  -1.207   2.420  0.00  0.00    +0.142 HD
ATOM     14  H   UNL     1      -8.987   0.076   2.333  0.00  0.00    +0.142 HD
ENDBRANCH   5  12
ENDBRANCH   1   4
BRANCH   1  15
ATOM     15  N   UNL     1      -6.916  -4.011   1.442  0.00  0.00    -0.192 NA
ATOM     16  H   UNL     1      -6.623  -4.909   1.220  0.00  0.00    +0.148 HD
BRANCH  15  17
ATOM     17  C   UNL     1      -6.027  -2.871   1.208  0.00  0.00    +0.087 C 
BRANCH  17  18
ATOM     18  C   UNL     1      -4.601  -3.376   0.973  0.00  0.00    -0.062 C 
BRANCH  18  19
ATOM     19  N   UNL     1      -3.711  -2.234   0.730  0.00  0.00    +0.380 N 
ATOM     20  H   UNL     1      -4.076  -1.679  -0.030  0.00  0.00    -0.082 HD
BRANCH  19  22
ATOM     21  C   UNL     1      -2.803  -0.155   1.651  0.00  0.00    -0.017 C 
ATOM     22  C   UNL     1      -3.629  -1.409   1.942  0.00  0.00    -0.082 C 
ENDBRANCH  19  22
BRANCH  19  23
ATOM     23  C   UNL     1      -2.371  -2.723   0.379  0.00  0.00    -0.082 C 
ATOM     24  C   UNL     1      -2.431  -3.457  -0.962  0.00  0.00    -0.017 C 
ENDBRANCH  19  23
ENDBRANCH  18  19
ENDBRANCH  17  18
ENDBRANCH  15  17
ENDBRANCH   1  15
TORSDOF 8
