REMARK  Name = ZINC20927386
REMARK  10 active torsions:
REMARK  status: ('A' for Active; 'I' for Inactive)
REMARK    1  A    between atoms: C_1  and  O_2
REMARK    2  A    between atoms: O_2  and  C_3
REMARK    3  A    between atoms: C_6  and  C_10
REMARK    4  A    between atoms: C_10  and  N_11
REMARK    5  A    between atoms: N_11  and  C_12
REMARK    6  A    between atoms: C_12  and  C_13
REMARK    7  A    between atoms: C_13  and  C_14
REMARK    8  A    between atoms: C_14  and  S_15
REMARK    9  A    between atoms: S_15  and  C_16
REMARK   10  A    between atoms: N_20  and  C_21
REMARK                            x       y       z     vdW  Elec       q    Type
REMARK                         _______ _______ _______ _____ _____    ______ ____
ROOT
ATOM      1  C   UNL     1       0.002  -0.004   0.002  0.00  0.00    -0.081 C 
ENDROOT
BRANCH   1   2
ATOM      2  N   UNL     1      -0.018   1.465   0.010  0.00  0.00    +0.382 N 
ATOM      3  H   UNL     1      -0.542   1.806   0.915  0.00  0.00    -0.085 HD
ATOM      4  H   UNL     1      -0.559   1.815  -0.881  0.00  0.00    -0.085 HD
BRANCH   2   5
ATOM      5  C   UNL     1       1.346   2.010   0.000  0.00  0.00    -0.047 C 
BRANCH   5   9
ATOM      6  C   UNL     1       1.175   6.281   0.025  0.00  0.00    +0.148 A 
ATOM      7  C   UNL     1       1.214   5.580   1.222  0.00  0.00    +0.061 A 
ATOM      8  C   UNL     1       1.269   4.199   1.211  0.00  0.00    +0.020 A 
ATOM      9  C   UNL     1       1.286   3.516   0.009  0.00  0.00    -0.062 A 
ATOM     10  C   UNL     1       1.252   4.212  -1.185  0.00  0.00    +0.020 A 
ATOM     11  C   UNL     1       1.192   5.593  -1.181  0.00  0.00    +0.061 A 
ATOM     12 BR   UNL     1       1.138   6.544  -2.814  0.00  0.00    -0.046 Br
ATOM     13 BR   UNL     1       1.191   6.513   2.866  0.00  0.00    -0.046 Br
BRANCH   6  15
ATOM     14  C   UNL     1       2.367   8.339   0.025  0.00  0.00    +0.277 C 
ATOM     15  O   UNL     1       1.121   7.639   0.032  0.00  0.00    -0.493 OA
ENDBRANCH   6  15
ENDBRANCH   5   9
ENDBRANCH   2   5
ENDBRANCH   1   2
BRANCH   1  16
ATOM     16  C   UNL     1      -1.433  -0.534   0.013  0.00  0.00    -0.008 C 
BRANCH  16  17
ATOM     17  C   UNL     1      -1.413  -2.063   0.004  0.00  0.00    +0.075 C 
BRANCH  17  18
ATOM     18  S   UNL     1      -3.111  -2.690   0.017  0.00  0.00    -0.084 S 
BRANCH  18  19
ATOM     19  C   UNL     1      -2.797  -4.424   0.005  0.00  0.00    +0.214 A 
ATOM     20  N   UNL     1      -1.617  -5.005  -0.009  0.00  0.00    -0.101 NA
ATOM     21  N   UNL     1      -1.745  -6.283  -0.014  0.00  0.00    -0.022 NA
ATOM     22  N   UNL     1      -2.992  -6.610  -0.004  0.00  0.00    -0.038 NA
ATOM     23  N   UNL     1      -3.727  -5.412   0.014  0.00  0.00    -0.187 N 
BRANCH  23  24
ATOM     24  C   UNL     1      -5.122  -5.269   0.035  0.00  0.00    +0.070 A 
ATOM     25  C   UNL     1      -5.703  -4.225   0.742  0.00  0.00    +0.028 A 
ATOM     26  C   UNL     1      -7.077  -4.083   0.756  0.00  0.00    +0.002 A 
ATOM     27  C   UNL     1      -7.874  -4.987   0.076  0.00  0.00    +0.000 A 
ATOM     28  C   UNL     1      -7.298  -6.030  -0.624  0.00  0.00    +0.002 A 
ATOM     29  C   UNL     1      -5.924  -6.174  -0.647  0.00  0.00    +0.028 A 
ENDBRANCH  23  24
ENDBRANCH  18  19
ENDBRANCH  17  18
ENDBRANCH  16  17
ENDBRANCH   1  16
TORSDOF 9
