REMARK  Name = ZINC12884174
REMARK  11 active torsions:
REMARK  status: ('A' for Active; 'I' for Inactive)
REMARK    1  A    between atoms: C_1  and  C_2
REMARK    2  A    between atoms: C_2  and  C_3
REMARK    3  A    between atoms: C_3  and  C_4
REMARK    4  A    between atoms: C_4  and  N_5
REMARK    5  A    between atoms: C_6  and  N_34
REMARK    6  A    between atoms: C_7  and  N_14
REMARK    7  A    between atoms: N_14  and  C_15
REMARK    8  A    between atoms: C_15  and  C_16
REMARK    9  A    between atoms: C_17  and  C_19
REMARK   10  A    between atoms: N_24  and  S_26
REMARK   11  A    between atoms: S_26  and  C_29
REMARK                            x       y       z     vdW  Elec       q    Type
REMARK                         _______ _______ _______ _____ _____    ______ ____
ROOT
ATOM      1  N   UNL     1      -0.659   1.840  -1.026  0.00  0.00    -0.264 N 
ATOM      2  C   UNL     1      -0.440   2.910  -1.818  0.00  0.00    +0.224 C 
ATOM      3  O   UNL     1       0.638   3.469  -1.798  0.00  0.00    -0.275 OA
ENDROOT
BRANCH   1   6
ATOM      4  N   UNL     1      -3.441  -0.190  -2.309  0.00  0.00    -0.280 N 
ATOM      5  C   UNL     1      -2.243   0.486  -2.264  0.00  0.00    +0.127 A 
ATOM      6  C   UNL     1      -1.884   1.143  -1.105  0.00  0.00    +0.140 A 
ATOM      7  C   UNL     1      -2.763   1.113  -0.006  0.00  0.00    +0.277 A 
ATOM      8  O   UNL     1      -2.472   1.689   1.028  0.00  0.00    -0.266 OA
ATOM      9  N   UNL     1      -3.927   0.441  -0.104  0.00  0.00    -0.273 N 
ATOM     10  H   UNL     1      -4.551   0.418   0.676  0.00  0.00    +0.173 HD
ATOM     11  C   UNL     1      -4.258  -0.199  -1.240  0.00  0.00    +0.331 A 
ATOM     12  O   UNL     1      -5.315  -0.797  -1.302  0.00  0.00    -0.246 OA
BRANCH   5  13
ATOM     13  N   UNL     1      -1.412   0.500  -3.358  0.00  0.00    -0.343 N 
ATOM     14  H   UNL     1      -0.529   0.898  -3.291  0.00  0.00    +0.144 HD
ATOM     15  H   UNL     1      -1.707   0.114  -4.197  0.00  0.00    +0.144 HD
ENDBRANCH   5  13
BRANCH   4  16
ATOM     16  C   UNL     1      -3.832  -0.897  -3.530  0.00  0.00    +0.128 C 
BRANCH  16  17
ATOM     17  C   UNL     1      -4.616   0.051  -4.440  0.00  0.00    +0.021 C 
BRANCH  17  19
ATOM     18  C   UNL     1      -5.808   0.261  -6.626  0.00  0.00    +0.004 C 
ATOM     19  C   UNL     1      -5.025  -0.687  -5.716  0.00  0.00    -0.002 C 
ENDBRANCH  17  19
ENDBRANCH  16  17
ENDBRANCH   4  16
ENDBRANCH   1   6
BRANCH   2  20
ATOM     20  C   UNL     1      -1.532   3.412  -2.727  0.00  0.00    +0.091 C 
ATOM     21  C   UNL     1      -2.800   3.666  -1.910  0.00  0.00    +0.015 C 
ATOM     22  C   UNL     1      -3.919   4.145  -2.837  0.00  0.00    +0.018 C 
ATOM     23  C   UNL     1      -3.500   5.460  -3.501  0.00  0.00    +0.109 C 
ATOM     24  N   UNL     1      -2.206   5.261  -4.169  0.00  0.00    -0.175 NA
ATOM     25  C   UNL     1      -1.085   4.719  -3.389  0.00  0.00    +0.122 C 
BRANCH  24  26
ATOM     26  S   UNL     1      -2.016   5.641  -5.769  0.00  0.00    +0.067 S 
ATOM     27  O   UNL     1      -3.008   6.611  -6.077  0.00  0.00    -0.152 OA
ATOM     28  O   UNL     1      -0.629   5.880  -5.968  0.00  0.00    -0.152 OA
BRANCH  26  29
ATOM     29  C   UNL     1      -2.416   4.198  -6.698  0.00  0.00    +0.143 A 
ATOM     30  C   UNL     1      -3.615   3.808  -7.194  0.00  0.00    +0.036 A 
ATOM     31  C   UNL     1      -3.694   2.623  -7.902  0.00  0.00    +0.010 A 
ATOM     32  C   UNL     1      -2.570   1.887  -8.079  0.00  0.00    +0.047 A 
ATOM     33  S   UNL     1      -1.345   2.875  -7.236  0.00  0.00    -0.077 S 
ENDBRANCH  26  29
ENDBRANCH  24  26
ENDBRANCH   2  20
BRANCH   1  34
ATOM     34  C   UNL     1       0.373   1.401  -0.083  0.00  0.00    +0.110 C 
ATOM     35  C   UNL     1       0.277   2.229   1.200  0.00  0.00    +0.025 C 
ENDBRANCH   1  34
TORSDOF 9
