REMARK  Name = ZINC36316480
REMARK  17 active torsions:
REMARK  status: ('A' for Active; 'I' for Inactive)
REMARK    1  A    between atoms: C_1  and  C_2
REMARK    2  A    between atoms: C_2  and  C_3
REMARK    3  A    between atoms: C_3  and  N_4
REMARK    4  A    between atoms: N_4  and  C_5
REMARK    5  A    between atoms: N_4  and  C_27
REMARK    6  A    between atoms: C_5  and  C_6
REMARK    7  A    between atoms: C_7  and  C_25
REMARK    8  A    between atoms: N_9  and  C_19
REMARK    9  A    between atoms: C_10  and  O_11
REMARK   10  A    between atoms: O_11  and  C_12
REMARK   11  A    between atoms: C_25  and  C_26
REMARK   12  A    between atoms: C_27  and  C_28
REMARK   13  A    between atoms: C_28  and  C_30
REMARK   14  A    between atoms: C_28  and  O_34
REMARK   15  A    between atoms: C_30  and  O_31
REMARK   16  A    between atoms: O_31  and  C_32
REMARK   17  A    between atoms: C_32  and  C_33
REMARK                            x       y       z     vdW  Elec       q    Type
REMARK                         _______ _______ _______ _____ _____    ______ ____
ROOT
ATOM      1  C   UNL     1       0.640  -2.715  -1.385  0.00  0.00    +0.021 A 
ATOM      2  C   UNL     1      -0.570  -3.023  -2.016  0.00  0.00    +0.068 A 
ATOM      3  N   UNL     1      -0.754  -2.174  -2.994  0.00  0.00    -0.168 NA
ATOM      4  N   UNL     1       0.334  -1.291  -3.024  0.00  0.00    -0.200 N 
ATOM      5  C   UNL     1       1.180  -1.640  -2.019  0.00  0.00    +0.225 A 
ENDROOT
BRANCH   4   6
ATOM      6  C   UNL     1       0.515  -0.234  -3.927  0.00  0.00    +0.069 A 
ATOM      7  C   UNL     1       1.083   0.957  -3.497  0.00  0.00    +0.028 A 
ATOM      8  C   UNL     1       1.260   1.997  -4.389  0.00  0.00    +0.002 A 
ATOM      9  C   UNL     1       0.872   1.853  -5.708  0.00  0.00    +0.000 A 
ATOM     10  C   UNL     1       0.305   0.667  -6.139  0.00  0.00    +0.002 A 
ATOM     11  C   UNL     1       0.131  -0.379  -5.253  0.00  0.00    +0.028 A 
ENDBRANCH   4   6
BRANCH   2  12
ATOM     12  C   UNL     1      -1.503  -4.142  -1.633  0.00  0.00    +0.054 C 
ATOM     13  C   UNL     1      -2.514  -3.634  -0.604  0.00  0.00    +0.010 C 
ENDBRANCH   2  12
BRANCH   1  14
ATOM     14  C   UNL     1       1.236  -3.442  -0.207  0.00  0.00    -0.036 C 
BRANCH  14  15
ATOM     15  N   UNL     1       0.640  -2.932   1.036  0.00  0.00    +0.384 N 
ATOM     16  H   UNL     1      -0.365  -2.997   0.978  0.00  0.00    -0.081 HD
BRANCH  15  17
ATOM     17  C   UNL     1       1.031  -1.529   1.225  0.00  0.00    -0.079 C 
BRANCH  17  19
ATOM     18  C   UNL     1       2.967   0.022   1.523  0.00  0.00    +0.002 C 
ATOM     19  C   UNL     1       2.542  -1.446   1.451  0.00  0.00    -0.022 C 
ENDBRANCH  17  19
ENDBRANCH  15  17
BRANCH  15  20
ATOM     20  C   UNL     1       1.119  -3.732   2.172  0.00  0.00    -0.044 C 
BRANCH  20  21
ATOM     21  C   UNL     1       0.366  -3.319   3.438  0.00  0.00    +0.124 C 
BRANCH  21  22
ATOM     22  O   UNL     1       0.724  -1.980   3.790  0.00  0.00    -0.391 OA
ATOM     23  H   UNL     1       1.667  -1.859   3.966  0.00  0.00    +0.210 HD
ENDBRANCH  21  22
BRANCH  21  24
ATOM     24  C   UNL     1       0.738  -4.263   4.583  0.00  0.00    +0.189 C 
BRANCH  24  25
ATOM     25  O   UNL     1      -0.051  -3.951   5.733  0.00  0.00    -0.378 OA
BRANCH  25  26
ATOM     26  C   UNL     1       0.220  -4.780   6.865  0.00  0.00    +0.156 C 
ATOM     27  C   UNL     1      -0.677  -4.358   8.031  0.00  0.00    +0.034 C 
ENDBRANCH  25  26
ENDBRANCH  24  25
ENDBRANCH  21  24
ENDBRANCH  20  21
ENDBRANCH  15  20
ENDBRANCH  14  15
ENDBRANCH   1  14
BRANCH   5  28
ATOM     28  O   UNL     1       2.351  -1.029  -1.706  0.00  0.00    -0.435 OA
BRANCH  28  29
ATOM     29  C   UNL     1       3.464  -1.391  -2.398  0.00  0.00    +0.165 A 
ATOM     30  C   UNL     1       3.365  -2.283  -3.455  0.00  0.00    +0.049 A 
ATOM     31  C   UNL     1       4.498  -2.650  -4.157  0.00  0.00    +0.004 A 
ATOM     32  C   UNL     1       5.730  -2.128  -3.806  0.00  0.00    +0.003 A 
ATOM     33  C   UNL     1       5.833  -1.239  -2.753  0.00  0.00    +0.042 A 
ATOM     34  C   UNL     1       4.702  -0.864  -2.050  0.00  0.00    +0.165 A 
ATOM     35  F   UNL     1       4.801   0.009  -1.024  0.00  0.00    -0.202 F 
ENDBRANCH  28  29
ENDBRANCH   5  28
TORSDOF 14
