REMARK  Name = ZINC64031847
REMARK  4 active torsions:
REMARK  status: ('A' for Active; 'I' for Inactive)
REMARK    1  A    between atoms: C_1  and  C_2
REMARK    2  A    between atoms: N_23  and  C_24
REMARK    3  A    between atoms: C_24  and  C_25
REMARK    4  A    between atoms: C_25  and  C_26
REMARK                            x       y       z     vdW  Elec       q    Type
REMARK                         _______ _______ _______ _____ _____    ______ ____
ROOT
ATOM      1  C   UNL     1      -0.019   1.526   0.010  0.00  0.00    +0.033 C 
ATOM      2  C   UNL     1       0.002  -0.004   0.002  0.00  0.00    +0.110 C 
ATOM      3  C   UNL     1      -1.411  -0.522   0.006  0.00  0.00    +0.060 A 
ATOM      4  C   UNL     1      -1.840  -1.536   0.794  0.00  0.00    +0.052 A 
ATOM      5  N   UNL     1      -3.160  -1.747   0.545  0.00  0.00    -0.292 N 
ATOM      6  H   UNL     1      -3.721  -2.415   0.971  0.00  0.00    +0.187 HD
ATOM      7  N   UNL     1      -3.571  -0.830  -0.434  0.00  0.00    -0.194 N 
ATOM      8  C   UNL     1      -2.500  -0.077  -0.767  0.00  0.00    +0.279 A 
ATOM      9  O   UNL     1      -2.481   0.823  -1.587  0.00  0.00    -0.265 OA
ATOM     10  C   UNL     1      -4.845  -0.717  -0.963  0.00  0.00    +0.196 A 
ATOM     11  N   UNL     1      -5.285   0.113  -1.881  0.00  0.00    -0.221 NA
ATOM     12  C   UNL     1      -6.566   0.111  -2.307  0.00  0.00    +0.081 A 
ATOM     13  C   UNL     1      -7.164   0.945  -3.280  0.00  0.00    +0.029 A 
ATOM     14  C   UNL     1      -8.491   0.811  -3.597  0.00  0.00    +0.002 A 
ATOM     15  C   UNL     1      -9.291  -0.140  -2.980  0.00  0.00    +0.001 A 
ATOM     16  C   UNL     1      -8.739  -0.972  -2.023  0.00  0.00    +0.017 A 
ATOM     17  C   UNL     1      -7.412  -0.846  -1.700  0.00  0.00    +0.041 A 
ATOM     18  S   UNL     1      -6.307  -1.669  -0.578  0.00  0.00    -0.048 S 
ATOM     19  C   UNL     1      -0.948  -2.267   1.764  0.00  0.00    +0.151 C 
ATOM     20  C   UNL     1       0.316  -1.481   1.965  0.00  0.00    +0.222 C 
ATOM     21  O   UNL     1       1.021  -1.774   2.908  0.00  0.00    -0.275 OA
ATOM     22  N   UNL     1       0.713  -0.484   1.180  0.00  0.00    -0.294 N 
ENDROOT
BRANCH  22  23
ATOM     23  C   UNL     1       1.970   0.183   1.528  0.00  0.00    +0.113 C 
BRANCH  23  24
ATOM     24  C   UNL     1       1.683   1.355   2.469  0.00  0.00    +0.052 C 
BRANCH  24  25
ATOM     25  C   UNL     1       2.976   2.042   2.825  0.00  0.00    -0.040 C 
ATOM     26  C   UNL     1       3.510   3.130   2.227  0.00  0.00    +0.002 A 
ATOM     27  C   UNL     1       3.065   3.968   1.107  0.00  0.00    +0.048 A 
ATOM     28  C   UNL     1       3.833   5.016   0.725  0.00  0.00    +0.124 A 
ATOM     29  C   UNL     1       5.041   5.319   1.373  0.00  0.00    +0.040 A 
ATOM     30  C   UNL     1       5.515   4.595   2.408  0.00  0.00    +0.029 A 
ATOM     31  C   UNL     1       4.788   3.471   2.893  0.00  0.00    +0.043 A 
ATOM     32  N   UNL     1       5.034   2.627   3.864  0.00  0.00    -0.380 N 
ATOM     33  C   UNL     1       3.935   1.657   3.930  0.00  0.00    +0.144 C 
ATOM     34  F   UNL     1       3.426   5.789  -0.305  0.00  0.00    -0.205 F 
ATOM     35  H   UNL     1       5.810   2.643   4.446  0.00  0.00    +0.160 HD
ENDBRANCH  24  25
ENDBRANCH  23  24
ENDBRANCH  22  23
TORSDOF 3
