REMARK  Name = ZINC22063066
REMARK  5 active torsions:
REMARK  status: ('A' for Active; 'I' for Inactive)
REMARK    1  A    between atoms: N_13  and  C_17
REMARK    2  A    between atoms: C_17  and  C_18
REMARK    3  A    between atoms: N_20  and  C_21
REMARK    4  A    between atoms: C_26  and  S_27
REMARK    5  A    between atoms: S_27  and  C_30
REMARK                            x       y       z     vdW  Elec       q    Type
REMARK                         _______ _______ _______ _____ _____    ______ ____
ROOT
ATOM      1  C   UNL     1      -4.139   8.730   4.201  0.00  0.00    +0.001 A 
ATOM      2  C   UNL     1      -4.851   9.890   4.444  0.00  0.00    +0.004 A 
ATOM      3  C   UNL     1      -4.604  11.020   3.691  0.00  0.00    +0.046 A 
ATOM      4  C   UNL     1      -3.641  10.997   2.688  0.00  0.00    +0.126 A 
ATOM      5  C   UNL     1      -2.926   9.835   2.450  0.00  0.00    +0.027 A 
ATOM      6  C   UNL     1      -3.180   8.703   3.207  0.00  0.00    +0.010 A 
ATOM      7  C   UNL     1      -1.872   9.777   1.379  0.00  0.00    +0.144 C 
ATOM      8  C   UNL     1      -2.028  10.942   0.406  0.00  0.00    +0.081 C 
ATOM      9  C   UNL     1      -2.212  12.230   1.221  0.00  0.00    +0.232 C 
ATOM     10  O   UNL     1      -3.428  12.125   1.963  0.00  0.00    -0.492 OA
ATOM     11  C   UNL     1      -1.938   8.463   0.637  0.00  0.00    +0.252 C 
ATOM     12  O   UNL     1      -2.866   8.033  -0.013  0.00  0.00    -0.272 OA
ATOM     13  N   UNL     1      -0.746   7.868   0.852  0.00  0.00    -0.215 N 
ATOM     14  C   UNL     1       0.053   8.626   1.614  0.00  0.00    +0.310 C 
ATOM     15  O   UNL     1       1.178   8.305   1.941  0.00  0.00    -0.252 OA
ATOM     16  N   UNL     1      -0.531   9.784   1.977  0.00  0.00    -0.281 N 
ATOM     17  H   UNL     1      -0.203  10.641   2.583  0.00  0.00    +0.152 HD
ENDROOT
BRANCH  13  18
ATOM     18  C   UNL     1      -0.371   6.558   0.315  0.00  0.00    +0.214 C 
BRANCH  18  19
ATOM     19  C   UNL     1      -0.759   5.482   1.296  0.00  0.00    +0.235 C 
ATOM     20  O   UNL     1      -1.297   5.780   2.341  0.00  0.00    -0.274 OA
ATOM     21  N   UNL     1      -0.509   4.189   1.012  0.00  0.00    -0.283 N 
ATOM     22  H   UNL     1       0.042   3.923   0.098  0.00  0.00    +0.155 HD
BRANCH  21  23
ATOM     23  C   UNL     1      -0.952   3.184   1.879  0.00  0.00    +0.059 A 
ATOM     24  C   UNL     1      -0.976   3.408   3.249  0.00  0.00    +0.025 A 
ATOM     25  C   UNL     1      -1.413   2.414   4.103  0.00  0.00    +0.002 A 
ATOM     26  C   UNL     1      -1.825   1.196   3.594  0.00  0.00    +0.002 A 
ATOM     27  C   UNL     1      -1.807   0.971   2.230  0.00  0.00    +0.029 A 
ATOM     28  C   UNL     1      -1.366   1.960   1.371  0.00  0.00    +0.116 A 
BRANCH  28  29
ATOM     29  S   UNL     1      -1.337   1.670  -0.366  0.00  0.00    +0.060 S 
ATOM     30  O   UNL     1      -1.795   0.333  -0.519  0.00  0.00    -0.164 OA
ATOM     31  O   UNL     1      -0.026   2.037  -0.773  0.00  0.00    -0.164 OA
BRANCH  29  32
ATOM     32  C   UNL     1      -2.552   2.829  -1.053  0.00  0.00    +0.485 C 
ATOM     33  F   UNL     1      -3.811   2.563  -0.505  0.00  0.00    -0.183 F 
ATOM     34  F   UNL     1      -2.175   4.139  -0.741  0.00  0.00    -0.183 F 
ENDBRANCH  29  32
ENDBRANCH  28  29
ENDBRANCH  21  23
ENDBRANCH  18  19
ENDBRANCH  13  18
TORSDOF 5
