REMARK  Name = ZINC40568549
REMARK  11 active torsions:
REMARK  status: ('A' for Active; 'I' for Inactive)
REMARK    1  A    between atoms: C_1  and  C_2
REMARK    2  A    between atoms: C_2  and  C_3
REMARK    3  A    between atoms: C_3  and  C_4
REMARK    4  A    between atoms: C_3  and  C_6
REMARK    5  A    between atoms: C_4  and  C_5
REMARK    6  A    between atoms: C_6  and  C_8
REMARK    7  A    between atoms: C_6  and  C_18
REMARK    8  A    between atoms: C_9  and  C_17
REMARK    9  A    between atoms: N_10  and  C_16
REMARK   10  A    between atoms: C_21  and  C_26
REMARK   11  A    between atoms: N_22  and  C_25
REMARK                            x       y       z     vdW  Elec       q    Type
REMARK                         _______ _______ _______ _____ _____    ______ ____
ROOT
ATOM      1  C   UNL     1      -2.181  -0.327   1.710  0.00  0.00    +0.067 C 
ENDROOT
BRANCH   1   2
ATOM      2  C   UNL     1      -3.564  -0.809   1.355  0.00  0.00    +0.026 A 
ATOM      3  C   UNL     1      -3.804  -2.130   1.212  0.00  0.00    +0.026 A 
ATOM      4  N   UNL     1      -5.045  -2.582   0.893  0.00  0.00    -0.315 N 
ATOM      5  C   UNL     1      -6.070  -1.728   0.709  0.00  0.00    +0.255 A 
ATOM      6  O   UNL     1      -7.176  -2.158   0.423  0.00  0.00    -0.268 OA
ATOM      7  C   UNL     1      -5.869  -0.350   0.847  0.00  0.00    +0.121 A 
ATOM      8  C   UNL     1      -4.611   0.118   1.176  0.00  0.00    +0.189 A 
ATOM      9  O   UNL     1      -4.386   1.446   1.321  0.00  0.00    -0.287 OA
ATOM     10  C   UNL     1      -5.272  -4.022   0.746  0.00  0.00    +0.152 C 
ATOM     11  C   UNL     1      -2.682  -3.115   1.410  0.00  0.00    +0.064 C 
ENDBRANCH   1   2
BRANCH   1  12
ATOM     12  C   UNL     1      -2.100   1.164   1.504  0.00  0.00    +0.071 A 
ATOM     13  C   UNL     1      -1.514   1.972   2.460  0.00  0.00    +0.190 A 
ATOM     14  C   UNL     1      -1.454   3.362   2.236  0.00  0.00    +0.072 A 
ATOM     15  C   UNL     1      -1.967   3.882   1.100  0.00  0.00    +0.022 A 
ATOM     16  N   UNL     1      -2.543   3.081   0.165  0.00  0.00    -0.315 N 
ATOM     17  C   UNL     1      -2.613   1.748   0.340  0.00  0.00    +0.259 A 
ATOM     18  O   UNL     1      -3.130   1.048  -0.516  0.00  0.00    -0.267 OA
ATOM     19  C   UNL     1      -3.090   3.677  -1.056  0.00  0.00    +0.152 C 
ATOM     20  C   UNL     1      -1.901   5.369   0.866  0.00  0.00    +0.064 C 
ATOM     21  O   UNL     1      -1.004   1.437   3.595  0.00  0.00    -0.287 OA
ENDBRANCH   1  12
BRANCH   1  22
ATOM     22  C   UNL     1      -1.153  -1.021   0.814  0.00  0.00    +0.001 C 
BRANCH  22  24
ATOM     23  C   UNL     1      -2.731  -1.327  -1.099  0.00  0.00    +0.004 C 
ATOM     24  C   UNL     1      -1.427  -0.665  -0.648  0.00  0.00    +0.001 C 
ENDBRANCH  22  24
BRANCH  22  25
ATOM     25  C   UNL     1       0.254  -0.557   1.197  0.00  0.00    +0.001 C 
ATOM     26  C   UNL     1       0.565  -0.998   2.628  0.00  0.00    +0.004 C 
ENDBRANCH  22  25
ENDBRANCH   1  22
TORSDOF 5
