REMARK  Name = ZINC48752178
REMARK  8 active torsions:
REMARK  status: ('A' for Active; 'I' for Inactive)
REMARK    1  A    between atoms: C_1  and  N_2
REMARK    2  A    between atoms: N_2  and  C_3
REMARK    3  A    between atoms: N_2  and  C_4
REMARK    4  A    between atoms: C_4  and  C_9
REMARK    5  A    between atoms: C_9  and  N_10
REMARK    6  A    between atoms: C_11  and  C_13
REMARK    7  A    between atoms: N_15  and  C_16
REMARK    8  A    between atoms: C_21  and  N_22
REMARK                            x       y       z     vdW  Elec       q    Type
REMARK                         _______ _______ _______ _____ _____    ______ ____
ROOT
ATOM      1  C   UNL     1      -3.610   3.406   1.563  0.00  0.00    +0.303 C 
ATOM      2  O   UNL     1      -3.288   3.961   0.533  0.00  0.00    -0.265 OA
ATOM      3  N   UNL     1      -4.198   4.108   2.552  0.00  0.00    -0.276 N 
ATOM      4  H   UNL     1      -4.390   3.682   3.401  0.00  0.00    +0.155 HD
ENDROOT
BRANCH   3   5
ATOM      5  C   UNL     1      -4.529   5.451   2.353  0.00  0.00    +0.061 A 
ATOM      6  C   UNL     1      -4.664   5.952   1.065  0.00  0.00    +0.025 A 
ATOM      7  C   UNL     1      -4.993   7.279   0.871  0.00  0.00    +0.003 A 
ATOM      8  C   UNL     1      -5.187   8.114   1.956  0.00  0.00    +0.022 A 
ATOM      9  C   UNL     1      -5.055   7.625   3.243  0.00  0.00    +0.068 A 
ATOM     10  C   UNL     1      -4.731   6.291   3.448  0.00  0.00    +0.106 A 
ATOM     11 CL   UNL     1      -5.299   8.678   4.601  0.00  0.00    -0.081 Cl
BRANCH  10  12
ATOM     12  N   UNL     1      -4.602   5.791   4.752  0.00  0.00    -0.217 N 
ATOM     13  C   UNL     1      -3.584   5.055   5.237  0.00  0.00    +0.225 A 
ATOM     14  N   UNL     1      -3.839   4.788   6.493  0.00  0.00    -0.222 NA
ATOM     15  C   UNL     1      -5.003   5.333   6.843  0.00  0.00    +0.245 A 
ATOM     16  N   UNL     1      -5.506   5.963   5.813  0.00  0.00    -0.153 NA
ENDBRANCH  10  12
ENDBRANCH   3   5
BRANCH   1  18
ATOM     17  N   UNL     1      -2.768   1.242   0.746  0.00  0.00    -0.309 N 
ATOM     18  C   UNL     1      -3.355   1.944   1.735  0.00  0.00    +0.299 C 
ATOM     19  O   UNL     1      -3.677   1.389   2.765  0.00  0.00    -0.265 OA
ATOM     20  H   UNL     1      -2.510   1.685  -0.077  0.00  0.00    +0.149 HD
BRANCH  17  21
ATOM     21  C   UNL     1      -2.518  -0.192   0.915  0.00  0.00    +0.093 C 
BRANCH  21  22
ATOM     22  C   UNL     1      -1.941  -0.765  -0.381  0.00  0.00    -0.050 C 
ATOM     23  C   UNL     1      -2.985  -0.669  -1.513  0.00  0.00    -0.010 C 
ATOM     24  C   UNL     1      -2.781  -1.969  -2.329  0.00  0.00    -0.001 C 
ATOM     25  C   UNL     1      -2.486  -3.020  -1.230  0.00  0.00    -0.001 C 
ATOM     26  C   UNL     1      -1.624  -2.260  -0.201  0.00  0.00    -0.010 C 
BRANCH  22  28
ATOM     27  C   UNL     1       0.279  -0.174   0.308  0.00  0.00    -0.096 C 
ATOM     28  N   UNL     1      -0.723  -0.034  -0.756  0.00  0.00    +0.381 N 
ATOM     29  C   UNL     1      -0.188  -0.585  -2.008  0.00  0.00    -0.096 C 
ATOM     30  H   UNL     1      -0.943   0.942  -0.885  0.00  0.00    -0.082 HD
ENDBRANCH  22  28
ENDBRANCH  21  22
ENDBRANCH  17  21
ENDBRANCH   1  18
TORSDOF 6
