REMARK  Name = ZINC36214136
REMARK  11 active torsions:
REMARK  status: ('A' for Active; 'I' for Inactive)
REMARK    1  A    between atoms: C_1  and  C_2
REMARK    2  A    between atoms: C_2  and  C_3
REMARK    3  A    between atoms: C_2  and  C_4
REMARK    4  A    between atoms: C_2  and  N_5
REMARK    5  A    between atoms: C_11  and  C_14
REMARK    6  A    between atoms: C_14  and  C_16
REMARK    7  A    between atoms: C_14  and  N_22
REMARK    8  A    between atoms: N_18  and  C_19
REMARK    9  A    between atoms: C_23  and  C_25
REMARK   10  A    between atoms: C_28  and  O_31
REMARK   11  A    between atoms: O_31  and  C_32
REMARK                            x       y       z     vdW  Elec       q    Type
REMARK                         _______ _______ _______ _____ _____    ______ ____
ROOT
ATOM      1  C   UNL     1       4.922  -3.833  -4.132  0.00  0.00    +0.162 C 
ENDROOT
BRANCH   1   8
ATOM      2  N   UNL     1       0.688  -0.477  -1.203  0.00  0.00    -0.294 N 
ATOM      3  C   UNL     1       1.972  -0.132  -1.427  0.00  0.00    +0.303 C 
ATOM      4  O   UNL     1       2.532   0.644  -0.678  0.00  0.00    -0.253 OA
ATOM      5  N   UNL     1       2.633  -0.647  -2.482  0.00  0.00    -0.286 N 
ATOM      6  C   UNL     1       1.938  -1.494  -3.461  0.00  0.00    +0.109 C 
ATOM      7  C   UNL     1       2.703  -2.813  -3.604  0.00  0.00    +0.025 C 
ATOM      8  C   UNL     1       4.163  -2.516  -3.954  0.00  0.00    +0.021 C 
ATOM      9  C   UNL     1       4.805  -1.705  -2.827  0.00  0.00    +0.025 C 
ATOM     10  C   UNL     1       4.063  -0.369  -2.678  0.00  0.00    +0.109 C 
ATOM     11  H   UNL     1       0.218  -1.038  -1.839  0.00  0.00    +0.151 HD
BRANCH   2  13
ATOM     12  C   UNL     1      -0.019   1.525   0.011  0.00  0.00    +0.031 C 
ATOM     13  C   UNL     1       0.003  -0.005   0.003  0.00  0.00    +0.028 C 
ATOM     14  C   UNL     1       0.743  -0.511   1.242  0.00  0.00    +0.031 C 
ATOM     15  C   UNL     1      -1.433  -0.535   0.014  0.00  0.00    +0.031 C 
ENDBRANCH   2  13
ENDBRANCH   1   8
BRANCH   1  16
ATOM     16  C   UNL     1       6.360  -3.541  -4.477  0.00  0.00    +0.234 C 
ATOM     17  O   UNL     1       7.250  -3.936  -3.753  0.00  0.00    -0.274 OA
ATOM     18  N   UNL     1       6.657  -2.841  -5.590  0.00  0.00    -0.311 N 
ATOM     19  H   UNL     1       5.946  -2.525  -6.168  0.00  0.00    +0.149 HD
BRANCH  18  20
ATOM     20  C   UNL     1       8.055  -2.557  -5.925  0.00  0.00    +0.073 C 
ATOM     21  C   UNL     1       8.393  -1.143  -6.404  0.00  0.00    +0.024 C 
ATOM     22  C   UNL     1       8.392  -2.308  -7.396  0.00  0.00    +0.024 C 
ENDBRANCH  18  20
ENDBRANCH   1  16
BRANCH   1  23
ATOM     23  N   UNL     1       4.865  -4.601  -2.886  0.00  0.00    -0.300 N 
ATOM     24  C   UNL     1       4.996  -5.942  -2.915  0.00  0.00    +0.245 C 
ATOM     25  O   UNL     1       5.161  -6.514  -3.975  0.00  0.00    -0.270 OA
ATOM     26  H   UNL     1       4.734  -4.145  -2.040  0.00  0.00    +0.150 HD
BRANCH  24  27
ATOM     27  C   UNL     1       4.939  -6.716  -1.660  0.00  0.00    +0.037 A 
ATOM     28  C   UNL     1       4.743  -6.061  -0.441  0.00  0.00    +0.016 A 
ATOM     29  C   UNL     1       4.690  -6.787   0.728  0.00  0.00    +0.046 A 
ATOM     30  C   UNL     1       4.830  -8.170   0.697  0.00  0.00    +0.120 A 
ATOM     31  C   UNL     1       5.025  -8.825  -0.514  0.00  0.00    +0.046 A 
ATOM     32  C   UNL     1       5.074  -8.107  -1.687  0.00  0.00    +0.016 A 
BRANCH  30  33
ATOM     33  O   UNL     1       4.778  -8.882   1.851  0.00  0.00    -0.495 OA
ATOM     34  C   UNL     1       4.930 -10.299   1.747  0.00  0.00    +0.277 C 
ENDBRANCH  30  33
ENDBRANCH  24  27
ENDBRANCH   1  23
TORSDOF 7
