REMARK  Name = ZINC64890546
REMARK  9 active torsions:
REMARK  status: ('A' for Active; 'I' for Inactive)
REMARK    1  A    between atoms: C_1  and  C_2
REMARK    2  A    between atoms: C_2  and  C_3
REMARK    3  A    between atoms: C_2  and  C_4
REMARK    4  A    between atoms: C_4  and  C_6
REMARK    5  A    between atoms: C_4  and  N_26
REMARK    6  A    between atoms: C_9  and  C_12
REMARK    7  A    between atoms: N_24  and  C_25
REMARK    8  A    between atoms: N_26  and  S_27
REMARK    9  A    between atoms: S_27  and  C_30
REMARK                            x       y       z     vdW  Elec       q    Type
REMARK                         _______ _______ _______ _____ _____    ______ ____
ROOT
ATOM      1  C   UNL     1      -2.276  -0.112  -1.291  0.00  0.00    +0.262 C 
ATOM      2  N   UNL     1      -3.633  -0.649  -1.136  0.00  0.00    -0.341 N 
ATOM      3  C   UNL     1      -3.817  -1.577  -2.025  0.00  0.00    +0.134 C 
ATOM      4  N   UNL     1      -2.703  -1.750  -2.808  0.00  0.00    -0.247 N 
ATOM      5  O   UNL     1      -1.696  -0.842  -2.383  0.00  0.00    -0.246 OA
ATOM      6  H   UNL     1      -2.616  -2.387  -3.534  0.00  0.00    +0.196 HD
ATOM      7  H   UNL     1      -4.284  -0.360  -0.477  0.00  0.00    +0.164 HD
ENDROOT
BRANCH   3   8
ATOM      8  C   UNL     1      -5.070  -2.350  -2.176  0.00  0.00    +0.019 A 
ATOM      9  C   UNL     1      -6.296  -1.767  -1.845  0.00  0.00    +0.013 A 
ATOM     10  C   UNL     1      -7.462  -2.484  -1.985  0.00  0.00    +0.028 A 
ATOM     11  C   UNL     1      -7.426  -3.794  -2.457  0.00  0.00    +0.068 A 
ATOM     12  C   UNL     1      -6.203  -4.383  -2.789  0.00  0.00    +0.067 A 
ATOM     13  C   UNL     1      -5.028  -3.658  -2.653  0.00  0.00    +0.039 A 
ATOM     14  N   UNL     1      -6.153  -5.692  -3.261  0.00  0.00    -0.316 N 
ATOM     15  H   UNL     1      -5.299  -6.093  -3.489  0.00  0.00    +0.169 HD
ATOM     16  C   UNL     1      -7.289  -6.404  -3.402  0.00  0.00    +0.314 A 
ATOM     17  O   UNL     1      -7.251  -7.547  -3.813  0.00  0.00    -0.262 OA
ATOM     18  C   UNL     1      -8.594  -5.774  -3.048  0.00  0.00    +0.316 A 
ATOM     19  O   UNL     1      -9.629  -6.399  -3.167  0.00  0.00    -0.262 OA
ATOM     20  N   UNL     1      -8.613  -4.505  -2.592  0.00  0.00    -0.305 N 
ATOM     21  C   UNL     1      -9.887  -3.875  -2.240  0.00  0.00    +0.153 C 
ENDBRANCH   3   8
BRANCH   1  22
ATOM     22  C   UNL     1      -1.467  -0.338  -0.013  0.00  0.00    +0.131 C 
BRANCH  22  24
ATOM     23  C   UNL     1      -0.255   1.815  -0.381  0.00  0.00    +0.009 C 
ATOM     24  C   UNL     1      -0.089   0.310  -0.160  0.00  0.00    +0.006 C 
ATOM     25  C   UNL     1       0.727   0.069   1.112  0.00  0.00    +0.009 C 
ENDBRANCH  22  24
BRANCH  22  26
ATOM     26  N   UNL     1      -2.171   0.261   1.123  0.00  0.00    -0.182 NA
ATOM     27  H   UNL     1      -2.285   1.224   1.170  0.00  0.00    +0.148 HD
BRANCH  26  28
ATOM     28  S   UNL     1      -2.771  -0.703   2.328  0.00  0.00    +0.059 S 
ATOM     29  O   UNL     1      -3.374   0.163   3.279  0.00  0.00    -0.153 OA
ATOM     30  O   UNL     1      -3.487  -1.752   1.691  0.00  0.00    -0.153 OA
BRANCH  28  31
ATOM     31  C   UNL     1      -1.392  -1.451   3.132  0.00  0.00    +0.105 A 
ATOM     32  C   UNL     1      -0.892  -2.654   2.671  0.00  0.00    +0.028 A 
ATOM     33  C   UNL     1       0.189  -3.240   3.301  0.00  0.00    +0.002 A 
ATOM     34  C   UNL     1       0.771  -2.623   4.393  0.00  0.00    +0.000 A 
ATOM     35  C   UNL     1       0.271  -1.419   4.854  0.00  0.00    +0.002 A 
ATOM     36  C   UNL     1      -0.807  -0.831   4.221  0.00  0.00    +0.028 A 
ENDBRANCH  28  31
ENDBRANCH  26  28
ENDBRANCH  22  26
ENDBRANCH   1  22
TORSDOF 6
