REMARK  Name = ZINC35711681
REMARK  15 active torsions:
REMARK  status: ('A' for Active; 'I' for Inactive)
REMARK    1  A    between atoms: C_1  and  C_2
REMARK    2  A    between atoms: C_2  and  C_3
REMARK    3  A    between atoms: C_3  and  N_4
REMARK    4  A    between atoms: C_5  and  C_37
REMARK    5  A    between atoms: C_6  and  C_30
REMARK    6  A    between atoms: C_7  and  C_12
REMARK    7  A    between atoms: C_15  and  N_18
REMARK    8  A    between atoms: N_21  and  C_22
REMARK    9  A    between atoms: C_23  and  C_29
REMARK   10  A    between atoms: C_27  and  C_28
REMARK   11  A    between atoms: C_30  and  O_32
REMARK   12  A    between atoms: O_32  and  C_33
REMARK   13  A    between atoms: C_33  and  C_34
REMARK   14  A    between atoms: C_34  and  C_35
REMARK   15  A    between atoms: C_34  and  C_36
REMARK                            x       y       z     vdW  Elec       q    Type
REMARK                         _______ _______ _______ _____ _____    ______ ____
ROOT
ATOM      1  C   UNL     1      -5.424  -4.739  -2.662  0.00  0.00    -0.022 A 
ATOM      2  C   UNL     1      -6.719  -4.489  -2.247  0.00  0.00    +0.007 A 
ATOM      3  C   UNL     1      -7.247  -5.178  -1.172  0.00  0.00    +0.024 A 
ATOM      4  C   UNL     1      -6.476  -6.123  -0.509  0.00  0.00    +0.035 A 
ATOM      5  C   UNL     1      -5.176  -6.373  -0.929  0.00  0.00    +0.024 A 
ATOM      6  C   UNL     1      -4.655  -5.684  -2.007  0.00  0.00    +0.007 A 
ENDROOT
BRANCH   1  10
ATOM      7  N   UNL     1      -6.285  -2.494  -5.669  0.00  0.00    -0.259 N 
ATOM      8  C   UNL     1      -6.086  -3.815  -5.949  0.00  0.00    +0.024 C 
ATOM      9  C   UNL     1      -5.396  -4.610  -5.103  0.00  0.00    +0.078 C 
ATOM     10  C   UNL     1      -4.851  -3.986  -3.834  0.00  0.00    +0.143 C 
ATOM     11  N   UNL     1      -5.120  -2.553  -3.627  0.00  0.00    -0.288 N 
ATOM     12  C   UNL     1      -5.822  -1.890  -4.567  0.00  0.00    +0.307 C 
ATOM     13  O   UNL     1      -6.046  -0.706  -4.408  0.00  0.00    -0.252 OA
ATOM     14  C   UNL     1      -6.646  -4.396  -7.221  0.00  0.00    +0.061 C 
ATOM     15  H   UNL     1      -4.797  -2.096  -2.835  0.00  0.00    +0.151 HD
BRANCH   9  16
ATOM     16  C   UNL     1      -5.190  -5.980  -5.390  0.00  0.00    +0.339 C 
ATOM     17  O   UNL     1      -4.627  -6.693  -4.582  0.00  0.00    -0.245 OA
BRANCH  16  18
ATOM     18  O   UNL     1      -5.619  -6.495  -6.562  0.00  0.00    -0.461 OA
BRANCH  18  19
ATOM     19  C   UNL     1      -5.480  -7.906  -6.739  0.00  0.00    +0.235 C 
BRANCH  19  20
ATOM     20  C   UNL     1      -6.124  -8.319  -8.064  0.00  0.00    +0.020 C 
ATOM     21  C   UNL     1      -5.329  -7.722  -9.226  0.00  0.00    +0.010 C 
ATOM     22  C   UNL     1      -6.124  -9.845  -8.177  0.00  0.00    +0.010 C 
ENDBRANCH  19  20
ENDBRANCH  18  19
ENDBRANCH  16  18
ENDBRANCH   9  16
BRANCH   7  23
ATOM     23  C   UNL     1      -7.043  -1.690  -6.631  0.00  0.00    +0.114 C 
BRANCH  23  25
ATOM     24  C   UNL     1      -9.330  -0.980  -7.343  0.00  0.00    +0.005 C 
ATOM     25  C   UNL     1      -8.539  -1.819  -6.338  0.00  0.00    +0.016 C 
ENDBRANCH  23  25
ENDBRANCH   7  23
ENDBRANCH   1  10
BRANCH   4  26
ATOM     26  N   UNL     1      -7.007  -6.823   0.580  0.00  0.00    -0.269 N 
ATOM     27  C   UNL     1      -7.854  -6.206   1.429  0.00  0.00    +0.308 C 
ATOM     28  O   UNL     1      -8.219  -5.069   1.204  0.00  0.00    -0.252 OA
ATOM     29  N   UNL     1      -8.295  -6.851   2.527  0.00  0.00    -0.269 N 
ATOM     30  H   UNL     1      -6.767  -7.752   0.724  0.00  0.00    +0.156 HD
ATOM     31  H   UNL     1      -7.973  -7.744   2.728  0.00  0.00    +0.156 HD
BRANCH  29  32
ATOM     32  C   UNL     1      -9.218  -6.232   3.378  0.00  0.00    +0.041 A 
ATOM     33  C   UNL     1     -10.447  -6.830   3.623  0.00  0.00    -0.029 A 
ATOM     34  C   UNL     1     -11.356  -6.217   4.463  0.00  0.00    +0.005 A 
ATOM     35  C   UNL     1     -11.043  -5.010   5.060  0.00  0.00    +0.001 A 
ATOM     36  C   UNL     1      -9.820  -4.412   4.817  0.00  0.00    +0.005 A 
ATOM     37  C   UNL     1      -8.905  -5.022   3.983  0.00  0.00    -0.029 A 
ATOM     38  C   UNL     1      -7.569  -4.373   3.724  0.00  0.00    +0.045 C 
ATOM     39  C   UNL     1     -10.789  -8.146   2.973  0.00  0.00    +0.045 C 
ENDBRANCH  29  32
ENDBRANCH   4  26
TORSDOF 9
