REMARK  Name = ZINC06088929
REMARK  6 active torsions:
REMARK  status: ('A' for Active; 'I' for Inactive)
REMARK    1  A    between atoms: C_1  and  C_2
REMARK    2  A    between atoms: C_5  and  S_8
REMARK    3  A    between atoms: S_8  and  N_11
REMARK    4  A    between atoms: C_14  and  C_26
REMARK    5  A    between atoms: C_15  and  N_17
REMARK    6  A    between atoms: N_20  and  C_21
REMARK                            x       y       z     vdW  Elec       q    Type
REMARK                         _______ _______ _______ _____ _____    ______ ____
ROOT
ATOM      1  N   UNL     1       5.416  -1.457  -0.058  0.00  0.00    -0.194 N 
ATOM      2  C   UNL     1       4.475  -0.436  -0.043  0.00  0.00    +0.179 A 
ATOM      3  N   UNL     1       4.658   0.872  -0.037  0.00  0.00    -0.227 NA
ATOM      4  C   UNL     1       3.635   1.707  -0.029  0.00  0.00    +0.069 A 
ATOM      5  C   UNL     1       2.366   1.218  -0.014  0.00  0.00    +0.097 A 
ATOM      6  S   UNL     1       2.691  -0.541  -0.027  0.00  0.00    -0.036 S 
ATOM      7  C   UNL     1       3.872   3.196  -0.031  0.00  0.00    +0.068 C 
ATOM      8  H   UNL     1       6.363  -1.244  -0.066  0.00  0.00    +0.176 HD
ENDROOT
BRANCH   5   9
ATOM      9  N   UNL     1       1.143   1.902   0.001  0.00  0.00    -0.262 N 
ATOM     10  C   UNL     1      -0.014   1.212   0.009  0.00  0.00    +0.305 C 
ATOM     11  O   UNL     1       0.002  -0.004   0.002  0.00  0.00    -0.252 OA
ATOM     12  N   UNL     1      -1.191   1.870   0.018  0.00  0.00    -0.286 N 
ATOM     13  H   UNL     1       1.130   2.872   0.007  0.00  0.00    +0.157 HD
ATOM     14  H   UNL     1      -1.204   2.840   0.023  0.00  0.00    +0.151 HD
BRANCH  12  15
ATOM     15  C   UNL     1      -2.449   1.120   0.020  0.00  0.00    +0.161 C 
ATOM     16  C   UNL     1      -2.898   0.826  -1.398  0.00  0.00    +0.135 C 
ATOM     17  N   UNL     1      -4.042   1.419  -1.534  0.00  0.00    -0.160 NA
ATOM     18  N   UNL     1      -4.437   2.085  -0.378  0.00  0.00    -0.160 NA
ATOM     19  C   UNL     1      -3.576   1.968   0.578  0.00  0.00    +0.135 C 
ENDBRANCH  12  15
ENDBRANCH   5   9
BRANCH   1  20
ATOM     20  S   UNL     1       4.924  -3.038  -0.062  0.00  0.00    +0.074 S 
ATOM     21  O   UNL     1       6.102  -3.830  -0.104  0.00  0.00    -0.150 OA
ATOM     22  O   UNL     1       3.957  -3.164   0.973  0.00  0.00    -0.150 OA
BRANCH  20  27
ATOM     23  C   UNL     1       2.017  -3.988  -5.263  0.00  0.00    +0.044 C 
ATOM     24  C   UNL     1       2.743  -3.751  -3.964  0.00  0.00    -0.050 A 
ATOM     25  C   UNL     1       4.107  -3.962  -3.886  0.00  0.00    +0.005 A 
ATOM     26  C   UNL     1       4.773  -3.744  -2.694  0.00  0.00    +0.029 A 
ATOM     27  C   UNL     1       4.075  -3.315  -1.581  0.00  0.00    +0.109 A 
ATOM     28  C   UNL     1       2.710  -3.109  -1.657  0.00  0.00    +0.029 A 
ATOM     29  C   UNL     1       2.045  -3.323  -2.850  0.00  0.00    +0.005 A 
ENDBRANCH  20  27
ENDBRANCH   1  20
TORSDOF 4
