REMARK  Name = ZINC63588656
REMARK  9 active torsions:
REMARK  status: ('A' for Active; 'I' for Inactive)
REMARK    1  A    between atoms: C_1  and  C_2
REMARK    2  A    between atoms: C_6  and  C_8
REMARK    3  A    between atoms: C_8  and  N_10
REMARK    4  A    between atoms: N_12  and  C_13
REMARK    5  A    between atoms: C_16  and  C_20
REMARK    6  A    between atoms: C_18  and  C_19
REMARK    7  A    between atoms: N_21  and  C_22
REMARK    8  A    between atoms: C_22  and  C_23
REMARK    9  A    between atoms: C_23  and  C_24
REMARK                            x       y       z     vdW  Elec       q    Type
REMARK                         _______ _______ _______ _____ _____    ______ ____
ROOT
ATOM      1  N   UNL     1      -0.345  -4.189   2.370  0.00  0.00    -0.143 NA
ATOM      2  C   UNL     1      -0.624  -4.710   3.555  0.00  0.00    +0.194 C 
ATOM      3  N   UNL     1      -0.191  -4.091   4.692  0.00  0.00    -0.328 N 
ATOM      4  N   UNL     1      -1.344  -5.866   3.640  0.00  0.00    -0.357 N 
ATOM      5  H   UNL     1       0.234  -3.221   4.639  0.00  0.00    +0.169 HD
ATOM      6  H   UNL     1      -1.601  -6.215   4.508  0.00  0.00    +0.162 HD
ENDROOT
BRANCH   3   7
ATOM      7  C   UNL     1      -0.361  -4.711   5.935  0.00  0.00    +0.045 A 
ATOM      8  C   UNL     1      -0.352  -6.097   6.028  0.00  0.00    +0.026 A 
ATOM      9  C   UNL     1      -0.520  -6.706   7.256  0.00  0.00    +0.005 A 
ATOM     10  C   UNL     1      -0.696  -5.937   8.392  0.00  0.00    -0.050 A 
ATOM     11  C   UNL     1      -0.705  -4.558   8.303  0.00  0.00    +0.008 A 
ATOM     12  C   UNL     1      -0.532  -3.942   7.078  0.00  0.00    -0.027 A 
ATOM     13  C   UNL     1      -0.536  -2.438   6.983  0.00  0.00    +0.046 C 
ATOM     14  C   UNL     1      -0.879  -6.605   9.730  0.00  0.00    +0.044 C 
ENDBRANCH   3   7
BRANCH   1  15
ATOM     15  C   UNL     1       0.549  -3.197   2.268  0.00  0.00    +0.270 C 
ATOM     16  O   UNL     1       1.191  -2.853   3.245  0.00  0.00    -0.268 OA
BRANCH  15  22
ATOM     17  C   UNL     1       2.715   0.403  -0.427  0.00  0.00    +0.044 C 
ATOM     18  C   UNL     1       1.796  -0.788  -0.332  0.00  0.00    -0.050 A 
ATOM     19  C   UNL     1       1.144  -1.249  -1.462  0.00  0.00    +0.003 A 
ATOM     20  C   UNL     1       0.299  -2.341  -1.382  0.00  0.00    +0.001 A 
ATOM     21  C   UNL     1       0.102  -2.978  -0.174  0.00  0.00    +0.013 A 
ATOM     22  C   UNL     1       0.756  -2.518   0.968  0.00  0.00    +0.039 A 
ATOM     23  C   UNL     1       1.612  -1.420   0.881  0.00  0.00    +0.016 A 
ENDBRANCH  15  22
ENDBRANCH   1  15
BRANCH   4  24
ATOM     24  C   UNL     1      -1.730  -6.580   2.421  0.00  0.00    +0.120 C 
BRANCH  24  25
ATOM     25  C   UNL     1      -2.525  -7.833   2.793  0.00  0.00    +0.054 C 
BRANCH  25  26
ATOM     26  C   UNL     1      -2.922  -8.567   1.539  0.00  0.00    -0.040 C 
ATOM     27  C   UNL     1      -2.268  -9.600   0.959  0.00  0.00    -0.001 A 
ATOM     28  C   UNL     1      -1.037 -10.319   1.309  0.00  0.00    +0.010 A 
ATOM     29  C   UNL     1      -0.622 -11.333   0.516  0.00  0.00    +0.001 A 
ATOM     30  C   UNL     1      -1.336 -11.713  -0.629  0.00  0.00    +0.002 A 
ATOM     31  C   UNL     1      -2.474 -11.100  -1.015  0.00  0.00    +0.026 A 
ATOM     32  C   UNL     1      -3.003 -10.020  -0.255  0.00  0.00    +0.043 A 
ATOM     33  N   UNL     1      -4.070  -9.277  -0.419  0.00  0.00    -0.380 N 
ATOM     34  C   UNL     1      -4.136  -8.304   0.676  0.00  0.00    +0.144 C 
ATOM     35  H   UNL     1      -4.712  -9.360  -1.142  0.00  0.00    +0.160 HD
ENDBRANCH  25  26
ENDBRANCH  24  25
ENDBRANCH   4  24
TORSDOF 6
