REMARK  Name = ZINC37063738
REMARK  11 active torsions:
REMARK  status: ('A' for Active; 'I' for Inactive)
REMARK    1  A    between atoms: C_1  and  C_2
REMARK    2  A    between atoms: C_2  and  C_3
REMARK    3  A    between atoms: C_2  and  C_4
REMARK    4  A    between atoms: C_2  and  C_18
REMARK    5  A    between atoms: C_4  and  N_5
REMARK    6  A    between atoms: N_5  and  S_6
REMARK    7  A    between atoms: S_6  and  C_9
REMARK    8  A    between atoms: C_10  and  N_17
REMARK    9  A    between atoms: C_18  and  N_19
REMARK   10  A    between atoms: N_19  and  C_20
REMARK   11  A    between atoms: N_19  and  C_21
REMARK                            x       y       z     vdW  Elec       q    Type
REMARK                         _______ _______ _______ _____ _____    ______ ____
ROOT
ATOM      1  S   UNL     1      -3.440   1.408   0.906  0.00  0.00    +0.061 S 
ATOM      2  O   UNL     1      -3.574   2.280   2.020  0.00  0.00    -0.153 OA
ATOM      3  O   UNL     1      -3.969   1.722  -0.375  0.00  0.00    -0.153 OA
ENDROOT
BRANCH   1   4
ATOM      4  C   UNL     1      -4.153  -0.131   1.383  0.00  0.00    +0.140 A 
ATOM      5  C   UNL     1      -4.462  -1.082   0.418  0.00  0.00    +0.053 A 
ATOM      6  C   UNL     1      -5.024  -2.295   0.798  0.00  0.00    +0.040 A 
ATOM      7  C   UNL     1      -5.273  -2.552   2.133  0.00  0.00    +0.021 A 
ATOM      8  C   UNL     1      -4.964  -1.603   3.091  0.00  0.00    +0.032 A 
ATOM      9  C   UNL     1      -4.399  -0.396   2.716  0.00  0.00    +0.047 A 
ATOM     10 BR   UNL     1      -3.970   0.894   4.030  0.00  0.00    -0.048 Br
ATOM     11 BR   UNL     1      -6.037  -4.202   2.650  0.00  0.00    -0.050 Br
BRANCH   5  12
ATOM     12  N   UNL     1      -4.210  -0.819  -0.930  0.00  0.00    -0.356 N 
ATOM     13  H   UNL     1      -3.859   0.044  -1.198  0.00  0.00    +0.142 HD
ATOM     14  H   UNL     1      -4.386  -1.500  -1.598  0.00  0.00    +0.142 HD
ENDBRANCH   5  12
ENDBRANCH   1   4
BRANCH   1  15
ATOM     15  N   UNL     1      -1.817   1.153   0.698  0.00  0.00    -0.189 NA
ATOM     16  H   UNL     1      -1.178   1.590   1.283  0.00  0.00    +0.148 HD
BRANCH  15  17
ATOM     17  C   UNL     1      -1.346   0.266  -0.369  0.00  0.00    +0.110 C 
BRANCH  17  19
ATOM     18  C   UNL     1       0.400   1.942  -0.991  0.00  0.00    +0.010 C 
ATOM     19  C   UNL     1       0.152   0.486  -0.591  0.00  0.00    -0.036 C 
ATOM     20  C   UNL     1       0.910   0.176   0.702  0.00  0.00    +0.010 C 
BRANCH  19  21
ATOM     21  C   UNL     1       0.644  -0.440  -1.705  0.00  0.00    -0.072 C 
BRANCH  21  22
ATOM     22  N   UNL     1       2.102  -0.318  -1.835  0.00  0.00    +0.376 N 
ATOM     23  C   UNL     1       2.756  -1.227  -0.885  0.00  0.00    -0.097 C 
ATOM     24  C   UNL     1       2.502  -0.669  -3.204  0.00  0.00    -0.097 C 
ATOM     25  H   UNL     1       2.379   0.632  -1.637  0.00  0.00    -0.083 HD
ENDBRANCH  21  22
ENDBRANCH  19  21
ENDBRANCH  17  19
ENDBRANCH  15  17
ENDBRANCH   1  15
TORSDOF 7
