REMARK  Name = ZINC20355190
REMARK  9 active torsions:
REMARK  status: ('A' for Active; 'I' for Inactive)
REMARK    1  A    between atoms: C_1  and  C_2
REMARK    2  A    between atoms: C_2  and  N_3
REMARK    3  A    between atoms: C_7  and  C_9
REMARK    4  A    between atoms: C_9  and  N_10
REMARK    5  A    between atoms: C_11  and  C_13
REMARK    6  A    between atoms: C_16  and  C_19
REMARK    7  A    between atoms: N_23  and  C_31
REMARK    8  A    between atoms: C_31  and  C_32
REMARK    9  A    between atoms: C_36  and  C_38
REMARK                            x       y       z     vdW  Elec       q    Type
REMARK                         _______ _______ _______ _____ _____    ______ ____
ROOT
ATOM      1  C   UNL     1      -1.405  -1.331  -0.305  0.00  0.00    +0.059 C 
ATOM      2  C   UNL     1      -1.050  -0.678   0.824  0.00  0.00    +0.191 C 
ATOM      3  C   UNL     1      -0.582  -1.408   2.024  0.00  0.00    +0.287 C 
ATOM      4  O   UNL     1      -0.909  -2.561   2.230  0.00  0.00    -0.266 OA
ATOM      5  N   UNL     1       0.226  -0.742   2.885  0.00  0.00    -0.257 N 
ATOM      6  C   UNL     1       0.581   0.581   2.590  0.00  0.00    +0.079 A 
ATOM      7  C   UNL     1       1.610   1.195   3.289  0.00  0.00    +0.027 A 
ATOM      8  C   UNL     1       1.960   2.499   2.996  0.00  0.00    +0.002 A 
ATOM      9  C   UNL     1       1.288   3.196   2.008  0.00  0.00    +0.004 A 
ATOM     10  C   UNL     1       0.261   2.591   1.307  0.00  0.00    +0.048 A 
ATOM     11  C   UNL     1      -0.097   1.284   1.596  0.00  0.00    +0.150 A 
ATOM     12  O   UNL     1      -1.109   0.685   0.909  0.00  0.00    -0.449 OA
ENDROOT
BRANCH   1  16
ATOM     13  C   UNL     1      -0.673  -5.486  -0.668  0.00  0.00    +0.037 A 
ATOM     14  C   UNL     1      -1.839  -4.933  -1.206  0.00  0.00    +0.013 A 
ATOM     15  C   UNL     1      -2.076  -3.593  -1.089  0.00  0.00    +0.009 A 
ATOM     16  C   UNL     1      -1.151  -2.774  -0.431  0.00  0.00    -0.021 A 
ATOM     17  C   UNL     1       0.019  -3.328   0.102  0.00  0.00    +0.009 A 
ATOM     18  C   UNL     1       0.251  -4.669  -0.011  0.00  0.00    +0.013 A 
BRANCH  13  20
ATOM     19  N   UNL     1       0.706  -7.470  -0.277  0.00  0.00    -0.313 N 
ATOM     20  C   UNL     1      -0.418  -6.936  -0.795  0.00  0.00    +0.244 C 
ATOM     21  O   UNL     1      -1.222  -7.647  -1.366  0.00  0.00    -0.270 OA
ATOM     22  H   UNL     1       1.433  -6.826   0.240  0.00  0.00    +0.149 HD
BRANCH  19  23
ATOM     23  C   UNL     1       0.959  -8.907  -0.402  0.00  0.00    +0.089 C 
BRANCH  23  28
ATOM     24  N   UNL     1       2.451 -10.727   0.313  0.00  0.00    +0.382 N 
ATOM     25  C   UNL     1       3.740 -10.980  -0.365  0.00  0.00    -0.078 C 
ATOM     26  C   UNL     1       4.556  -9.679  -0.162  0.00  0.00    -0.020 C 
ATOM     27  C   UNL     1       3.452  -8.595  -0.283  0.00  0.00    -0.016 C 
ATOM     28  C   UNL     1       2.228  -9.271   0.371  0.00  0.00    -0.051 C 
ATOM     29  H   UNL     1       2.479 -11.137   1.334  0.00  0.00    -0.081 HD
BRANCH  24  31
ATOM     30  C   UNL     1       1.654 -12.896  -0.498  0.00  0.00    -0.017 C 
ATOM     31  C   UNL     1       1.348 -11.401  -0.385  0.00  0.00    -0.082 C 
ENDBRANCH  24  31
ENDBRANCH  23  28
ENDBRANCH  19  23
ENDBRANCH  13  20
ENDBRANCH   1  16
BRANCH   5  32
ATOM     32  C   UNL     1       0.718  -1.393   4.101  0.00  0.00    +0.149 C 
BRANCH  32  33
ATOM     33  C   UNL     1      -0.302  -1.242   5.200  0.00  0.00    -0.029 A 
ATOM     34  C   UNL     1      -1.223  -2.247   5.432  0.00  0.00    +0.005 A 
ATOM     35  C   UNL     1      -2.159  -2.108   6.439  0.00  0.00    +0.001 A 
ATOM     36  C   UNL     1      -2.174  -0.965   7.216  0.00  0.00    +0.003 A 
ATOM     37  C   UNL     1      -1.253   0.040   6.985  0.00  0.00    -0.050 A 
ATOM     38  C   UNL     1      -0.314  -0.100   5.979  0.00  0.00    +0.008 A 
ATOM     39  C   UNL     1      -1.269   1.286   7.832  0.00  0.00    +0.044 C 
ENDBRANCH  32  33
ENDBRANCH   5  32
TORSDOF 7
