REMARK  Name = ZINC63687969
REMARK  10 active torsions:
REMARK  status: ('A' for Active; 'I' for Inactive)
REMARK    1  A    between atoms: C_1  and  O_2
REMARK    2  A    between atoms: O_2  and  C_3
REMARK    3  A    between atoms: C_6  and  N_9
REMARK    4  A    between atoms: C_10  and  C_12
REMARK    5  A    between atoms: C_12  and  S_13
REMARK    6  A    between atoms: S_13  and  C_14
REMARK    7  A    between atoms: C_20  and  C_21
REMARK    8  A    between atoms: N_23  and  C_24
REMARK    9  A    between atoms: C_24  and  C_25
REMARK   10  A    between atoms: C_25  and  C_26
REMARK                            x       y       z     vdW  Elec       q    Type
REMARK                         _______ _______ _______ _____ _____    ______ ____
ROOT
ATOM      1  C   UNL     1       4.524  -7.109  -6.620  0.00  0.00    +0.188 C 
ATOM      2  N   UNL     1       5.841  -6.459  -6.755  0.00  0.00    -0.326 N 
ATOM      3  C   UNL     1       5.989  -5.491  -7.682  0.00  0.00    +0.020 C 
ATOM      4  C   UNL     1       4.992  -5.529  -8.835  0.00  0.00    +0.122 C 
ATOM      5  S   UNL     1       3.558  -6.330  -7.983  0.00  0.00    -0.122 S 
ATOM      6  C   UNL     1       6.955  -4.552  -7.596  0.00  0.00    +0.086 C 
ATOM      7  H   UNL     1       6.584  -6.723  -6.190  0.00  0.00    +0.148 HD
ENDROOT
BRANCH   6   8
ATOM      8  C   UNL     1       7.760  -4.471  -6.436  0.00  0.00    +0.238 C 
ATOM      9  O   UNL     1       7.515  -5.177  -5.474  0.00  0.00    -0.271 OA
ATOM     10  N   UNL     1       8.798  -3.613  -6.395  0.00  0.00    -0.311 N 
ATOM     11  H   UNL     1       8.994  -3.051  -7.161  0.00  0.00    +0.149 HD
BRANCH  10  12
ATOM     12  C   UNL     1       9.633  -3.529  -5.194  0.00  0.00    +0.109 C 
BRANCH  12  13
ATOM     13  C   UNL     1      10.732  -2.487  -5.408  0.00  0.00    +0.052 C 
BRANCH  13  14
ATOM     14  C   UNL     1      11.590  -2.401  -4.172  0.00  0.00    -0.040 C 
ATOM     15  C   UNL     1      12.756  -3.048  -3.945  0.00  0.00    -0.001 A 
ATOM     16  C   UNL     1      13.543  -3.991  -4.748  0.00  0.00    +0.010 A 
ATOM     17  C   UNL     1      14.696  -4.483  -4.240  0.00  0.00    +0.001 A 
ATOM     18  C   UNL     1      15.156  -4.116  -2.969  0.00  0.00    +0.002 A 
ATOM     19  C   UNL     1      14.489  -3.255  -2.171  0.00  0.00    +0.026 A 
ATOM     20  C   UNL     1      13.264  -2.676  -2.605  0.00  0.00    +0.043 A 
ATOM     21  N   UNL     1      12.445  -1.832  -2.027  0.00  0.00    -0.380 N 
ATOM     22  C   UNL     1      11.326  -1.568  -2.938  0.00  0.00    +0.144 C 
ATOM     23  H   UNL     1      12.561  -1.444  -1.146  0.00  0.00    +0.160 HD
ENDBRANCH  13  14
ENDBRANCH  12  13
ENDBRANCH  10  12
ENDBRANCH   6   8
BRANCH   1  24
ATOM     24  S   UNL     1       3.782  -6.734  -5.007  0.00  0.00    -0.119 S 
BRANCH  24  25
ATOM     25  C   UNL     1       3.716  -4.922  -4.965  0.00  0.00    +0.167 C 
BRANCH  25  27
ATOM     26  N   UNL     1       2.962  -3.157  -3.405  0.00  0.00    -0.285 N 
ATOM     27  C   UNL     1       3.111  -4.472  -3.660  0.00  0.00    +0.227 C 
ATOM     28  O   UNL     1       2.760  -5.293  -2.839  0.00  0.00    -0.275 OA
ATOM     29  H   UNL     1       3.171  -2.503  -4.090  0.00  0.00    +0.155 HD
BRANCH  26  33
ATOM     30  C   UNL     1       1.599  -1.899   0.330  0.00  0.00    +0.120 A 
ATOM     31  C   UNL     1       2.386  -3.037   0.226  0.00  0.00    +0.047 A 
ATOM     32  C   UNL     1       2.838  -3.454  -1.010  0.00  0.00    +0.027 A 
ATOM     33  C   UNL     1       2.504  -2.734  -2.150  0.00  0.00    +0.034 A 
ATOM     34  C   UNL     1       1.715  -1.596  -2.045  0.00  0.00    +0.027 A 
ATOM     35  C   UNL     1       1.260  -1.183  -0.809  0.00  0.00    +0.047 A 
BRANCH  30  37
ATOM     36  C   UNL     1       1.542  -2.274   2.678  0.00  0.00    +0.277 C 
ATOM     37  O   UNL     1       1.154  -1.489   1.548  0.00  0.00    -0.495 OA
ENDBRANCH  30  37
ENDBRANCH  26  33
ENDBRANCH  25  27
ENDBRANCH  24  25
ENDBRANCH   1  24
TORSDOF 9
