REMARK  Name = ZINC15411363
REMARK  11 active torsions:
REMARK  status: ('A' for Active; 'I' for Inactive)
REMARK    1  A    between atoms: C_1  and  C_2
REMARK    2  A    between atoms: C_4  and  S_23
REMARK    3  A    between atoms: C_6  and  N_9
REMARK    4  A    between atoms: C_7  and  C_8
REMARK    5  A    between atoms: C_10  and  C_12
REMARK    6  A    between atoms: C_12  and  N_49
REMARK    7  A    between atoms: C_13  and  C_14
REMARK    8  A    between atoms: C_13  and  N_49
REMARK    9  A    between atoms: C_16  and  C_17
REMARK   10  A    between atoms: C_16  and  N_49
REMARK   11  A    between atoms: S_23  and  N_26
REMARK                            x       y       z     vdW  Elec       q    Type
REMARK                         _______ _______ _______ _____ _____    ______ ____
ROOT
ATOM      1  N   UNL     1       7.435  -0.780  -3.241  0.00  0.00    -0.287 N 
ATOM      2  C   UNL     1       6.152  -0.574  -2.881  0.00  0.00    +0.201 C 
ATOM      3  O   UNL     1       5.335  -0.242  -3.714  0.00  0.00    -0.278 OA
ATOM      4  H   UNL     1       8.074  -1.111  -2.590  0.00  0.00    +0.155 HD
ENDROOT
BRANCH   1  10
ATOM      5  C   UNL     1      10.985   0.514  -6.387  0.00  0.00    +0.044 C 
ATOM      6  C   UNL     1       9.560   0.112  -6.106  0.00  0.00    -0.044 A 
ATOM      7  C   UNL     1       8.655   0.003  -7.147  0.00  0.00    +0.032 A 
ATOM      8  C   UNL     1       7.347  -0.366  -6.894  0.00  0.00    +0.107 A 
ATOM      9  C   UNL     1       6.939  -0.626  -5.599  0.00  0.00    +0.052 A 
ATOM     10  C   UNL     1       7.845  -0.517  -4.553  0.00  0.00    +0.038 A 
ATOM     11  C   UNL     1       9.157  -0.141  -4.810  0.00  0.00    -0.026 A 
ATOM     12  C   UNL     1      10.141  -0.015  -3.676  0.00  0.00    +0.046 C 
BRANCH   8  13
ATOM     13  S   UNL     1       6.198  -0.504  -8.223  0.00  0.00    +0.056 S 
ATOM     14  O   UNL     1       6.963  -0.739  -9.397  0.00  0.00    -0.153 OA
ATOM     15  O   UNL     1       5.178  -1.393  -7.787  0.00  0.00    -0.153 OA
BRANCH  13  16
ATOM     16  N   UNL     1       5.486   0.979  -8.410  0.00  0.00    -0.204 NA
ATOM     17  H   UNL     1       5.179   1.262  -9.285  0.00  0.00    +0.144 HD
ATOM     18  H   UNL     1       5.376   1.564  -7.644  0.00  0.00    +0.144 HD
ENDBRANCH  13  16
ENDBRANCH   8  13
ENDBRANCH   1  10
BRANCH   2  19
ATOM     19  C   UNL     1       5.734  -0.756  -1.445  0.00  0.00    +0.020 C 
BRANCH  19  20
ATOM     20  N   UNL     1       4.320  -0.347  -1.307  0.00  0.00    +0.391 N 
ATOM     21  H   UNL     1       3.780  -0.750  -2.082  0.00  0.00    -0.080 HD
BRANCH  20  22
ATOM     22  C   UNL     1       4.213   1.126  -1.361  0.00  0.00    -0.051 C 
BRANCH  22  23
ATOM     23  C   UNL     1       4.945   1.751  -0.201  0.00  0.00    -0.053 C 
ATOM     24  C   UNL     1       5.878   2.644  -0.421  0.00  0.00    +0.002 C 
ENDBRANCH  22  23
ENDBRANCH  20  22
BRANCH  20  25
ATOM     25  C   UNL     1       3.772  -0.848  -0.029  0.00  0.00    -0.034 C 
BRANCH  25  26
ATOM     26  C   UNL     1       2.284  -0.611  -0.013  0.00  0.00    -0.025 A 
ATOM     27  C   UNL     1       1.287  -1.416  -0.455  0.00  0.00    +0.011 A 
ATOM     28  C   UNL     1      -0.022  -0.988  -0.338  0.00  0.00    +0.028 A 
ATOM     29  C   UNL     1      -0.270   0.226   0.216  0.00  0.00    +0.078 A 
ATOM     30  S   UNL     1       1.377   0.802   0.593  0.00  0.00    -0.084 S 
ATOM     31 CL   UNL     1      -1.793   1.016   0.483  0.00  0.00    -0.076 Cl
ENDBRANCH  25  26
ENDBRANCH  20  25
ENDBRANCH  19  20
ENDBRANCH   2  19
TORSDOF 9
