REMARK  Name = ZINC00719259
REMARK  7 active torsions:
REMARK  status: ('A' for Active; 'I' for Inactive)
REMARK    1  A    between atoms: C_1  and  C_2
REMARK    2  A    between atoms: C_3  and  C_12
REMARK    3  A    between atoms: C_12  and  C_13
REMARK    4  A    between atoms: C_13  and  N_14
REMARK    5  A    between atoms: C_23  and  C_31
REMARK    6  A    between atoms: C_23  and  C_35
REMARK    7  A    between atoms: C_24  and  C_26
REMARK                            x       y       z     vdW  Elec       q    Type
REMARK                         _______ _______ _______ _____ _____    ______ ____
ROOT
ATOM      1  N   UNL     1       2.559   6.248  -1.801  0.00  0.00    -0.281 N 
ATOM      2  C   UNL     1       2.245   7.572  -1.622  0.00  0.00    +0.119 A 
ATOM      3  C   UNL     1       3.238   8.507  -1.609  0.00  0.00    +0.098 A 
ATOM      4  C   UNL     1       4.567   8.092  -1.801  0.00  0.00    +0.262 A 
ATOM      5  O   UNL     1       5.471   8.909  -1.803  0.00  0.00    -0.267 OA
ATOM      6  N   UNL     1       4.832   6.783  -1.983  0.00  0.00    -0.275 N 
ATOM      7  H   UNL     1       5.777   6.484  -2.121  0.00  0.00    +0.173 HD
ATOM      8  C   UNL     1       3.840   5.875  -1.981  0.00  0.00    +0.331 A 
ATOM      9  O   UNL     1       4.104   4.699  -2.143  0.00  0.00    -0.246 OA
ATOM     10  C   UNL     1       2.922   9.960  -1.395  0.00  0.00    +0.264 C 
ATOM     11  C   UNL     1       0.602   9.295  -1.607  0.00  0.00    +0.113 C 
ATOM     12  N   UNL     1       0.940   7.964  -1.444  0.00  0.00    -0.286 N 
ATOM     13  H   UNL     1       0.260   7.312  -1.211  0.00  0.00    +0.155 HD
ATOM     14  N   UNL     1       1.474  10.314  -1.606  0.00  0.00    -0.348 N 
ATOM     15  H   UNL     1       1.170  11.286  -1.741  0.00  0.00    +0.162 HD
ENDROOT
BRANCH  11  16
ATOM     16  C   UNL     1      -0.810   9.660  -1.800  0.00  0.00    +0.050 A 
ATOM     17  C   UNL     1      -1.370  10.913  -1.975  0.00  0.00    +0.019 A 
ATOM     18  C   UNL     1      -2.734  10.972  -2.139  0.00  0.00    +0.008 A 
ATOM     19  C   UNL     1      -3.454   9.822  -2.112  0.00  0.00    +0.046 A 
ATOM     20  S   UNL     1      -2.246   8.604  -1.862  0.00  0.00    -0.094 S 
ENDBRANCH  11  16
BRANCH  10  21
ATOM     21  C   UNL     1       3.311  10.353   0.031  0.00  0.00    +0.426 C 
ATOM     22  F   UNL     1       4.681  10.137   0.217  0.00  0.00    -0.167 F 
ATOM     23  F   UNL     1       3.020  11.705   0.239  0.00  0.00    -0.167 F 
ATOM     24  F   UNL     1       2.589   9.575   0.943  0.00  0.00    -0.167 F 
ENDBRANCH  10  21
BRANCH  10  25
ATOM     25  C   UNL     1       3.733  10.800  -2.384  0.00  0.00    +0.426 C 
ATOM     26  F   UNL     1       3.683  10.207  -3.650  0.00  0.00    -0.167 F 
ATOM     27  F   UNL     1       3.196  12.090  -2.450  0.00  0.00    -0.167 F 
ATOM     28  F   UNL     1       5.063  10.870  -1.954  0.00  0.00    -0.167 F 
ENDBRANCH  10  25
BRANCH   1  29
ATOM     29  C   UNL     1       1.497   5.239  -1.802  0.00  0.00    +0.133 C 
BRANCH  29  30
ATOM     30  C   UNL     1       1.280   4.725  -0.378  0.00  0.00    +0.059 C 
BRANCH  30  33
ATOM     31  C   UNL     1      -1.753   5.263   0.009  0.00  0.00    +0.063 C 
ATOM     32  C   UNL     1      -1.126   3.910  -0.213  0.00  0.00    +0.017 A 
ATOM     33  C   UNL     1       0.187   3.688  -0.379  0.00  0.00    -0.018 A 
ATOM     34  C   UNL     1       0.356   2.244  -0.562  0.00  0.00    +0.003 A 
ATOM     35  C   UNL     1       1.460   1.416  -0.776  0.00  0.00    +0.010 A 
ATOM     36  C   UNL     1       1.281   0.068  -0.911  0.00  0.00    +0.001 A 
ATOM     37  C   UNL     1       0.009  -0.485  -0.837  0.00  0.00    +0.002 A 
ATOM     38  C   UNL     1      -1.093   0.314  -0.627  0.00  0.00    +0.026 A 
ATOM     39  C   UNL     1      -0.934   1.689  -0.487  0.00  0.00    +0.047 A 
ATOM     40  N   UNL     1      -1.812   2.728  -0.279  0.00  0.00    -0.358 N 
ATOM     41  H   UNL     1      -2.774   2.636  -0.192  0.00  0.00    +0.166 HD
ENDBRANCH  30  33
ENDBRANCH  29  30
ENDBRANCH   1  29
TORSDOF 6
