REMARK  Name = ZINC45187218
REMARK  8 active torsions:
REMARK  status: ('A' for Active; 'I' for Inactive)
REMARK    1  A    between atoms: C_3  and  C_21
REMARK    2  A    between atoms: C_6  and  C_7
REMARK    3  A    between atoms: C_7  and  N_8
REMARK    4  A    between atoms: N_11  and  N_12
REMARK    5  A    between atoms: N_12  and  C_13
REMARK    6  A    between atoms: C_13  and  N_15
REMARK    7  A    between atoms: N_15  and  C_16
REMARK    8  A    between atoms: C_21  and  N_22
REMARK                            x       y       z     vdW  Elec       q    Type
REMARK                         _______ _______ _______ _____ _____    ______ ____
ROOT
ATOM      1  N   UNL     1      -1.726  -1.018  -1.368  0.00  0.00    -0.294 N 
ATOM      2  C   UNL     1      -2.867  -1.694  -1.606  0.00  0.00    +0.316 C 
ATOM      3  O   UNL     1      -3.536  -2.104  -0.678  0.00  0.00    -0.251 OA
ATOM      4  N   UNL     1      -3.265  -1.918  -2.874  0.00  0.00    -0.219 N 
ATOM      5  H   UNL     1      -1.192  -0.691  -2.108  0.00  0.00    +0.151 HD
ATOM      6  H   UNL     1      -4.086  -2.405  -3.046  0.00  0.00    +0.174 HD
ENDROOT
BRANCH   4   7
ATOM      7  N   UNL     1      -2.494  -1.446  -3.944  0.00  0.00    -0.245 N 
ATOM      8  H   UNL     1      -1.673  -0.959  -3.773  0.00  0.00    +0.172 HD
BRANCH   7   9
ATOM      9  C   UNL     1      -2.892  -1.669  -5.212  0.00  0.00    +0.147 C 
ATOM     10  S   UNL     1      -1.949  -1.093  -6.520  0.00  0.00    -0.017 S 
BRANCH   9  11
ATOM     11  N   UNL     1      -4.033  -2.346  -5.451  0.00  0.00    -0.323 N 
ATOM     12  H   UNL     1      -4.567  -2.672  -4.710  0.00  0.00    +0.148 HD
BRANCH  11  13
ATOM     13  C   UNL     1      -4.466  -2.588  -6.829  0.00  0.00    +0.072 C 
ATOM     14  C   UNL     1      -3.837  -3.893  -7.359  0.00  0.00    +0.022 C 
ATOM     15  C   UNL     1      -4.927  -4.967  -7.114  0.00  0.00    +0.002 C 
ATOM     16  C   UNL     1      -6.236  -4.203  -7.432  0.00  0.00    +0.002 C 
ATOM     17  C   UNL     1      -5.992  -2.785  -6.875  0.00  0.00    +0.022 C 
ENDBRANCH  11  13
ENDBRANCH   9  11
ENDBRANCH   7   9
ENDBRANCH   4   7
BRANCH   1  18
ATOM     18  C   UNL     1      -1.293  -0.775   0.011  0.00  0.00    +0.141 C 
BRANCH  18  24
ATOM     19  C   UNL     1      -0.017   1.378   0.010  0.00  0.00    +0.005 A 
ATOM     20  C   UNL     1       1.171   2.086   0.002  0.00  0.00    +0.002 A 
ATOM     21  C   UNL     1       2.377   1.411  -0.013  0.00  0.00    -0.064 A 
ATOM     22  C   UNL     1       2.396   0.029  -0.020  0.00  0.00    +0.002 A 
ATOM     23  C   UNL     1       1.208  -0.679  -0.012  0.00  0.00    +0.005 A 
ATOM     24  C   UNL     1       0.002  -0.004   0.002  0.00  0.00    -0.030 A 
BRANCH  21  25
ATOM     25  C   UNL     1       3.672   2.182  -0.022  0.00  0.00    -0.043 C 
BRANCH  25  26
ATOM     26  N   UNL     1       4.106   2.426   1.360  0.00  0.00    +0.382 N 
ATOM     27  C   UNL     1       3.132   3.295   2.031  0.00  0.00    -0.078 C 
ATOM     28  C   UNL     1       3.537   3.486   3.494  0.00  0.00    -0.019 C 
ATOM     29  C   UNL     1       4.925   4.131   3.554  0.00  0.00    -0.004 C 
ATOM     30  C   UNL     1       5.918   3.254   2.787  0.00  0.00    -0.019 C 
ATOM     31  C   UNL     1       5.425   3.071   1.350  0.00  0.00    -0.078 C 
ATOM     32  H   UNL     1       4.167   1.548   1.852  0.00  0.00    -0.081 HD
ENDBRANCH  25  26
ENDBRANCH  21  25
ENDBRANCH  18  24
ENDBRANCH   1  18
TORSDOF 8
