REMARK  Name = ZINC09043961
REMARK  11 active torsions:
REMARK  status: ('A' for Active; 'I' for Inactive)
REMARK    1  A    between atoms: C_1  and  C_2
REMARK    2  A    between atoms: C_2  and  C_3
REMARK    3  A    between atoms: C_2  and  C_4
REMARK    4  A    between atoms: C_7  and  S_10
REMARK    5  A    between atoms: S_10  and  C_13
REMARK    6  A    between atoms: C_13  and  C_15
REMARK    7  A    between atoms: C_13  and  C_31
REMARK    8  A    between atoms: C_15  and  N_16
REMARK    9  A    between atoms: C_17  and  C_19
REMARK   10  A    between atoms: N_21  and  N_22
REMARK   11  A    between atoms: C_23  and  C_25
REMARK                            x       y       z     vdW  Elec       q    Type
REMARK                         _______ _______ _______ _____ _____    ______ ____
ROOT
ATOM      1  C   UNL     1       5.369  11.925   0.014  0.00  0.00    +0.184 C 
ENDROOT
BRANCH   1   2
ATOM      2  C   UNL     1       6.628  12.754   0.007  0.00  0.00    -0.003 A 
ATOM      3  C   UNL     1       6.878  13.641  -1.029  0.00  0.00    +0.008 A 
ATOM      4  C   UNL     1       8.046  14.387  -0.992  0.00  0.00    +0.020 A 
ATOM      5  C   UNL     1       8.921  14.216   0.065  0.00  0.00    +0.111 A 
ATOM      6  N   UNL     1       8.652  13.359   1.031  0.00  0.00    -0.263 NA
ATOM      7  C   UNL     1       7.549  12.637   1.030  0.00  0.00    +0.116 A 
ENDBRANCH   1   2
BRANCH   1   8
ATOM      8  S   UNL     1       4.407  12.298   1.506  0.00  0.00    +0.005 S 
ATOM      9  O   UNL     1       3.139  11.661   1.442  0.00  0.00    -0.169 OA
ATOM     10  O   UNL     1       5.225  12.170   2.661  0.00  0.00    -0.169 OA
BRANCH   8  14
ATOM     11  C   UNL     1       3.494  16.723   1.224  0.00  0.00    -0.045 A 
ATOM     12  C   UNL     1       2.622  15.801   0.675  0.00  0.00    +0.006 A 
ATOM     13  C   UNL     1       2.901  14.450   0.762  0.00  0.00    +0.027 A 
ATOM     14  C   UNL     1       4.052  14.021   1.396  0.00  0.00    +0.089 A 
ATOM     15  C   UNL     1       4.921  14.942   1.948  0.00  0.00    +0.027 A 
ATOM     16  C   UNL     1       4.644  16.294   1.858  0.00  0.00    +0.006 A 
BRANCH  11  18
ATOM     17  C   UNL     1       3.077  18.785   2.536  0.00  0.00    +0.012 C 
ATOM     18  C   UNL     1       3.190  18.196   1.129  0.00  0.00    +0.013 C 
ATOM     19  C   UNL     1       4.316  18.901   0.370  0.00  0.00    +0.012 C 
ENDBRANCH  11  18
ENDBRANCH   8  14
ENDBRANCH   1   8
BRANCH   1  20
ATOM     20  C   UNL     1       5.738  10.440   0.003  0.00  0.00    +0.136 C 
BRANCH  20  21
ATOM     21  N   UNL     1       4.514   9.633   0.010  0.00  0.00    -0.305 N 
ATOM     22  C   UNL     1       4.594   8.288   0.003  0.00  0.00    +0.301 C 
ATOM     23  O   UNL     1       5.679   7.745  -0.010  0.00  0.00    -0.265 OA
ATOM     24  H   UNL     1       3.647  10.068   0.020  0.00  0.00    +0.149 HD
BRANCH  22  25
ATOM     25  C   UNL     1       3.347   7.465   0.010  0.00  0.00    +0.315 C 
ATOM     26  O   UNL     1       2.262   8.009   0.022  0.00  0.00    -0.264 OA
ATOM     27  N   UNL     1       3.426   6.120   0.002  0.00  0.00    -0.226 N 
ATOM     28  H   UNL     1       4.294   5.686  -0.008  0.00  0.00    +0.173 HD
BRANCH  27  29
ATOM     29  N   UNL     1       2.257   5.349   0.009  0.00  0.00    -0.230 N 
ATOM     30  C   UNL     1       2.337   4.003   0.001  0.00  0.00    +0.262 C 
ATOM     31  O   UNL     1       3.424   3.459  -0.011  0.00  0.00    -0.269 OA
ATOM     32  H   UNL     1       1.390   5.783   0.019  0.00  0.00    +0.173 HD
BRANCH  30  33
ATOM     33  C   UNL     1       1.103   3.189   0.008  0.00  0.00    +0.056 A 
ATOM     34  C   UNL     1       1.172   1.791   0.001  0.00  0.00    +0.016 A 
ATOM     35  C   UNL     1      -0.013   1.076   0.008  0.00  0.00    +0.020 A 
ATOM     36  C   UNL     1      -1.216   1.758   0.017  0.00  0.00    +0.111 A 
ATOM     37  N   UNL     1      -1.251   3.077   0.030  0.00  0.00    -0.263 NA
ATOM     38  C   UNL     1      -0.151   3.802   0.023  0.00  0.00    +0.123 A 
ENDBRANCH  30  33
ENDBRANCH  27  29
ENDBRANCH  22  25
ENDBRANCH  20  21
ENDBRANCH   1  20
TORSDOF 9
