REMARK  Name = ZINC40801669
REMARK  8 active torsions:
REMARK  status: ('A' for Active; 'I' for Inactive)
REMARK    1  A    between atoms: C_1  and  C_2
REMARK    2  A    between atoms: C_11  and  C_14
REMARK    3  A    between atoms: C_14  and  C_15
REMARK    4  A    between atoms: N_17  and  C_18
REMARK    5  A    between atoms: C_26  and  C_27
REMARK    6  A    between atoms: C_27  and  C_29
REMARK    7  A    between atoms: C_32  and  O_35
REMARK    8  A    between atoms: O_35  and  C_36
REMARK                            x       y       z     vdW  Elec       q    Type
REMARK                         _______ _______ _______ _____ _____    ______ ____
ROOT
ATOM      1  C   UNL     1      -4.071  -6.369  -1.870  0.00  0.00    +0.091 A 
ATOM      2  C   UNL     1      -5.327  -6.327  -2.628  0.00  0.00    +0.042 A 
ATOM      3  C   UNL     1      -6.492  -5.564  -2.534  0.00  0.00    +0.013 A 
ATOM      4  C   UNL     1      -7.513  -5.773  -3.417  0.00  0.00    +0.001 A 
ATOM      5  C   UNL     1      -7.400  -6.740  -4.406  0.00  0.00    +0.004 A 
ATOM      6  C   UNL     1      -6.258  -7.504  -4.515  0.00  0.00    +0.047 A 
ATOM      7  C   UNL     1      -5.205  -7.309  -3.628  0.00  0.00    +0.138 A 
ATOM      8  O   UNL     1      -3.997  -7.891  -3.496  0.00  0.00    -0.450 OA
ATOM      9  C   UNL     1      -3.306  -7.350  -2.468  0.00  0.00    +0.197 A 
ENDROOT
BRANCH   1  12
ATOM     10  C   UNL     1      -4.664  -5.201   0.105  0.00  0.00    +0.221 C 
ATOM     11  O   UNL     1      -5.830  -5.465  -0.099  0.00  0.00    -0.275 OA
ATOM     12  N   UNL     1      -3.723  -5.580  -0.782  0.00  0.00    -0.282 N 
ATOM     13  H   UNL     1      -2.801  -5.303  -0.659  0.00  0.00    +0.155 HD
BRANCH  10  14
ATOM     14  C   UNL     1      -4.268  -4.448   1.349  0.00  0.00    +0.150 C 
BRANCH  14  25
ATOM     15  C   UNL     1      -3.502  -7.985   6.902  0.00  0.00    +0.044 C 
ATOM     16  C   UNL     1      -4.187  -7.284   5.757  0.00  0.00    -0.048 A 
ATOM     17  C   UNL     1      -4.851  -8.021   4.794  0.00  0.00    +0.007 A 
ATOM     18  C   UNL     1      -5.487  -7.384   3.744  0.00  0.00    +0.048 A 
ATOM     19  C   UNL     1      -5.457  -6.003   3.655  0.00  0.00    +0.143 A 
ATOM     20  C   UNL     1      -4.780  -5.260   4.620  0.00  0.00    +0.076 A 
ATOM     21  C   UNL     1      -4.155  -5.904   5.676  0.00  0.00    +0.030 A 
ATOM     22  N   UNL     1      -4.725  -3.864   4.504  0.00  0.00    -0.280 N 
ATOM     23  C   UNL     1      -5.137  -3.282   3.358  0.00  0.00    +0.259 C 
ATOM     24  O   UNL     1      -5.200  -2.074   3.277  0.00  0.00    -0.271 OA
ATOM     25  C   UNL     1      -5.517  -4.140   2.178  0.00  0.00    +0.268 C 
ATOM     26  O   UNL     1      -6.095  -5.364   2.638  0.00  0.00    -0.477 OA
ATOM     27  H   UNL     1      -4.396  -3.323   5.238  0.00  0.00    +0.155 HD
ENDBRANCH  14  25
ENDBRANCH  10  14
ENDBRANCH   1  12
BRANCH   9  28
ATOM     28  C   UNL     1      -2.002  -7.732  -2.066  0.00  0.00    +0.230 C 
ATOM     29  O   UNL     1      -1.508  -7.250  -1.062  0.00  0.00    -0.283 OA
BRANCH  28  30
ATOM     30  C   UNL     1      -1.240  -8.715  -2.864  0.00  0.00    +0.026 A 
ATOM     31  C   UNL     1      -1.848  -9.361  -3.943  0.00  0.00    +0.015 A 
ATOM     32  C   UNL     1      -1.135 -10.277  -4.685  0.00  0.00    +0.046 A 
ATOM     33  C   UNL     1       0.187 -10.558  -4.361  0.00  0.00    +0.120 A 
ATOM     34  C   UNL     1       0.795  -9.917  -3.288  0.00  0.00    +0.046 A 
ATOM     35  C   UNL     1       0.091  -8.996  -2.545  0.00  0.00    +0.015 A 
BRANCH  33  36
ATOM     36  O   UNL     1       0.887 -11.461  -5.094  0.00  0.00    -0.495 OA
ATOM     37  C   UNL     1       2.241 -11.703  -4.706  0.00  0.00    +0.277 C 
ENDBRANCH  33  36
ENDBRANCH  28  30
ENDBRANCH   9  28
TORSDOF 6
