REMARK  Name = ZINC67418046
REMARK  6 active torsions:
REMARK  status: ('A' for Active; 'I' for Inactive)
REMARK    1  A    between atoms: C_1  and  C_2
REMARK    2  A    between atoms: N_4  and  C_5
REMARK    3  A    between atoms: C_5  and  C_6
REMARK    4  A    between atoms: N_11  and  C_13
REMARK    5  A    between atoms: C_13  and  C_14
REMARK    6  A    between atoms: N_16  and  C_17
REMARK                            x       y       z     vdW  Elec       q    Type
REMARK                         _______ _______ _______ _____ _____    ______ ____
ROOT
ATOM      1  C   UNL     1      -3.459  -6.905   1.388  0.00  0.00    +0.019 C 
ENDROOT
BRANCH   1   6
ATOM      2  C   UNL     1      -1.037  -5.160   3.663  0.00  0.00    -0.011 C 
ATOM      3  C   UNL     1      -1.796  -3.842   3.841  0.00  0.00    +0.001 C 
ATOM      4  C   UNL     1      -3.297  -4.136   3.916  0.00  0.00    -0.018 C 
ATOM      5  C   UNL     1      -3.728  -4.888   2.655  0.00  0.00    -0.078 C 
ATOM      6  N   UNL     1      -2.986  -6.150   2.557  0.00  0.00    +0.386 N 
ATOM      7  C   UNL     1      -1.552  -5.876   2.413  0.00  0.00    -0.073 C 
ATOM      8  H   UNL     1      -3.140  -6.696   3.391  0.00  0.00    -0.081 HD
BRANCH   2   9
ATOM      9  C   UNL     1       0.458  -4.872   3.509  0.00  0.00    +0.105 C 
BRANCH   9  13
ATOM     10  C   UNL     1       2.808  -3.363   6.127  0.00  0.00    +0.109 C 
ATOM     11  C   UNL     1       2.276  -3.958   4.849  0.00  0.00    +0.210 C 
ATOM     12  O   UNL     1       3.019  -4.134   3.907  0.00  0.00    -0.276 OA
ATOM     13  N   UNL     1       0.974  -4.294   4.752  0.00  0.00    -0.315 N 
ATOM     14  H   UNL     1       0.380  -4.153   5.505  0.00  0.00    +0.149 HD
ENDBRANCH   9  13
ENDBRANCH   2   9
ENDBRANCH   1   6
BRANCH   1  15
ATOM     15  C   UNL     1      -4.897  -7.302   1.595  0.00  0.00    +0.201 C 
ATOM     16  O   UNL     1      -5.473  -6.988   2.615  0.00  0.00    -0.278 OA
ATOM     17  N   UNL     1      -5.545  -8.007   0.646  0.00  0.00    -0.285 N 
ATOM     18  H   UNL     1      -5.109  -8.195  -0.201  0.00  0.00    +0.155 HD
BRANCH  17  19
ATOM     19  C   UNL     1      -6.847  -8.467   0.881  0.00  0.00    +0.070 A 
ATOM     20  C   UNL     1      -7.937  -7.685   0.521  0.00  0.00    +0.065 A 
ATOM     21  C   UNL     1      -9.221  -8.143   0.754  0.00  0.00    +0.042 A 
ATOM     22  C   UNL     1      -9.420  -9.377   1.346  0.00  0.00    +0.044 A 
ATOM     23  C   UNL     1      -8.336 -10.158   1.706  0.00  0.00    +0.042 A 
ATOM     24  C   UNL     1      -7.050  -9.709   1.470  0.00  0.00    +0.065 A 
ATOM     25 CL   UNL     1      -5.691 -10.692   1.915  0.00  0.00    -0.082 Cl
ATOM     26 CL   UNL     1     -11.034  -9.948   1.638  0.00  0.00    -0.083 Cl
ATOM     27 CL   UNL     1      -7.688  -6.136  -0.221  0.00  0.00    -0.082 Cl
ENDBRANCH  17  19
ENDBRANCH   1  15
TORSDOF 5
