REMARK  Name = ZINC20838034
REMARK  12 active torsions:
REMARK  status: ('A' for Active; 'I' for Inactive)
REMARK    1  A    between atoms: C_1  and  C_2
REMARK    2  A    between atoms: C_2  and  N_3
REMARK    3  A    between atoms: C_5  and  C_8
REMARK    4  A    between atoms: N_9  and  N_10
REMARK    5  A    between atoms: C_13  and  S_16
REMARK    6  A    between atoms: S_16  and  C_17
REMARK    7  A    between atoms: C_17  and  C_18
REMARK    8  A    between atoms: N_20  and  C_21
REMARK    9  A    between atoms: C_23  and  C_29
REMARK   10  A    between atoms: C_23  and  C_30
REMARK   11  A    between atoms: C_25  and  C_27
REMARK   12  A    between atoms: C_25  and  C_28
REMARK                            x       y       z     vdW  Elec       q    Type
REMARK                         _______ _______ _______ _____ _____    ______ ____
ROOT
ATOM      1  S   UNL     1      -0.297   7.784  -4.052  0.00  0.00    -0.075 S 
ENDROOT
BRANCH   1   5
ATOM      2  N   UNL     1      -0.561  12.873  -5.127  0.00  0.00    -0.205 N 
ATOM      3  C   UNL     1      -0.390  11.691  -4.422  0.00  0.00    +0.232 A 
ATOM      4  N   UNL     1      -0.510  10.427  -4.930  0.00  0.00    -0.186 NA
ATOM      5  C   UNL     1      -0.267   9.541  -3.919  0.00  0.00    +0.211 A 
ATOM      6  N   UNL     1      -0.012  10.227  -2.831  0.00  0.00    -0.144 NA
ATOM      7  N   UNL     1      -0.086  11.589  -3.151  0.00  0.00    -0.245 N 
ATOM      8  H   UNL     1      -0.817  12.843  -6.197  0.00  0.00    +0.177 HD
ATOM      9  H   UNL     1       0.062  12.496  -2.546  0.00  0.00    +0.192 HD
BRANCH   2  11
ATOM     10  C   UNL     1      -0.567  15.210  -5.138  0.00  0.00    +0.141 C 
ATOM     11  N   UNL     1      -0.407  14.105  -4.478  0.00  0.00    -0.187 NA
BRANCH  10  14
ATOM     12  N   UNL     1      -0.314  18.668  -4.058  0.00  0.00    -0.271 N 
ATOM     13  C   UNL     1      -0.543  17.755  -5.024  0.00  0.00    +0.117 A 
ATOM     14  C   UNL     1      -0.405  16.508  -4.454  0.00  0.00    +0.032 A 
ATOM     15  C   UNL     1      -0.086  16.703  -3.093  0.00  0.00    +0.143 A 
ATOM     16  N   UNL     1      -0.028  17.988  -2.868  0.00  0.00    -0.179 NA
BRANCH  12  18
ATOM     17  C   UNL     1      -1.329  20.724  -3.209  0.00  0.00    +0.029 C 
ATOM     18  C   UNL     1      -0.357  20.122  -4.225  0.00  0.00    +0.140 C 
ENDBRANCH  12  18
ENDBRANCH  10  14
ENDBRANCH   2  11
ENDBRANCH   1   5
BRANCH   1  19
ATOM     19  C   UNL     1       0.105   7.210  -2.379  0.00  0.00    +0.173 C 
BRANCH  19  20
ATOM     20  C   UNL     1       0.113   5.703  -2.353  0.00  0.00    +0.224 C 
ATOM     21  O   UNL     1      -0.129   5.078  -3.364  0.00  0.00    -0.275 OA
ATOM     22  N   UNL     1       0.389   5.051  -1.207  0.00  0.00    -0.312 N 
ATOM     23  H   UNL     1       0.608   5.617  -0.290  0.00  0.00    +0.149 HD
BRANCH  22  24
ATOM     24  C   UNL     1       0.396   3.583  -1.181  0.00  0.00    +0.070 C 
ATOM     25  C   UNL     1       1.298   3.104  -0.042  0.00  0.00    +0.009 C 
ATOM     26  C   UNL     1       1.320   1.577  -0.002  0.00  0.00    -0.072 C 
ATOM     27  N   UNL     1      -0.012   1.005   0.008  0.00  0.00    +0.386 N 
ATOM     28  C   UNL     1      -1.042   1.551  -0.852  0.00  0.00    -0.072 C 
ATOM     29  C   UNL     1      -1.022   3.076  -0.918  0.00  0.00    +0.009 C 
ATOM     30  C   UNL     1      -0.944   0.975  -2.269  0.00  0.00    -0.010 C 
ATOM     31  C   UNL     1      -2.415   1.129  -0.282  0.00  0.00    -0.010 C 
ATOM     32  C   UNL     1       2.035   1.156   1.301  0.00  0.00    -0.010 C 
ATOM     33  C   UNL     1       2.151   1.041  -1.172  0.00  0.00    -0.010 C 
ATOM     34  H   UNL     1       0.042  -0.055  -0.283  0.00  0.00    -0.084 HD
ATOM     35  H   UNL     1      -0.438   1.086   1.018  0.00  0.00    -0.084 HD
ENDBRANCH  22  24
ENDBRANCH  19  20
ENDBRANCH   1  19
TORSDOF 7
