REMARK  Name = ZINC12329699
REMARK  8 active torsions:
REMARK  status: ('A' for Active; 'I' for Inactive)
REMARK    1  A    between atoms: C_1  and  C_2
REMARK    2  A    between atoms: C_11  and  C_12
REMARK    3  A    between atoms: C_12  and  C_14
REMARK    4  A    between atoms: C_12  and  O_33
REMARK    5  A    between atoms: C_14  and  N_61
REMARK    6  A    between atoms: C_21  and  O_32
REMARK    7  A    between atoms: C_26  and  O_30
REMARK    8  A    between atoms: O_30  and  C_31
REMARK                            x       y       z     vdW  Elec       q    Type
REMARK                         _______ _______ _______ _____ _____    ______ ____
ROOT
ATOM      1  C   UNL     1       1.281   1.922   0.274  0.00  0.00    -0.075 C 
ATOM      2  C   UNL     1      -0.161   1.483   0.543  0.00  0.00    +0.029 C 
ATOM      3  C   UNL     1      -0.187  -0.020   0.825  0.00  0.00    +0.110 C 
ATOM      4  C   UNL     1       0.729  -0.332   2.009  0.00  0.00    +0.029 C 
ATOM      5  C   UNL     1       2.144   0.160   1.697  0.00  0.00    -0.075 C 
ATOM      6  C   UNL     1      -1.619  -0.454   1.157  0.00  0.00    +0.084 C 
ATOM      7  C   UNL     1      -2.531  -0.032   0.003  0.00  0.00    +0.152 C 
ATOM      8  C   UNL     1      -1.916  -0.448  -1.310  0.00  0.00    +0.023 A 
ATOM      9  C   UNL     1      -2.724  -0.507  -2.434  0.00  0.00    +0.013 A 
ATOM     10  C   UNL     1      -2.198  -0.880  -3.654  0.00  0.00    +0.046 A 
ATOM     11  C   UNL     1      -0.850  -1.196  -3.759  0.00  0.00    +0.124 A 
ATOM     12  C   UNL     1      -0.040  -1.140  -2.637  0.00  0.00    +0.091 A 
ATOM     13  C   UNL     1      -0.573  -0.767  -1.408  0.00  0.00    +0.130 A 
ATOM     14  O   UNL     1       0.251  -0.736  -0.328  0.00  0.00    -0.485 OA
ATOM     15  N   UNL     1       2.104   1.619   1.465  0.00  0.00    +0.382 N 
ATOM     16  H   UNL     1       1.685   2.075   2.284  0.00  0.00    -0.082 HD
ENDROOT
BRANCH  11  17
ATOM     17  O   UNL     1      -0.328  -1.560  -4.959  0.00  0.00    -0.495 OA
ATOM     18  C   UNL     1      -1.223  -1.596  -6.072  0.00  0.00    +0.277 C 
ENDBRANCH  11  17
BRANCH   7  19
ATOM     19  O   UNL     1      -3.807  -0.660   0.150  0.00  0.00    -0.387 OA
ATOM     20  H   UNL     1      -4.438  -0.437  -0.548  0.00  0.00    +0.210 HD
ENDBRANCH   7  19
BRANCH  15  21
ATOM     21  C   UNL     1       3.474   2.139   1.276  0.00  0.00    -0.042 C 
BRANCH  21  22
ATOM     22  C   UNL     1       3.399   3.624   0.917  0.00  0.00    +0.130 C 
BRANCH  22  33
ATOM     23  C   UNL     1       8.755   4.487  -3.315  0.00  0.00    +0.044 C 
ATOM     24  C   UNL     1       7.660   4.366  -2.287  0.00  0.00    -0.048 A 
ATOM     25  C   UNL     1       6.469   3.737  -2.624  0.00  0.00    +0.004 A 
ATOM     26  C   UNL     1       5.464   3.617  -1.706  0.00  0.00    +0.010 A 
ATOM     27  C   UNL     1       5.638   4.126  -0.417  0.00  0.00    +0.005 A 
ATOM     28  C   UNL     1       6.840   4.770  -0.073  0.00  0.00    +0.047 A 
ATOM     29  C   UNL     1       7.850   4.880  -1.024  0.00  0.00    +0.029 A 
ATOM     30  N   UNL     1       6.726   5.169   1.239  0.00  0.00    -0.360 N 
ATOM     31  H   UNL     1       7.412   5.636   1.741  0.00  0.00    +0.165 HD
ATOM     32  C   UNL     1       5.501   4.809   1.730  0.00  0.00    +0.089 A 
ATOM     33  C   UNL     1       4.794   4.178   0.779  0.00  0.00    +0.004 A 
ENDBRANCH  22  33
BRANCH  22  34
ATOM     34  O   UNL     1       2.707   4.329   1.950  0.00  0.00    -0.389 OA
ATOM     35  H   UNL     1       3.127   4.266   2.819  0.00  0.00    +0.210 HD
ENDBRANCH  22  34
ENDBRANCH  21  22
ENDBRANCH  15  21
TORSDOF 6
