REMARK  Name = ZINC16676386
REMARK  8 active torsions:
REMARK  status: ('A' for Active; 'I' for Inactive)
REMARK    1  A    between atoms: C_1  and  C_2
REMARK    2  A    between atoms: C_3  and  C_29
REMARK    3  A    between atoms: C_4  and  C_24
REMARK    4  A    between atoms: C_7  and  N_23
REMARK    5  A    between atoms: C_8  and  C_12
REMARK    6  A    between atoms: C_12  and  C_14
REMARK    7  A    between atoms: C_18  and  N_20
REMARK    8  A    between atoms: C_29  and  C_31
REMARK                            x       y       z     vdW  Elec       q    Type
REMARK                         _______ _______ _______ _____ _____    ______ ____
ROOT
ATOM      1  C   UNL     1       4.031   5.100  -2.450  0.00  0.00    +0.061 C 
ATOM      2  C   UNL     1       3.490   4.611  -1.132  0.00  0.00    +0.013 C 
ATOM      3  C   UNL     1       2.696   3.525  -1.114  0.00  0.00    +0.026 C 
ATOM      4  C   UNL     1       2.074   2.942   0.120  0.00  0.00    +0.124 C 
ATOM      5  C   UNL     1       2.724   3.550   1.356  0.00  0.00    +0.017 A 
ATOM      6  C   UNL     1       2.565   3.069   2.642  0.00  0.00    +0.049 A 
ATOM      7  C   UNL     1       3.215   3.719   3.697  0.00  0.00    +0.082 A 
ATOM      8  S   UNL     1       4.071   5.041   2.852  0.00  0.00    -0.068 S 
ATOM      9  C   UNL     1       3.538   4.668   1.208  0.00  0.00    +0.076 A 
ATOM     10  N   UNL     1       3.822   5.284   0.016  0.00  0.00    -0.312 N 
ATOM     11  H   UNL     1       4.239   6.159  -0.014  0.00  0.00    +0.152 HD
ENDROOT
BRANCH   4  12
ATOM     12  C   UNL     1       2.279   1.449   0.128  0.00  0.00    +0.117 A 
ATOM     13  C   UNL     1       1.312   0.521   0.021  0.00  0.00    +0.045 A 
ATOM     14  C   UNL     1       1.946  -0.741   0.074  0.00  0.00    +0.041 A 
ATOM     15  C   UNL     1       3.264  -0.509   0.211  0.00  0.00    +0.195 A 
ATOM     16  O   UNL     1       3.460   0.820   0.242  0.00  0.00    -0.467 OA
ENDBRANCH   4  12
BRANCH   6  17
ATOM     17  N   UNL     1       1.770   1.954   2.883  0.00  0.00    -0.357 N 
ATOM     18  H   UNL     1       1.323   1.509   2.147  0.00  0.00    +0.142 HD
ATOM     19  H   UNL     1       1.663   1.622   3.788  0.00  0.00    +0.142 HD
ENDBRANCH   6  17
BRANCH   3  20
ATOM     20  C   UNL     1       2.430   2.894  -2.338  0.00  0.00    +0.159 C 
ATOM     21  O   UNL     1       3.324   2.326  -2.935  0.00  0.00    -0.293 OA
ATOM     22  C   UNL     1       1.038   2.919  -2.913  0.00  0.00    +0.091 C 
ENDBRANCH   3  20
BRANCH   7  23
ATOM     23  C   UNL     1       3.199   3.410   5.070  0.00  0.00    +0.202 C 
ATOM     24  O   UNL     1       2.459   2.537   5.490  0.00  0.00    -0.286 OA
BRANCH  23  25
ATOM     25  C   UNL     1       4.079   4.147   6.004  0.00  0.00    +0.025 A 
ATOM     26  C   UNL     1       3.695   4.328   7.333  0.00  0.00    +0.012 A 
ATOM     27  C   UNL     1       4.520   5.015   8.199  0.00  0.00    +0.003 A 
ATOM     28  C   UNL     1       5.727   5.524   7.752  0.00  0.00    +0.033 A 
ATOM     29  C   UNL     1       6.114   5.347   6.436  0.00  0.00    +0.127 A 
ATOM     30  C   UNL     1       5.300   4.658   5.561  0.00  0.00    +0.044 A 
BRANCH  29  31
ATOM     31  N   UNL     1       7.407   5.894   5.966  0.00  0.00    +0.056 N 
ATOM     32  O   UNL     1       8.128   6.500   6.739  0.00  0.00    -0.126 OA
ATOM     33  O   UNL     1       7.748   5.739   4.808  0.00  0.00    -0.126 OA
ENDBRANCH  29  31
ENDBRANCH  23  25
ENDBRANCH   7  23
TORSDOF 6
