REMARK  Name = ZINC36504494
REMARK  11 active torsions:
REMARK  status: ('A' for Active; 'I' for Inactive)
REMARK    1  A    between atoms: C_1  and  C_2
REMARK    2  A    between atoms: C_5  and  S_8
REMARK    3  A    between atoms: S_8  and  C_11
REMARK    4  A    between atoms: C_11  and  N_12
REMARK    5  A    between atoms: C_13  and  C_15
REMARK    6  A    between atoms: C_15  and  C_17
REMARK    7  A    between atoms: C_15  and  N_24
REMARK    8  A    between atoms: C_20  and  O_23
REMARK    9  A    between atoms: N_24  and  C_25
REMARK   10  A    between atoms: C_25  and  C_26
REMARK   11  A    between atoms: C_31  and  C_33
REMARK                            x       y       z     vdW  Elec       q    Type
REMARK                         _______ _______ _______ _____ _____    ______ ____
ROOT
ATOM      1  C   UNL     1       2.914  -4.895   3.585  0.00  0.00    +0.193 C 
ENDROOT
BRANCH   1   2
ATOM      2  C   UNL     1       4.231  -4.195   3.364  0.00  0.00    -0.018 A 
ATOM      3  C   UNL     1       5.373  -4.934   3.118  0.00  0.00    +0.009 A 
ATOM      4  C   UNL     1       6.580  -4.295   2.916  0.00  0.00    +0.046 A 
ATOM      5  C   UNL     1       6.646  -2.910   2.958  0.00  0.00    +0.117 A 
ATOM      6  C   UNL     1       5.499  -2.170   3.204  0.00  0.00    +0.046 A 
ATOM      7  C   UNL     1       4.293  -2.814   3.401  0.00  0.00    +0.009 A 
BRANCH   5   8
ATOM      8  O   UNL     1       7.833  -2.278   2.759  0.00  0.00    -0.507 OA
ATOM      9  H   UNL     1       8.013  -2.061   1.834  0.00  0.00    +0.292 HD
ENDBRANCH   5   8
ENDBRANCH   1   2
BRANCH   1  11
ATOM     10  N   UNL     1       1.326  -4.758   1.694  0.00  0.00    -0.294 N 
ATOM     11  C   UNL     1       2.376  -5.381   2.265  0.00  0.00    +0.239 C 
ATOM     12  O   UNL     1       2.888  -6.334   1.715  0.00  0.00    -0.273 OA
ATOM     13  H   UNL     1       0.916  -3.997   2.134  0.00  0.00    +0.150 HD
BRANCH  10  14
ATOM     14  C   UNL     1       0.802  -5.232   0.411  0.00  0.00    +0.278 C 
BRANCH  14  15
ATOM     15  S   UNL     1      -0.583  -6.366   0.703  0.00  0.00    +0.013 S 
ATOM     16  O   UNL     1      -0.235  -7.317   1.700  0.00  0.00    -0.168 OA
ATOM     17  O   UNL     1      -1.143  -6.784  -0.534  0.00  0.00    -0.168 OA
BRANCH  15  22
ATOM     18  C   UNL     1      -4.864  -2.964   3.255  0.00  0.00    +0.044 C 
ATOM     19  C   UNL     1      -3.794  -3.813   2.618  0.00  0.00    -0.050 A 
ATOM     20  C   UNL     1      -3.744  -3.944   1.243  0.00  0.00    +0.005 A 
ATOM     21  C   UNL     1      -2.763  -4.723   0.658  0.00  0.00    +0.027 A 
ATOM     22  C   UNL     1      -1.833  -5.371   1.449  0.00  0.00    +0.090 A 
ATOM     23  C   UNL     1      -1.883  -5.240   2.824  0.00  0.00    +0.027 A 
ATOM     24  C   UNL     1      -2.861  -4.457   3.408  0.00  0.00    +0.005 A 
ENDBRANCH  15  22
ENDBRANCH  14  15
ENDBRANCH  10  14
ENDBRANCH   1  11
BRANCH   1  25
ATOM     25  N   UNL     1       3.113  -6.036   4.482  0.00  0.00    -0.277 N 
ATOM     26  C   UNL     1       3.717  -5.860   5.674  0.00  0.00    +0.237 C 
ATOM     27  O   UNL     1       4.097  -4.756   6.004  0.00  0.00    -0.274 OA
BRANCH  26  28
ATOM     28  C   UNL     1       3.922  -7.034   6.596  0.00  0.00    +0.159 C 
ATOM     29  C   UNL     1       2.626  -7.328   7.383  0.00  0.00    +0.041 C 
ATOM     30  C   UNL     1       2.855  -6.521   8.682  0.00  0.00    +0.098 C 
ATOM     31  C   UNL     1       4.360  -6.415   8.791  0.00  0.00    +0.214 C 
ATOM     32  O   UNL     1       4.963  -6.106   9.797  0.00  0.00    -0.276 OA
ATOM     33  N   UNL     1       4.933  -6.713   7.610  0.00  0.00    -0.304 N 
ATOM     34  H   UNL     1       5.890  -6.716   7.449  0.00  0.00    +0.149 HD
ENDBRANCH  26  28
BRANCH  25  35
ATOM     35  C   UNL     1       2.655  -7.370   4.083  0.00  0.00    +0.183 C 
BRANCH  35  36
ATOM     36  C   UNL     1       3.819  -8.158   3.540  0.00  0.00    +0.122 A 
ATOM     37  C   UNL     1       4.567  -9.036   4.233  0.00  0.00    +0.046 A 
ATOM     38  C   UNL     1       5.540  -9.540   3.339  0.00  0.00    +0.041 A 
ATOM     39  C   UNL     1       5.328  -8.941   2.154  0.00  0.00    +0.195 A 
ATOM     40  O   UNL     1       4.281  -8.109   2.280  0.00  0.00    -0.466 OA
ENDBRANCH  35  36
ENDBRANCH  25  35
ENDBRANCH   1  25
TORSDOF 10
