REMARK  Name = ZINC63135261
REMARK  5 active torsions:
REMARK  status: ('A' for Active; 'I' for Inactive)
REMARK    1  A    between atoms: C_7  and  C_10
REMARK    2  A    between atoms: C_10  and  C_12
REMARK    3  A    between atoms: C_10  and  C_27
REMARK    4  A    between atoms: C_12  and  N_13
REMARK    5  A    between atoms: C_14  and  C_16
REMARK                            x       y       z     vdW  Elec       q    Type
REMARK                         _______ _______ _______ _____ _____    ______ ____
ROOT
ATOM      1  C   UNL     1       1.267  -3.901  -1.237  0.00  0.00    +0.113 C 
ENDROOT
BRANCH   1   2
ATOM      2  N   UNL     1       0.813  -3.235  -2.461  0.00  0.00    -0.311 N 
ATOM      3  C   UNL     1       1.117  -3.758  -3.665  0.00  0.00    +0.244 C 
ATOM      4  O   UNL     1       1.768  -4.783  -3.736  0.00  0.00    -0.270 OA
ATOM      5  H   UNL     1       0.293  -2.418  -2.404  0.00  0.00    +0.149 HD
BRANCH   3   6
ATOM      6  C   UNL     1       0.659  -3.088  -4.897  0.00  0.00    +0.039 A 
ATOM      7  C   UNL     1      -0.084  -1.907  -4.814  0.00  0.00    +0.014 A 
ATOM      8  C   UNL     1      -0.508  -1.283  -5.966  0.00  0.00    +0.017 A 
ATOM      9  C   UNL     1      -0.198  -1.826  -7.206  0.00  0.00    +0.030 A 
ATOM     10  C   UNL     1       0.543  -3.009  -7.304  0.00  0.00    +0.048 A 
ATOM     11  C   UNL     1       0.975  -3.631  -6.144  0.00  0.00    +0.037 A 
ATOM     12  N   UNL     1       0.854  -3.572  -8.539  0.00  0.00    -0.284 N 
ATOM     13  C   UNL     1       0.884  -2.939  -9.708  0.00  0.00    +0.227 C 
ATOM     14  O   UNL     1       1.186  -3.575 -10.696  0.00  0.00    -0.275 OA
ATOM     15  C   UNL     1       0.565  -1.478  -9.873  0.00  0.00    +0.170 C 
ATOM     16  S   UNL     1      -0.735  -1.025  -8.685  0.00  0.00    -0.114 S 
ATOM     17  H   UNL     1       1.069  -4.518  -8.547  0.00  0.00    +0.155 HD
ENDBRANCH   3   6
ENDBRANCH   1   2
BRANCH   1  18
ATOM     18  C   UNL     1       0.903  -3.042  -0.024  0.00  0.00    +0.048 C 
BRANCH  18  25
ATOM     19  C   UNL     1      -0.429   1.345  -0.216  0.00  0.00    +0.001 A 
ATOM     20  C   UNL     1       0.637   2.254  -0.253  0.00  0.00    +0.002 A 
ATOM     21  C   UNL     1       1.929   1.865  -0.232  0.00  0.00    +0.026 A 
ATOM     22  C   UNL     1       2.263   0.484  -0.172  0.00  0.00    +0.043 A 
ATOM     23  N   UNL     1       3.418  -0.135  -0.142  0.00  0.00    -0.380 N 
ATOM     24  C   UNL     1       3.174  -1.580  -0.081  0.00  0.00    +0.145 C 
ATOM     25  C   UNL     1       1.671  -1.747  -0.077  0.00  0.00    -0.036 C 
ATOM     26  C   UNL     1       1.155  -0.498  -0.132  0.00  0.00    -0.001 A 
ATOM     27  C   UNL     1      -0.222   0.009  -0.158  0.00  0.00    +0.010 A 
ATOM     28  H   UNL     1       4.289   0.292  -0.159  0.00  0.00    +0.160 HD
ENDBRANCH  18  25
BRANCH  18  29
ATOM     29  C   UNL     1       1.260  -3.795   1.259  0.00  0.00    +0.063 C 
ATOM     30  C   UNL     1       0.336  -5.022   1.475  0.00  0.00    +0.042 C 
ATOM     31  C   UNL     1      -0.008  -5.178   2.921  0.00  0.00    -0.019 C 
ATOM     32  C   UNL     1       0.152  -4.162   3.747  0.00  0.00    +0.036 C 
ATOM     33  S   UNL     1       0.805  -2.827   2.759  0.00  0.00    -0.129 S 
ENDBRANCH  18  29
ENDBRANCH   1  18
TORSDOF 5
