REMARK  Name = ZINC46817665
REMARK  10 active torsions:
REMARK  status: ('A' for Active; 'I' for Inactive)
REMARK    1  A    between atoms: C_1  and  C_2
REMARK    2  A    between atoms: C_2  and  C_4
REMARK    3  A    between atoms: C_2  and  N_15
REMARK    4  A    between atoms: C_7  and  O_10
REMARK    5  A    between atoms: O_10  and  C_11
REMARK    6  A    between atoms: N_15  and  C_16
REMARK    7  A    between atoms: C_16  and  C_18
REMARK    8  A    between atoms: C_16  and  C_19
REMARK    9  A    between atoms: N_21  and  C_22
REMARK   10  A    between atoms: C_25  and  C_28
REMARK                            x       y       z     vdW  Elec       q    Type
REMARK                         _______ _______ _______ _____ _____    ______ ____
ROOT
ATOM      1  C   UNL     1       0.003   0.117  -2.406  0.00  0.00    +0.014 C 
ATOM      2  C   UNL     1       0.084   1.642  -2.503  0.00  0.00    -0.004 C 
ENDROOT
BRANCH   1   3
ATOM      3  C   UNL     1       0.623  -0.498  -3.634  0.00  0.00    +0.203 C 
ATOM      4  O   UNL     1       1.575  -1.241  -3.526  0.00  0.00    -0.277 OA
ATOM      5  N   UNL     1       0.119  -0.222  -4.853  0.00  0.00    -0.287 N 
ATOM      6  H   UNL     1      -0.594   0.430  -4.947  0.00  0.00    +0.155 HD
BRANCH   5   7
ATOM      7  C   UNL     1       0.620  -0.874  -5.979  0.00  0.00    +0.033 A 
ATOM      8  C   UNL     1       1.035  -2.199  -5.887  0.00  0.00    +0.024 A 
ATOM      9  C   UNL     1       1.531  -2.845  -6.997  0.00  0.00    +0.015 A 
ATOM     10  C   UNL     1       1.617  -2.169  -8.217  0.00  0.00    +0.037 A 
ATOM     11  C   UNL     1       1.199  -0.839  -8.306  0.00  0.00    +0.015 A 
ATOM     12  C   UNL     1       0.700  -0.200  -7.194  0.00  0.00    +0.024 A 
BRANCH  10  13
ATOM     13  C   UNL     1       2.149  -2.859  -9.409  0.00  0.00    +0.242 C 
ATOM     14  O   UNL     1       2.513  -4.016  -9.329  0.00  0.00    -0.270 OA
ATOM     15  N   UNL     1       2.231  -2.206 -10.585  0.00  0.00    -0.325 N 
ATOM     16  H   UNL     1       1.941  -1.282 -10.648  0.00  0.00    +0.145 HD
ATOM     17  H   UNL     1       2.581  -2.659 -11.368  0.00  0.00    +0.145 HD
ENDBRANCH  10  13
ENDBRANCH   5   7
ENDBRANCH   1   3
BRANCH   1  18
ATOM     18  N   UNL     1       0.729  -0.337  -1.212  0.00  0.00    +0.391 N 
ATOM     19  H   UNL     1       1.670   0.028  -1.231  0.00  0.00    -0.084 HD
ATOM     20  H   UNL     1       0.759  -1.345  -1.200  0.00  0.00    -0.084 HD
BRANCH  18  22
ATOM     21  C   UNL     1       0.871  -0.205   1.229  0.00  0.00    -0.009 C 
ATOM     22  C   UNL     1       0.041   0.147  -0.007  0.00  0.00    -0.043 C 
BRANCH  22  23
ATOM     23  C   UNL     1      -1.313  -0.506   0.094  0.00  0.00    -0.061 A 
ATOM     24  C   UNL     1      -1.460  -1.844  -0.223  0.00  0.00    +0.005 A 
ATOM     25  C   UNL     1      -2.701  -2.445  -0.131  0.00  0.00    +0.046 A 
ATOM     26  C   UNL     1      -3.800  -1.704   0.280  0.00  0.00    +0.130 A 
ATOM     27  C   UNL     1      -3.650  -0.362   0.598  0.00  0.00    +0.046 A 
ATOM     28  C   UNL     1      -2.406   0.232   0.509  0.00  0.00    +0.005 A 
BRANCH  26  29
ATOM     29  O   UNL     1      -5.021  -2.293   0.370  0.00  0.00    -0.406 OA
BRANCH  29  30
ATOM     30  C   UNL     1      -6.107  -1.470   0.800  0.00  0.00    +0.575 C 
ATOM     31  F   UNL     1      -6.268  -0.406  -0.093  0.00  0.00    -0.133 F 
ATOM     32  F   UNL     1      -7.282  -2.230   0.837  0.00  0.00    -0.133 F 
ATOM     33  F   UNL     1      -5.836  -0.969   2.078  0.00  0.00    -0.133 F 
ENDBRANCH  29  30
ENDBRANCH  26  29
ENDBRANCH  22  23
ENDBRANCH  18  22
ENDBRANCH   1  18
TORSDOF 8
