REMARK  Name = ZINC13440778
REMARK  10 active torsions:
REMARK  status: ('A' for Active; 'I' for Inactive)
REMARK    1  A    between atoms: C_1  and  C_2
REMARK    2  A    between atoms: C_5  and  N_23
REMARK    3  A    between atoms: N_8  and  C_9
REMARK    4  A    between atoms: C_9  and  C_10
REMARK    5  A    between atoms: N_12  and  C_13
REMARK    6  A    between atoms: C_13  and  C_14
REMARK    7  A    between atoms: C_19  and  C_21
REMARK    8  A    between atoms: N_23  and  S_24
REMARK    9  A    between atoms: S_24  and  C_27
REMARK   10  A    between atoms: C_27  and  C_28
REMARK                            x       y       z     vdW  Elec       q    Type
REMARK                         _______ _______ _______ _____ _____    ______ ____
ROOT
ATOM      1  C   UNL     1       0.468   5.192   4.096  0.00  0.00    +0.063 C 
ATOM      2  C   UNL     1      -0.606   5.953   3.363  0.00  0.00    +0.020 A 
ATOM      3  C   UNL     1      -0.715   7.289   3.537  0.00  0.00    +0.023 A 
ATOM      4  C   UNL     1      -1.715   8.006   2.864  0.00  0.00    +0.031 A 
ATOM      5  C   UNL     1      -2.569   7.338   2.030  0.00  0.00    +0.112 A 
ATOM      6  C   UNL     1      -2.423   5.943   1.868  0.00  0.00    +0.274 A 
ATOM      7  O   UNL     1      -3.178   5.332   1.128  0.00  0.00    -0.266 OA
ATOM      8  N   UNL     1      -1.451   5.287   2.530  0.00  0.00    -0.302 N 
ENDROOT
BRANCH   5   9
ATOM      9  N   UNL     1      -3.577   8.030   1.346  0.00  0.00    -0.215 N 
ATOM     10  H   UNL     1      -4.180   7.551   0.756  0.00  0.00    +0.173 HD
BRANCH   9  11
ATOM     11  S   UNL     1      -3.739   9.666   1.544  0.00  0.00    +0.047 S 
ATOM     12  O   UNL     1      -4.853  10.020   0.736  0.00  0.00    -0.155 OA
ATOM     13  O   UNL     1      -3.773   9.860   2.951  0.00  0.00    -0.155 OA
BRANCH  11  14
ATOM     14  C   UNL     1      -2.217  10.372   0.853  0.00  0.00    +0.223 C 
BRANCH  14  15
ATOM     15  C   UNL     1      -2.257  11.873   0.981  0.00  0.00    -0.025 A 
ATOM     16  C   UNL     1      -2.793  12.640  -0.037  0.00  0.00    +0.005 A 
ATOM     17  C   UNL     1      -2.834  14.016   0.083  0.00  0.00    +0.000 A 
ATOM     18  C   UNL     1      -2.329  14.627   1.215  0.00  0.00    +0.000 A 
ATOM     19  C   UNL     1      -1.787  13.861   2.230  0.00  0.00    +0.000 A 
ATOM     20  C   UNL     1      -1.751  12.484   2.113  0.00  0.00    +0.005 A 
ENDBRANCH  14  15
ENDBRANCH  11  14
ENDBRANCH   9  11
ENDBRANCH   5   9
BRANCH   8  21
ATOM     21  C   UNL     1      -1.306   3.840   2.357  0.00  0.00    +0.220 C 
BRANCH  21  22
ATOM     22  C   UNL     1      -0.372   3.562   1.208  0.00  0.00    +0.233 C 
ATOM     23  O   UNL     1       0.124   4.483   0.594  0.00  0.00    -0.274 OA
ATOM     24  N   UNL     1      -0.088   2.291   0.863  0.00  0.00    -0.313 N 
ATOM     25  H   UNL     1      -0.485   1.555   1.354  0.00  0.00    +0.149 HD
BRANCH  24  26
ATOM     26  C   UNL     1       0.821   2.021  -0.255  0.00  0.00    +0.111 C 
BRANCH  26  27
ATOM     27  C   UNL     1       0.972   0.509  -0.435  0.00  0.00    +0.045 C 
ATOM     28  C   UNL     1       1.669  -0.090   0.795  0.00  0.00    +0.111 C 
ATOM     29  N   UNL     1       1.808  -1.536   0.560  0.00  0.00    -0.319 N 
ATOM     30  C   UNL     1       2.195  -1.968  -0.687  0.00  0.00    +0.151 C 
ATOM     31  C   UNL     1       1.828   0.222  -1.671  0.00  0.00    +0.085 C 
ATOM     32  C   UNL     1       3.095   1.078  -1.617  0.00  0.00    +0.030 C 
ATOM     33  N   UNL     1       2.584  -3.277  -0.844  0.00  0.00    -0.333 N 
ATOM     34  H   UNL     1       1.630  -2.172   1.270  0.00  0.00    +0.149 HD
ATOM     35  H   UNL     1       2.584  -3.878  -0.082  0.00  0.00    +0.145 HD
ATOM     36  H   UNL     1       2.860  -3.600  -1.716  0.00  0.00    +0.145 HD
ATOM     37  N   UNL     1       2.232  -1.227  -1.801  0.00  0.00    -0.359 N 
ATOM     38  H   UNL     1       2.521  -1.625  -2.702  0.00  0.00    +0.162 HD
ENDBRANCH  26  27
ENDBRANCH  24  26
ENDBRANCH  21  22
ENDBRANCH   8  21
TORSDOF 8
