REMARK  Name = ZINC10547500
REMARK  9 active torsions:
REMARK  status: ('A' for Active; 'I' for Inactive)
REMARK    1  A    between atoms: C_1  and  C_2
REMARK    2  A    between atoms: C_5  and  C_16
REMARK    3  A    between atoms: C_7  and  N_8
REMARK    4  A    between atoms: C_9  and  C_11
REMARK    5  A    between atoms: N_18  and  C_19
REMARK    6  A    between atoms: C_19  and  C_20
REMARK    7  A    between atoms: C_24  and  N_26
REMARK    8  A    between atoms: N_26  and  S_27
REMARK    9  A    between atoms: S_27  and  C_30
REMARK                            x       y       z     vdW  Elec       q    Type
REMARK                         _______ _______ _______ _____ _____    ______ ____
ROOT
ATOM      1  C   UNL     1       5.622  -1.849  -5.773  0.00  0.00    +0.244 C 
ATOM      2  O   UNL     1       6.379  -2.721  -5.392  0.00  0.00    -0.270 OA
ATOM      3  N   UNL     1       4.919  -1.128  -4.877  0.00  0.00    -0.307 N 
ATOM      4  H   UNL     1       4.316  -0.432  -5.181  0.00  0.00    +0.149 HD
ENDROOT
BRANCH   1   9
ATOM      5  C   UNL     1       5.033  -0.787 -11.403  0.00  0.00    +0.045 C 
ATOM      6  C   UNL     1       5.189  -1.066  -9.930  0.00  0.00    -0.029 A 
ATOM      7  C   UNL     1       4.469  -0.328  -9.009  0.00  0.00    +0.006 A 
ATOM      8  C   UNL     1       4.601  -0.582  -7.659  0.00  0.00    +0.013 A 
ATOM      9  C   UNL     1       5.474  -1.579  -7.219  0.00  0.00    +0.038 A 
ATOM     10  C   UNL     1       6.200  -2.324  -8.148  0.00  0.00    +0.036 A 
ATOM     11  C   UNL     1       6.055  -2.065  -9.502  0.00  0.00    +0.037 A 
BRANCH  11  12
ATOM     12  N   UNL     1       6.782  -2.809 -10.438  0.00  0.00    -0.279 N 
ATOM     13  C   UNL     1       8.020  -3.247 -10.136  0.00  0.00    +0.284 C 
ATOM     14  O   UNL     1       8.470  -3.075  -9.018  0.00  0.00    -0.266 OA
ATOM     15  H   UNL     1       6.394  -3.009 -11.304  0.00  0.00    +0.155 HD
BRANCH  13  16
ATOM     16  C   UNL     1       8.825  -3.930 -11.153  0.00  0.00    +0.189 A 
ATOM     17  C   UNL     1      10.087  -4.421 -10.981  0.00  0.00    +0.054 A 
ATOM     18  C   UNL     1      10.469  -4.990 -12.206  0.00  0.00    +0.042 A 
ATOM     19  C   UNL     1       9.437  -4.823 -13.062  0.00  0.00    +0.196 A 
ATOM     20  O   UNL     1       8.445  -4.188 -12.422  0.00  0.00    -0.458 OA
ENDBRANCH  13  16
ENDBRANCH  11  12
ENDBRANCH   1   9
BRANCH   3  21
ATOM     21  C   UNL     1       5.067  -1.395  -3.444  0.00  0.00    +0.140 C 
BRANCH  21  22
ATOM     22  C   UNL     1       4.179  -0.460  -2.665  0.00  0.00    -0.029 A 
ATOM     23  C   UNL     1       4.663   0.768  -2.251  0.00  0.00    +0.005 A 
ATOM     24  C   UNL     1       3.852   1.629  -1.535  0.00  0.00    +0.002 A 
ATOM     25  C   UNL     1       2.553   1.269  -1.236  0.00  0.00    +0.024 A 
ATOM     26  C   UNL     1       2.065   0.035  -1.647  0.00  0.00    +0.048 A 
ATOM     27  C   UNL     1       2.882  -0.829  -2.365  0.00  0.00    +0.029 A 
BRANCH  26  28
ATOM     28  N   UNL     1       0.752  -0.335  -1.342  0.00  0.00    -0.221 N 
ATOM     29  H   UNL     1       0.011   0.071  -1.818  0.00  0.00    +0.173 HD
BRANCH  28  30
ATOM     30  S   UNL     1       0.462  -1.467  -0.169  0.00  0.00    +0.040 S 
ATOM     31  O   UNL     1       1.238  -2.594  -0.552  0.00  0.00    -0.155 OA
ATOM     32  O   UNL     1      -0.954  -1.555  -0.092  0.00  0.00    -0.155 OA
ATOM     33  C   UNL     1       1.126  -0.739   1.355  0.00  0.00    +0.218 C 
ENDBRANCH  28  30
ENDBRANCH  26  28
ENDBRANCH  21  22
ENDBRANCH   3  21
TORSDOF 7
