REMARK  Name = ZINC39440411
REMARK  5 active torsions:
REMARK  status: ('A' for Active; 'I' for Inactive)
REMARK    1  A    between atoms: C_6  and  C_7
REMARK    2  A    between atoms: C_10  and  C_35
REMARK    3  A    between atoms: C_17  and  C_20
REMARK    4  A    between atoms: N_22  and  C_23
REMARK    5  A    between atoms: C_23  and  C_24
REMARK                            x       y       z     vdW  Elec       q    Type
REMARK                         _______ _______ _______ _____ _____    ______ ____
ROOT
ATOM      1  C   UNL     1      -1.354  -0.757   0.083  0.00  0.00    -0.037 C 
ATOM      2  C   UNL     1      -1.865  -0.807  -1.356  0.00  0.00    +0.018 C 
ATOM      3  C   UNL     1      -3.256  -1.461  -1.412  0.00  0.00    +0.173 C 
ATOM      4  N   UNL     1      -4.115  -0.731  -0.487  0.00  0.00    -0.245 NA
ATOM      5  C   UNL     1      -3.578  -0.885   0.893  0.00  0.00    +0.019 C 
ATOM      6  N   UNL     1      -2.341  -0.114   0.970  0.00  0.00    +0.395 N 
ATOM      7  C   UNL     1      -4.720  -0.337   1.758  0.00  0.00    +0.030 C 
ATOM      8  C   UNL     1      -5.983  -0.579   0.894  0.00  0.00    +0.155 C 
ATOM      9  N   UNL     1      -5.491  -1.186  -0.374  0.00  0.00    -0.243 NA
ATOM     10  H   UNL     1      -1.999  -0.113   1.919  0.00  0.00    -0.083 HD
ATOM     11  H   UNL     1      -5.537  -2.193  -0.333  0.00  0.00    +0.142 HD
ATOM     12  H   UNL     1      -2.509   0.834   0.666  0.00  0.00    -0.083 HD
ENDROOT
BRANCH   1  18
ATOM     13  C   UNL     1      -0.101   1.408   0.134  0.00  0.00    +0.006 A 
ATOM     14  C   UNL     1       1.077   2.131   0.171  0.00  0.00    +0.050 A 
ATOM     15  C   UNL     1       2.294   1.472   0.199  0.00  0.00    +0.166 A 
ATOM     16  C   UNL     1       2.328   0.079   0.189  0.00  0.00    +0.166 A 
ATOM     17  C   UNL     1       1.144  -0.639   0.151  0.00  0.00    +0.051 A 
ATOM     18  C   UNL     1      -0.068   0.027   0.124  0.00  0.00    -0.058 A 
ATOM     19  O   UNL     1       3.632  -0.326   0.220  0.00  0.00    -0.453 OA
ATOM     20  C   UNL     1       4.402   0.829  -0.163  0.00  0.00    +0.466 C 
ATOM     21  O   UNL     1       3.576   1.939   0.236  0.00  0.00    -0.453 OA
ENDBRANCH   1  18
BRANCH   8  22
ATOM     22  C   UNL     1      -6.922  -1.524   1.598  0.00  0.00    +0.232 C 
ATOM     23  O   UNL     1      -6.950  -2.696   1.284  0.00  0.00    -0.274 OA
ATOM     24  N   UNL     1      -7.730  -1.069   2.575  0.00  0.00    -0.308 N 
ATOM     25  H   UNL     1      -7.707  -0.132   2.826  0.00  0.00    +0.149 HD
BRANCH  24  26
ATOM     26  C   UNL     1      -8.643  -1.989   3.259  0.00  0.00    +0.157 C 
BRANCH  26  27
ATOM     27  C   UNL     1      -9.428  -1.235   4.301  0.00  0.00    +0.034 A 
ATOM     28  H   UNL     1      -8.152  -1.269   5.947  0.00  0.00    +0.166 HD
ATOM     29  C   UNL     1     -10.651  -0.712   4.115  0.00  0.00    +0.032 A 
ATOM     30  C   UNL     1     -11.039  -0.072   5.374  0.00  0.00    +0.001 A 
ATOM     31  C   UNL     1     -12.171   0.627   5.799  0.00  0.00    +0.030 A 
ATOM     32  C   UNL     1     -12.226   1.117   7.085  0.00  0.00    +0.042 A 
ATOM     33  C   UNL     1     -11.164   0.919   7.958  0.00  0.00    +0.022 A 
ATOM     34  C   UNL     1     -10.041   0.233   7.553  0.00  0.00    +0.027 A 
ATOM     35  C   UNL     1      -9.963  -0.271   6.259  0.00  0.00    +0.047 A 
ATOM     36  N   UNL     1      -9.004  -0.986   5.577  0.00  0.00    -0.357 N 
ATOM     37 CL   UNL     1     -13.631   1.987   7.617  0.00  0.00    -0.084 Cl
ENDBRANCH  26  27
ENDBRANCH  24  26
ENDBRANCH   8  22
BRANCH   3  38
ATOM     38  C   UNL     1      -3.159  -2.928  -0.987  0.00  0.00    +0.406 C 
ATOM     39  F   UNL     1      -2.515  -3.013   0.252  0.00  0.00    -0.169 F 
ATOM     40  F   UNL     1      -4.445  -3.469  -0.882  0.00  0.00    -0.169 F 
ATOM     41  F   UNL     1      -2.429  -3.643  -1.942  0.00  0.00    -0.169 F 
ENDBRANCH   3  38
TORSDOF 5
