REMARK  Name = ZINC08446365
REMARK  6 active torsions:
REMARK  status: ('A' for Active; 'I' for Inactive)
REMARK    1  A    between atoms: C_4  and  C_7
REMARK    2  A    between atoms: C_7  and  N_8
REMARK    3  A    between atoms: N_16  and  N_17
REMARK    4  A    between atoms: C_18  and  S_20
REMARK    5  A    between atoms: S_20  and  C_21
REMARK    6  A    between atoms: C_21  and  C_22
REMARK                            x       y       z     vdW  Elec       q    Type
REMARK                         _______ _______ _______ _____ _____    ______ ____
ROOT
ATOM      1  N   UNL     1       4.152  -0.952   1.338  0.00  0.00    -0.261 N 
ATOM      2  C   UNL     1       4.944  -0.078   2.074  0.00  0.00    +0.046 A 
ATOM      3  C   UNL     1       5.496   1.158   1.758  0.00  0.00    +0.024 A 
ATOM      4  C   UNL     1       6.259   1.834   2.688  0.00  0.00    +0.002 A 
ATOM      5  C   UNL     1       6.486   1.293   3.942  0.00  0.00    +0.001 A 
ATOM      6  C   UNL     1       5.946   0.066   4.274  0.00  0.00    +0.012 A 
ATOM      7  C   UNL     1       5.175  -0.622   3.344  0.00  0.00    +0.028 A 
ATOM      8  C   UNL     1       4.469  -1.924   3.377  0.00  0.00    +0.153 C 
ATOM      9  N   UNL     1       4.413  -2.778   4.371  0.00  0.00    -0.175 NA
ATOM     10  C   UNL     1       3.837  -2.048   2.050  0.00  0.00    +0.272 C 
ATOM     11  O   UNL     1       3.153  -2.979   1.666  0.00  0.00    -0.268 OA
ENDROOT
BRANCH   9  12
ATOM     12  N   UNL     1       3.694  -3.972   4.230  0.00  0.00    -0.217 N 
ATOM     13  C   UNL     1       3.635  -4.871   5.276  0.00  0.00    +0.145 C 
ATOM     14  N   UNL     1       4.249  -4.609   6.396  0.00  0.00    -0.380 N 
ATOM     15  H   UNL     1       3.237  -4.167   3.397  0.00  0.00    +0.176 HD
ATOM     16  H   UNL     1       4.208  -5.240   7.131  0.00  0.00    +0.158 HD
ATOM     17  H   UNL     1       4.747  -3.782   6.494  0.00  0.00    +0.158 HD
BRANCH  13  18
ATOM     18  S   UNL     1       2.730  -6.372   5.099  0.00  0.00    -0.087 S 
BRANCH  18  19
ATOM     19  C   UNL     1       2.940  -7.203   6.697  0.00  0.00    +0.113 C 
BRANCH  19  20
ATOM     20  C   UNL     1       2.205  -8.519   6.680  0.00  0.00    -0.019 A 
ATOM     21  C   UNL     1       0.883  -8.578   7.079  0.00  0.00    +0.006 A 
ATOM     22  C   UNL     1       0.209  -9.784   7.063  0.00  0.00    +0.000 A 
ATOM     23  C   UNL     1       0.857 -10.933   6.648  0.00  0.00    +0.001 A 
ATOM     24  C   UNL     1       2.179 -10.876   6.249  0.00  0.00    +0.020 A 
ATOM     25  C   UNL     1       2.852  -9.667   6.260  0.00  0.00    +0.045 A 
ATOM     26 CL   UNL     1       4.511  -9.593   5.753  0.00  0.00    -0.083 Cl
ENDBRANCH  19  20
ENDBRANCH  18  19
ENDBRANCH  13  18
ENDBRANCH   9  12
BRANCH   1  27
ATOM     27  C   UNL     1       3.711  -0.707  -0.038  0.00  0.00    +0.149 C 
BRANCH  27  31
ATOM     28  C   UNL     1      -0.017   1.378   0.010  0.00  0.00    +0.000 A 
ATOM     29  C   UNL     1       1.171   2.086   0.002  0.00  0.00    +0.000 A 
ATOM     30  C   UNL     1       2.377   1.411  -0.013  0.00  0.00    +0.005 A 
ATOM     31  C   UNL     1       2.396   0.029  -0.020  0.00  0.00    -0.030 A 
ATOM     32  C   UNL     1       1.208  -0.679  -0.012  0.00  0.00    +0.005 A 
ATOM     33  C   UNL     1       0.002  -0.004   0.002  0.00  0.00    +0.000 A 
ENDBRANCH  27  31
ENDBRANCH   1  27
TORSDOF 6
