REMARK  Name = ZINC31028463
REMARK  11 active torsions:
REMARK  status: ('A' for Active; 'I' for Inactive)
REMARK    1  A    between atoms: C_1  and  C_2
REMARK    2  A    between atoms: N_5  and  C_11
REMARK    3  A    between atoms: C_7  and  C_10
REMARK    4  A    between atoms: C_11  and  C_12
REMARK    5  A    between atoms: C_11  and  C_13
REMARK    6  A    between atoms: C_11  and  C_14
REMARK    7  A    between atoms: C_14  and  N_15
REMARK    8  A    between atoms: N_18  and  C_19
REMARK    9  A    between atoms: C_19  and  C_20
REMARK   10  A    between atoms: C_23  and  N_26
REMARK   11  A    between atoms: C_27  and  C_29
REMARK                            x       y       z     vdW  Elec       q    Type
REMARK                         _______ _______ _______ _____ _____    ______ ____
ROOT
ATOM      1  N   UNL     1       6.595   3.659  -3.416  0.00  0.00    -0.298 N 
ATOM      2  C   UNL     1       6.261   3.494  -2.121  0.00  0.00    +0.300 C 
ATOM      3  O   UNL     1       7.047   3.803  -1.246  0.00  0.00    -0.253 OA
ATOM      4  N   UNL     1       5.056   2.986  -1.795  0.00  0.00    -0.295 N 
ATOM      5  H   UNL     1       5.884   3.379  -4.207  0.00  0.00    +0.150 HD
ATOM      6  H   UNL     1       4.345   2.706  -2.587  0.00  0.00    +0.151 HD
ENDROOT
BRANCH   1   7
ATOM      7  C   UNL     1       7.905   4.211  -3.770  0.00  0.00    +0.127 C 
BRANCH   7   8
ATOM      8  C   UNL     1       7.982   4.410  -5.285  0.00  0.00    +0.032 C 
ATOM      9  C   UNL     1       6.973   5.477  -5.711  0.00  0.00    +0.029 C 
ATOM     10  C   UNL     1       9.394   4.859  -5.669  0.00  0.00    +0.029 C 
BRANCH   8  14
ATOM     11  C   UNL     1       5.836   1.595  -7.639  0.00  0.00    +0.039 C 
ATOM     12  C   UNL     1       7.245   1.995  -8.080  0.00  0.00    +0.130 C 
ATOM     13  C   UNL     1       7.631   3.321  -7.420  0.00  0.00    +0.116 C 
ATOM     14  N   UNL     1       7.671   3.143  -5.962  0.00  0.00    -0.291 NA
ATOM     15  C   UNL     1       8.635   2.097  -5.591  0.00  0.00    +0.116 C 
ATOM     16  C   UNL     1       8.239   0.783  -6.269  0.00  0.00    +0.130 C 
ATOM     17  O   UNL     1       8.175   0.983  -7.684  0.00  0.00    -0.371 OA
ATOM     18  C   UNL     1       9.283  -0.290  -5.952  0.00  0.00    +0.039 C 
ENDBRANCH   8  14
ENDBRANCH   7   8
ENDBRANCH   1   7
BRANCH   4  19
ATOM     19  C   UNL     1       4.693   2.806  -0.387  0.00  0.00    +0.141 C 
BRANCH  19  20
ATOM     20  C   UNL     1       3.304   2.227  -0.296  0.00  0.00    -0.030 A 
ATOM     21  C   UNL     1       2.209   3.069  -0.233  0.00  0.00    +0.007 A 
ATOM     22  C   UNL     1       0.935   2.541  -0.150  0.00  0.00    +0.023 A 
ATOM     23  C   UNL     1       0.755   1.164  -0.131  0.00  0.00    +0.034 A 
ATOM     24  C   UNL     1       1.858   0.322  -0.195  0.00  0.00    +0.023 A 
ATOM     25  C   UNL     1       3.129   0.856  -0.277  0.00  0.00    +0.007 A 
BRANCH  23  26
ATOM     26  N   UNL     1      -0.533   0.627  -0.047  0.00  0.00    -0.279 N 
ATOM     27  C   UNL     1      -0.830  -0.516  -0.697  0.00  0.00    +0.284 C 
ATOM     28  O   UNL     1       0.042  -1.123  -1.290  0.00  0.00    -0.266 OA
ATOM     29  H   UNL     1      -1.304   1.136   0.549  0.00  0.00    +0.155 HD
BRANCH  27  30
ATOM     30  C   UNL     1      -2.204  -1.028  -0.690  0.00  0.00    +0.189 A 
ATOM     31  C   UNL     1      -2.639  -2.167  -1.305  0.00  0.00    +0.054 A 
ATOM     32  C   UNL     1      -4.014  -2.269  -1.039  0.00  0.00    +0.042 A 
ATOM     33  C   UNL     1      -4.353  -1.201  -0.283  0.00  0.00    +0.196 A 
ATOM     34  O   UNL     1      -3.259  -0.459  -0.070  0.00  0.00    -0.458 OA
ENDBRANCH  27  30
ENDBRANCH  23  26
ENDBRANCH  19  20
ENDBRANCH   4  19
TORSDOF 7
