REMARK  Name = ZINC38700860
REMARK  9 active torsions:
REMARK  status: ('A' for Active; 'I' for Inactive)
REMARK    1  A    between atoms: C_1  and  O_2
REMARK    2  A    between atoms: O_2  and  C_3
REMARK    3  A    between atoms: C_3  and  C_5
REMARK    4  A    between atoms: C_8  and  C_11
REMARK    5  A    between atoms: C_16  and  O_25
REMARK    6  A    between atoms: C_20  and  N_24
REMARK    7  A    between atoms: C_21  and  C_22
REMARK    8  A    between atoms: O_25  and  C_26
REMARK    9  A    between atoms: C_26  and  C_28
REMARK                            x       y       z     vdW  Elec       q    Type
REMARK                         _______ _______ _______ _____ _____    ______ ____
ROOT
ATOM      1  C   UNL     1       0.878  -6.329  -1.376  0.00  0.00    +0.098 C 
ATOM      2  C   UNL     1       0.160  -6.796  -2.614  0.00  0.00    +0.008 A 
ATOM      3  C   UNL     1      -1.220  -6.898  -2.603  0.00  0.00    +0.012 A 
ATOM      4  C   UNL     1      -1.895  -7.325  -3.729  0.00  0.00    +0.047 A 
ATOM      5  C   UNL     1      -1.189  -7.653  -4.879  0.00  0.00    +0.135 A 
ATOM      6  C   UNL     1       0.192  -7.551  -4.894  0.00  0.00    +0.093 A 
ATOM      7  C   UNL     1       0.870  -7.121  -3.760  0.00  0.00    +0.138 A 
ATOM      8  O   UNL     1       2.222  -7.027  -3.790  0.00  0.00    -0.441 OA
ATOM      9  C   UNL     1       2.918  -6.998  -2.641  0.00  0.00    +0.199 C 
ATOM     10  C   UNL     1       2.339  -6.674  -1.465  0.00  0.00    +0.098 C 
ENDROOT
BRANCH   1  14
ATOM     11  C   UNL     1       0.444  -2.092  -0.998  0.00  0.00    +0.059 A 
ATOM     12  C   UNL     1      -0.037  -2.938   0.003  0.00  0.00    +0.015 A 
ATOM     13  C   UNL     1       0.107  -4.304  -0.125  0.00  0.00    +0.005 A 
ATOM     14  C   UNL     1       0.725  -4.836  -1.243  0.00  0.00    -0.035 A 
ATOM     15  C   UNL     1       1.204  -4.003  -2.238  0.00  0.00    +0.005 A 
ATOM     16  C   UNL     1       1.062  -2.636  -2.126  0.00  0.00    +0.015 A 
BRANCH  11  17
ATOM     17  C   UNL     1       0.294  -0.628  -0.868  0.00  0.00    +0.339 C 
ATOM     18  O   UNL     1       0.709   0.105  -1.742  0.00  0.00    -0.245 OA
BRANCH  17  20
ATOM     19  C   UNL     1      -0.414   1.317   0.282  0.00  0.00    +0.280 C 
ATOM     20  O   UNL     1      -0.303  -0.107   0.222  0.00  0.00    -0.464 OA
ENDBRANCH  17  20
ENDBRANCH  11  17
ENDBRANCH   1  14
BRANCH   9  21
ATOM     21  N   UNL     1       4.256  -7.305  -2.665  0.00  0.00    -0.328 N 
ATOM     22  H   UNL     1       4.685  -7.539  -3.502  0.00  0.00    +0.145 HD
ATOM     23  H   UNL     1       4.771  -7.288  -1.843  0.00  0.00    +0.145 HD
ENDBRANCH   9  21
BRANCH  10  24
ATOM     24  C   UNL     1       3.136  -6.660  -0.276  0.00  0.00    +0.101 C 
ATOM     25  N   UNL     1       3.769  -6.648   0.668  0.00  0.00    -0.191 NA
ENDBRANCH  10  24
BRANCH   5  26
ATOM     26  O   UNL     1      -1.852  -8.073  -5.988  0.00  0.00    -0.422 OA
BRANCH  26  27
ATOM     27  C   UNL     1      -1.713  -9.363  -6.357  0.00  0.00    +0.351 C 
ATOM     28  O   UNL     1      -1.097 -10.135  -5.649  0.00  0.00    -0.244 OA
BRANCH  27  29
ATOM     29  C   UNL     1      -2.307  -9.834  -7.618  0.00  0.00    +0.144 A 
ATOM     30  C   UNL     1      -2.186 -11.158  -8.022  0.00  0.00    +0.033 A 
ATOM     31  C   UNL     1      -2.758 -11.531  -9.265  0.00  0.00    +0.018 A 
ATOM     32  C   UNL     1      -2.844 -12.882  -9.633  0.00  0.00    +0.011 A 
ATOM     33  C   UNL     1      -3.435 -13.227 -10.814  0.00  0.00    +0.001 A 
ATOM     34  C   UNL     1      -3.946 -12.252 -11.660  0.00  0.00    +0.004 A 
ATOM     35  C   UNL     1      -3.856 -10.916 -11.328  0.00  0.00    +0.047 A 
ATOM     36  C   UNL     1      -3.252 -10.540 -10.135  0.00  0.00    +0.139 A 
ATOM     37  O   UNL     1      -3.118  -9.230  -9.818  0.00  0.00    -0.422 OA
ATOM     38  C   UNL     1      -3.060  -8.923  -8.499  0.00  0.00    +0.351 A 
ATOM     39  O   UNL     1      -3.606  -7.929  -8.057  0.00  0.00    -0.244 OA
ENDBRANCH  27  29
ENDBRANCH  26  27
ENDBRANCH   5  26
TORSDOF 8
