REMARK  Name = ZINC66071325
REMARK  11 active torsions:
REMARK  status: ('A' for Active; 'I' for Inactive)
REMARK    1  A    between atoms: C_1  and  C_2
REMARK    2  A    between atoms: C_2  and  C_3
REMARK    3  A    between atoms: C_3  and  C_4
REMARK    4  A    between atoms: N_6  and  C_7
REMARK    5  A    between atoms: C_11  and  N_13
REMARK    6  A    between atoms: N_13  and  C_14
REMARK    7  A    between atoms: C_14  and  C_15
REMARK    8  A    between atoms: N_17  and  C_18
REMARK    9  A    between atoms: C_21  and  C_24
REMARK   10  A    between atoms: N_26  and  C_27
REMARK   11  A    between atoms: C_27  and  C_28
REMARK                            x       y       z     vdW  Elec       q    Type
REMARK                         _______ _______ _______ _____ _____    ______ ____
ROOT
ATOM      1  C   UNL     1       3.365  -6.904   6.856  0.00  0.00    +0.234 C 
ATOM      2  O   UNL     1       3.105  -8.088   6.821  0.00  0.00    -0.274 OA
ATOM      3  N   UNL     1       4.114  -6.409   7.861  0.00  0.00    -0.284 N 
ATOM      4  H   UNL     1       4.261  -5.453   7.931  0.00  0.00    +0.155 HD
ENDROOT
BRANCH   3   5
ATOM      5  C   UNL     1       4.679  -7.271   8.800  0.00  0.00    +0.033 A 
ATOM      6  C   UNL     1       5.099  -8.540   8.413  0.00  0.00    +0.024 A 
ATOM      7  C   UNL     1       5.657  -9.394   9.338  0.00  0.00    +0.015 A 
ATOM      8  C   UNL     1       5.801  -8.985  10.667  0.00  0.00    +0.037 A 
ATOM      9  C   UNL     1       5.378  -7.710  11.052  0.00  0.00    +0.015 A 
ATOM     10  C   UNL     1       4.825  -6.859  10.121  0.00  0.00    +0.024 A 
BRANCH   8  11
ATOM     11  C   UNL     1       6.398  -9.898  11.661  0.00  0.00    +0.244 C 
ATOM     12  O   UNL     1       6.765 -11.007  11.324  0.00  0.00    -0.270 OA
ATOM     13  N   UNL     1       6.536  -9.502  12.942  0.00  0.00    -0.304 N 
ATOM     14  H   UNL     1       6.243  -8.617  13.210  0.00  0.00    +0.149 HD
BRANCH  13  15
ATOM     15  C   UNL     1       7.129 -10.409  13.929  0.00  0.00    +0.179 C 
BRANCH  15  16
ATOM     16  C   UNL     1       7.168  -9.730  15.274  0.00  0.00    +0.122 A 
ATOM     17  C   UNL     1       6.201  -9.778  16.207  0.00  0.00    +0.046 A 
ATOM     18  C   UNL     1       6.652  -9.007  17.303  0.00  0.00    +0.041 A 
ATOM     19  C   UNL     1       7.867  -8.534  16.974  0.00  0.00    +0.195 A 
ATOM     20  O   UNL     1       8.177  -8.980  15.746  0.00  0.00    -0.466 OA
ENDBRANCH  15  16
ENDBRANCH  13  15
ENDBRANCH   8  11
ENDBRANCH   3   5
BRANCH   1  21
ATOM     21  C   UNL     1       2.850  -5.986   5.777  0.00  0.00    +0.198 C 
BRANCH  21  22
ATOM     22  N   UNL     1       2.069  -6.761   4.810  0.00  0.00    -0.334 N 
ATOM     23  H   UNL     1       1.956  -7.716   4.931  0.00  0.00    +0.147 HD
BRANCH  22  28
ATOM     24  C   UNL     1       1.066  -4.124   2.446  0.00  0.00    +0.035 A 
ATOM     25  C   UNL     1       0.326  -4.863   1.531  0.00  0.00    +0.025 A 
ATOM     26  C   UNL     1       0.168  -6.224   1.707  0.00  0.00    +0.023 A 
ATOM     27  C   UNL     1       0.745  -6.856   2.793  0.00  0.00    +0.062 A 
ATOM     28  C   UNL     1       1.486  -6.122   3.712  0.00  0.00    +0.048 A 
ATOM     29  C   UNL     1       1.651  -4.756   3.534  0.00  0.00    +0.047 A 
ATOM     30 CL   UNL     1       0.543  -8.566   3.009  0.00  0.00    -0.082 Cl
BRANCH  24  33
ATOM     31  C   UNL     1       0.218  -2.011   1.756  0.00  0.00    +0.217 C 
ATOM     32  O   UNL     1      -0.796  -2.556   1.373  0.00  0.00    -0.275 OA
ATOM     33  N   UNL     1       1.226  -2.745   2.268  0.00  0.00    -0.285 N 
ATOM     34  H   UNL     1       2.062  -2.318   2.512  0.00  0.00    +0.155 HD
BRANCH  31  35
ATOM     35  C   UNL     1       0.350  -0.513   1.661  0.00  0.00    +0.096 C 
BRANCH  35  37
ATOM     36  C   UNL     1      -0.789   1.595   0.952  0.00  0.00    +0.004 C 
ATOM     37  C   UNL     1      -0.923   0.074   1.049  0.00  0.00    +0.006 C 
ENDBRANCH  35  37
ENDBRANCH  31  35
ENDBRANCH  24  33
ENDBRANCH  22  28
ENDBRANCH  21  22
ENDBRANCH   1  21
TORSDOF 10
