REMARK  Name = ZINC16010290
REMARK  5 active torsions:
REMARK  status: ('A' for Active; 'I' for Inactive)
REMARK    1  A    between atoms: C_12  and  C_15
REMARK    2  A    between atoms: C_15  and  C_16
REMARK    3  A    between atoms: C_16  and  C_17
REMARK    4  A    between atoms: N_22  and  C_25
REMARK    5  A    between atoms: C_27  and  C_32
REMARK                            x       y       z     vdW  Elec       q    Type
REMARK                         _______ _______ _______ _____ _____    ______ ____
ROOT
ATOM      1  C   UNL     1      -0.017   1.379   0.010  0.00  0.00    +0.000 A 
ATOM      2  C   UNL     1       1.173   2.084   0.002  0.00  0.00    +0.002 A 
ATOM      3  C   UNL     1       2.379   1.414  -0.013  0.00  0.00    +0.023 A 
ATOM      4  C   UNL     1       2.407   0.021  -0.021  0.00  0.00    +0.039 A 
ATOM      5  C   UNL     1       1.203  -0.677  -0.012  0.00  0.00    +0.003 A 
ATOM      6  C   UNL     1       0.002  -0.004   0.002  0.00  0.00    +0.008 A 
ATOM      7  C   UNL     1       1.575  -2.132  -0.021  0.00  0.00    +0.136 C 
ATOM      8  C   UNL     1       0.962  -2.889  -1.181  0.00  0.00    +0.123 C 
ATOM      9  C   UNL     1       1.173  -4.340  -0.596  0.00  0.00    +0.107 C 
ATOM     10  C   UNL     1       0.690  -4.230   0.787  0.00  0.00    +0.068 C 
ATOM     11  N   UNL     1       1.048  -2.819   1.191  0.00  0.00    -0.295 NA
ATOM     12  C   UNL     1       0.996  -5.164  -1.767  0.00  0.00    +0.232 C 
ATOM     13  O   UNL     1       0.512  -6.274  -1.824  0.00  0.00    -0.274 OA
ATOM     14  N   UNL     1       1.496  -4.415  -2.804  0.00  0.00    -0.208 N 
ATOM     15  C   UNL     1       1.706  -3.095  -2.464  0.00  0.00    +0.233 C 
ATOM     16  O   UNL     1       2.358  -2.270  -3.068  0.00  0.00    -0.274 OA
ATOM     17  C   UNL     1       3.077  -2.155  -0.037  0.00  0.00    +0.243 C 
ATOM     18  O   UNL     1       3.787  -3.139  -0.050  0.00  0.00    -0.273 OA
ATOM     19  N   UNL     1       3.483  -0.870  -0.035  0.00  0.00    -0.283 N 
ATOM     20  H   UNL     1       1.727  -2.809   1.936  0.00  0.00    +0.123 HD
ATOM     21  H   UNL     1       4.413  -0.596  -0.043  0.00  0.00    +0.155 HD
ENDROOT
BRANCH  14  22
ATOM     22  C   UNL     1       1.757  -4.933  -4.080  0.00  0.00    +0.063 A 
ATOM     23  C   UNL     1       0.770  -4.908  -5.056  0.00  0.00    +0.037 A 
ATOM     24  C   UNL     1       1.030  -5.419  -6.313  0.00  0.00    +0.057 A 
ATOM     25  C   UNL     1       2.271  -5.956  -6.600  0.00  0.00    +0.014 A 
ATOM     26  C   UNL     1       3.257  -5.983  -5.631  0.00  0.00    +0.022 A 
ATOM     27  C   UNL     1       3.006  -5.467  -4.373  0.00  0.00    +0.063 A 
ATOM     28 CL   UNL     1       4.246  -5.494  -3.159  0.00  0.00    -0.082 Cl
BRANCH  24  29
ATOM     29  C   UNL     1      -0.042  -5.393  -7.372  0.00  0.00    +0.417 C 
ATOM     30  F   UNL     1       0.047  -4.198  -8.095  0.00  0.00    -0.166 F 
ATOM     31  F   UNL     1       0.132  -6.477  -8.239  0.00  0.00    -0.166 F 
ATOM     32  F   UNL     1      -1.300  -5.478  -6.765  0.00  0.00    -0.166 F 
ENDBRANCH  24  29
ENDBRANCH  14  22
BRANCH  10  33
ATOM     33  C   UNL     1      -0.821  -4.463   0.846  0.00  0.00    +0.028 C 
BRANCH  33  34
ATOM     34  C   UNL     1      -1.280  -4.468   2.306  0.00  0.00    +0.097 C 
BRANCH  34  35
ATOM     35  C   UNL     1      -2.768  -4.698   2.364  0.00  0.00    +0.211 C 
ATOM     36  O   UNL     1      -3.399  -4.844   1.338  0.00  0.00    -0.276 OA
ATOM     37  N   UNL     1      -3.397  -4.742   3.554  0.00  0.00    -0.329 N 
ATOM     38  H   UNL     1      -2.892  -4.626   4.374  0.00  0.00    +0.145 HD
ATOM     39  H   UNL     1      -4.355  -4.890   3.592  0.00  0.00    +0.145 HD
ENDBRANCH  34  35
ENDBRANCH  33  34
ENDBRANCH  10  33
TORSDOF 5
