REMARK  Name = ZINC51674671
REMARK  8 active torsions:
REMARK  status: ('A' for Active; 'I' for Inactive)
REMARK    1  A    between atoms: C_1  and  C_2
REMARK    2  A    between atoms: C_3  and  C_8
REMARK    3  A    between atoms: C_8  and  C_9
REMARK    4  A    between atoms: C_9  and  C_10
REMARK    5  A    between atoms: C_10  and  N_11
REMARK    6  A    between atoms: C_17  and  N_20
REMARK    7  A    between atoms: C_21  and  C_23
REMARK    8  A    between atoms: C_24  and  C_28
REMARK                            x       y       z     vdW  Elec       q    Type
REMARK                         _______ _______ _______ _____ _____    ______ ____
ROOT
ATOM      1  N   UNL     1       2.781   0.735  -4.867  0.00  0.00    -0.299 N 
ATOM      2  C   UNL     1       3.014   1.171  -6.121  0.00  0.00    +0.302 C 
ATOM      3  O   UNL     1       2.100   1.240  -6.920  0.00  0.00    -0.253 OA
ATOM      4  N   UNL     1       4.260   1.530  -6.489  0.00  0.00    -0.286 N 
ATOM      5  C   UNL     1       5.394   1.343  -5.573  0.00  0.00    +0.111 C 
ATOM      6  C   UNL     1       6.128   2.679  -5.418  0.00  0.00    +0.041 C 
ATOM      7  C   UNL     1       6.517   3.206  -6.801  0.00  0.00    +0.076 C 
ATOM      8  C   UNL     1       5.254   3.442  -7.633  0.00  0.00    +0.041 C 
ATOM      9  C   UNL     1       4.511   2.110  -7.815  0.00  0.00    +0.111 C 
ATOM     10  H   UNL     1       3.520   0.610  -4.251  0.00  0.00    +0.150 HD
ENDROOT
BRANCH   7  11
ATOM     11  N   UNL     1       7.248   4.467  -6.655  0.00  0.00    -0.308 N 
ATOM     12  C   UNL     1       8.108   4.862  -7.615  0.00  0.00    +0.253 C 
ATOM     13  O   UNL     1       8.277   4.172  -8.602  0.00  0.00    -0.270 OA
ATOM     14  H   UNL     1       7.113   5.017  -5.868  0.00  0.00    +0.149 HD
BRANCH  12  15
ATOM     15  C   UNL     1       8.840   6.125  -7.468  0.00  0.00    +0.096 A 
ATOM     16  C   UNL     1       9.750   6.718  -8.315  0.00  0.00    +0.058 A 
ATOM     17  N   UNL     1      10.254   7.862  -7.925  0.00  0.00    -0.252 NA
ATOM     18  C   UNL     1       9.908   8.414  -6.784  0.00  0.00    +0.156 A 
ATOM     19  S   UNL     1       8.793   7.325  -6.147  0.00  0.00    -0.071 S 
ATOM     20  C   UNL     1      10.147   6.083  -9.623  0.00  0.00    +0.067 C 
ENDBRANCH  12  15
ENDBRANCH   7  11
BRANCH   1  21
ATOM     21  C   UNL     1       1.411   0.451  -4.433  0.00  0.00    +0.106 C 
BRANCH  21  22
ATOM     22  C   UNL     1       1.424  -0.025  -2.979  0.00  0.00    +0.023 C 
BRANCH  22  23
ATOM     23  C   UNL     1      -0.006  -0.322  -2.526  0.00  0.00    +0.040 C 
BRANCH  23  26
ATOM     24  C   UNL     1      -0.017   1.509   0.011  0.00  0.00    +0.065 C 
ATOM     25  C   UNL     1       0.002   0.002   0.003  0.00  0.00    +0.036 A 
ATOM     26  C   UNL     1       0.007  -0.790  -1.094  0.00  0.00    -0.007 A 
ATOM     27  C   UNL     1       0.026  -2.121  -0.663  0.00  0.00    +0.138 A 
ATOM     28  N   UNL     1       0.033  -2.127   0.645  0.00  0.00    -0.182 NA
ATOM     29  N   UNL     1       0.023  -0.799   1.089  0.00  0.00    -0.282 N 
ATOM     30  H   UNL     1       0.029  -0.506   2.014  0.00  0.00    +0.189 HD
ENDBRANCH  23  26
ENDBRANCH  22  23
ENDBRANCH  21  22
ENDBRANCH   1  21
TORSDOF 6
