REMARK  Name = ZINC44707852
REMARK  8 active torsions:
REMARK  status: ('A' for Active; 'I' for Inactive)
REMARK    1  A    between atoms: C_1  and  C_2
REMARK    2  A    between atoms: C_8  and  C_12
REMARK    3  A    between atoms: C_12  and  C_13
REMARK    4  A    between atoms: C_13  and  N_14
REMARK    5  A    between atoms: C_15  and  C_17
REMARK    6  A    between atoms: C_28  and  C_30
REMARK    7  A    between atoms: C_32  and  C_39
REMARK    8  A    between atoms: C_34  and  C_35
REMARK                            x       y       z     vdW  Elec       q    Type
REMARK                         _______ _______ _______ _____ _____    ______ ____
ROOT
ATOM      1  C   UNL     1      -2.524  -2.013   7.719  0.00  0.00    +0.100 C 
ATOM      2  C   UNL     1      -1.685  -0.780   8.123  0.00  0.00    +0.121 C 
ATOM      3  N   UNL     1      -2.658   0.335   8.176  0.00  0.00    -0.296 N 
ATOM      4  C   UNL     1      -3.874  -0.265   8.776  0.00  0.00    +0.115 C 
ATOM      5  C   UNL     1      -3.960  -1.672   8.153  0.00  0.00    -0.004 C 
ATOM      6  C   UNL     1      -4.452  -2.679   9.187  0.00  0.00    -0.010 C 
ATOM      7  C   UNL     1      -5.902  -2.354   9.560  0.00  0.00    -0.082 C 
ATOM      8  N   UNL     1      -6.742  -2.408   8.357  0.00  0.00    +0.379 N 
ATOM      9  C   UNL     1      -6.319  -1.373   7.405  0.00  0.00    -0.082 C 
ATOM     10  C   UNL     1      -4.888  -1.656   6.942  0.00  0.00    -0.010 C 
ATOM     11  C   UNL     1      -2.479   1.608   7.771  0.00  0.00    +0.250 C 
ATOM     12  O   UNL     1      -1.458   1.923   7.190  0.00  0.00    -0.270 OA
ATOM     13  H   UNL     1      -6.652  -3.316   7.926  0.00  0.00    -0.086 HD
ATOM     14  H   UNL     1      -7.705  -2.253   8.614  0.00  0.00    -0.086 HD
ENDROOT
BRANCH  11  15
ATOM     15  C   UNL     1      -3.521   2.618   8.031  0.00  0.00    +0.087 A 
ATOM     16  C   UNL     1      -4.738   2.451   8.838  0.00  0.00    +0.058 A 
ATOM     17  C   UNL     1      -5.377   3.630   8.790  0.00  0.00    +0.103 A 
ATOM     18  O   UNL     1      -4.667   4.484   8.037  0.00  0.00    -0.455 OA
ATOM     19  C   UNL     1      -3.554   3.904   7.578  0.00  0.00    +0.220 A 
ATOM     20  C   UNL     1      -6.684   3.945   9.472  0.00  0.00    +0.086 C 
BRANCH  19  21
ATOM     21  C   UNL     1      -2.513   4.559   6.707  0.00  0.00    +0.451 C 
ATOM     22  F   UNL     1      -2.844   4.366   5.361  0.00  0.00    -0.163 F 
ATOM     23  F   UNL     1      -2.468   5.929   6.984  0.00  0.00    -0.163 F 
ATOM     24  F   UNL     1      -1.262   3.989   6.966  0.00  0.00    -0.163 F 
ENDBRANCH  19  21
ENDBRANCH  11  15
BRANCH   1  26
ATOM     25  N   UNL     1      -2.560  -3.468   5.719  0.00  0.00    -0.315 N 
ATOM     26  C   UNL     1      -2.463  -2.224   6.228  0.00  0.00    +0.218 C 
ATOM     27  O   UNL     1      -2.325  -1.274   5.487  0.00  0.00    -0.275 OA
ATOM     28  H   UNL     1      -2.670  -4.227   6.312  0.00  0.00    +0.149 HD
BRANCH  25  29
ATOM     29  C   UNL     1      -2.500  -3.673   4.269  0.00  0.00    +0.109 C 
BRANCH  29  30
ATOM     30  C   UNL     1      -2.634  -5.165   3.960  0.00  0.00    +0.056 C 
BRANCH  30  38
ATOM     31  C   UNL     1       2.387  -5.648   1.245  0.00  0.00    +0.044 C 
ATOM     32  C   UNL     1       0.912  -5.662   0.935  0.00  0.00    -0.050 A 
ATOM     33  C   UNL     1       0.486  -5.838  -0.374  0.00  0.00    +0.005 A 
ATOM     34  C   UNL     1      -0.857  -5.854  -0.680  0.00  0.00    +0.026 A 
ATOM     35  C   UNL     1      -1.798  -5.693   0.333  0.00  0.00    +0.047 A 
ATOM     36  C   UNL     1      -1.361  -5.515   1.658  0.00  0.00    +0.003 A 
ATOM     37  C   UNL     1       0.006  -5.507   1.945  0.00  0.00    +0.013 A 
ATOM     38  C   UNL     1      -2.572  -5.376   2.469  0.00  0.00    -0.021 A 
ATOM     39  C   UNL     1      -3.618  -5.473   1.632  0.00  0.00    +0.087 A 
ATOM     40  N   UNL     1      -3.174  -5.662   0.351  0.00  0.00    -0.360 N 
ATOM     41  H   UNL     1      -3.745  -5.761  -0.427  0.00  0.00    +0.165 HD
ENDBRANCH  30  38
ENDBRANCH  29  30
ENDBRANCH  25  29
ENDBRANCH   1  26
TORSDOF 6
