REMARK  Name = ZINC01837521
REMARK  10 active torsions:
REMARK  status: ('A' for Active; 'I' for Inactive)
REMARK    1  A    between atoms: C_1  and  N_2
REMARK    2  A    between atoms: N_2  and  C_3
REMARK    3  A    between atoms: N_2  and  C_4
REMARK    4  A    between atoms: C_7  and  C_10
REMARK    5  A    between atoms: N_11  and  N_12
REMARK    6  A    between atoms: C_13  and  C_15
REMARK    7  A    between atoms: C_15  and  S_16
REMARK    8  A    between atoms: S_16  and  C_17
REMARK    9  A    between atoms: C_20  and  C_29
REMARK   10  A    between atoms: N_21  and  C_22
REMARK                            x       y       z     vdW  Elec       q    Type
REMARK                         _______ _______ _______ _____ _____    ______ ____
ROOT
ATOM      1  C   UNL     1      -0.059  -2.731 -12.521  0.00  0.00    +0.197 A 
ATOM      2  N   UNL     1      -0.052  -4.046 -12.549  0.00  0.00    -0.122 NA
ATOM      3  N   UNL     1      -0.055  -4.462 -13.765  0.00  0.00    -0.128 NA
ATOM      4  C   UNL     1      -0.063  -3.440 -14.590  0.00  0.00    +0.169 A 
ATOM      5  N   UNL     1      -0.072  -2.299 -13.819  0.00  0.00    -0.270 N 
ENDROOT
BRANCH   5   6
ATOM      6  C   UNL     1      -0.089  -0.971 -14.270  0.00  0.00    +0.051 A 
ATOM      7  C   UNL     1      -1.190  -0.485 -14.961  0.00  0.00    +0.027 A 
ATOM      8  C   UNL     1      -1.203   0.823 -15.404  0.00  0.00    +0.017 A 
ATOM      9  C   UNL     1      -0.120   1.649 -15.160  0.00  0.00    +0.018 A 
ATOM     10  C   UNL     1       0.979   1.167 -14.471  0.00  0.00    +0.017 A 
ATOM     11  C   UNL     1       0.994  -0.139 -14.020  0.00  0.00    +0.027 A 
ATOM     12 BR   UNL     1      -0.141   3.439 -15.769  0.00  0.00    -0.050 Br
ENDBRANCH   5   6
BRANCH   4  13
ATOM     13  C   UNL     1      -0.069  -3.503 -16.067  0.00  0.00    +0.020 A 
ATOM     14  C   UNL     1       0.241  -2.368 -16.818  0.00  0.00    +0.011 A 
ATOM     15  C   UNL     1       0.234  -2.434 -18.196  0.00  0.00    +0.001 A 
ATOM     16  C   UNL     1      -0.079  -3.622 -18.833  0.00  0.00    +0.000 A 
ATOM     17  C   UNL     1      -0.387  -4.750 -18.095  0.00  0.00    +0.001 A 
ATOM     18  C   UNL     1      -0.378  -4.700 -16.716  0.00  0.00    +0.011 A 
ENDBRANCH   4  13
BRANCH   1  19
ATOM     19  S   UNL     1      -0.059  -1.717 -11.080  0.00  0.00    -0.076 S 
BRANCH  19  20
ATOM     20  C   UNL     1      -0.038  -2.903  -9.708  0.00  0.00    +0.174 C 
BRANCH  20  22
ATOM     21  N   UNL     1      -0.022  -2.837  -7.235  0.00  0.00    -0.206 N 
ATOM     22  C   UNL     1      -0.036  -2.156  -8.399  0.00  0.00    +0.242 C 
ATOM     23  O   UNL     1      -0.048  -0.943  -8.392  0.00  0.00    -0.273 OA
ATOM     24  H   UNL     1      -0.012  -3.807  -7.241  0.00  0.00    +0.177 HD
BRANCH  21  26
ATOM     25  C   UNL     1      -0.006  -2.798  -4.898  0.00  0.00    +0.138 C 
ATOM     26  N   UNL     1      -0.020  -2.143  -6.018  0.00  0.00    -0.188 NA
BRANCH  25  30
ATOM     27  C   UNL     1       0.000  -0.695  -1.210  0.00  0.00    +0.029 A 
ATOM     28  C   UNL     1       0.013  -2.086  -1.215  0.00  0.00    +0.024 A 
ATOM     29  C   UNL     1       0.011  -2.771  -2.410  0.00  0.00    +0.011 A 
ATOM     30  C   UNL     1      -0.004  -2.068  -3.617  0.00  0.00    -0.005 A 
ATOM     31  C   UNL     1      -0.017  -0.670  -3.608  0.00  0.00    +0.011 A 
ATOM     32  C   UNL     1      -0.021   0.009  -2.409  0.00  0.00    +0.024 A 
BRANCH  27  34
ATOM     33  C   UNL     1      -0.018   1.461   0.010  0.00  0.00    +0.129 C 
ATOM     34  N   UNL     1       0.002  -0.004   0.002  0.00  0.00    -0.336 N 
ATOM     35  C   UNL     1       0.024  -0.743   1.267  0.00  0.00    +0.129 C 
ENDBRANCH  27  34
ENDBRANCH  25  30
ENDBRANCH  21  26
ENDBRANCH  20  22
ENDBRANCH  19  20
ENDBRANCH   1  19
TORSDOF 8
