REMARK  Name = ZINC38551041
REMARK  7 active torsions:
REMARK  status: ('A' for Active; 'I' for Inactive)
REMARK    1  A    between atoms: C_1  and  C_2
REMARK    2  A    between atoms: C_6  and  N_8
REMARK    3  A    between atoms: N_8  and  C_9
REMARK    4  A    between atoms: C_9  and  C_11
REMARK    5  A    between atoms: C_9  and  C_17
REMARK    6  A    between atoms: C_21  and  N_22
REMARK    7  A    between atoms: C_23  and  C_25
REMARK                            x       y       z     vdW  Elec       q    Type
REMARK                         _______ _______ _______ _____ _____    ______ ____
ROOT
ATOM      1  C   UNL     1      -0.582  -4.836   3.353  0.00  0.00    +0.009 A 
ATOM      2  C   UNL     1      -1.741  -5.567   3.087  0.00  0.00    -0.030 A 
ATOM      3  C   UNL     1      -2.556  -5.822   4.145  0.00  0.00    -0.005 A 
ATOM      4  S   UNL     1      -1.730  -5.056   5.514  0.00  0.00    -0.078 S 
ATOM      5  C   UNL     1      -0.318  -4.424   4.621  0.00  0.00    +0.078 A 
ATOM      6  C   UNL     1      -3.848  -6.574   4.139  0.00  0.00    +0.043 C 
ATOM      7  C   UNL     1      -4.319  -6.714   2.683  0.00  0.00    +0.005 C 
ATOM      8  C   UNL     1      -3.139  -7.191   1.830  0.00  0.00    +0.005 C 
ATOM      9  C   UNL     1      -2.106  -6.072   1.694  0.00  0.00    +0.036 C 
ENDROOT
BRANCH   5  10
ATOM     10  N   UNL     1       0.772  -3.696   5.101  0.00  0.00    -0.273 N 
ATOM     11  C   UNL     1       0.914  -3.488   6.425  0.00  0.00    +0.284 C 
ATOM     12  O   UNL     1       0.092  -3.936   7.203  0.00  0.00    -0.266 OA
ATOM     13  H   UNL     1       1.428  -3.339   4.481  0.00  0.00    +0.156 HD
BRANCH  11  14
ATOM     14  C   UNL     1       2.059  -2.723   6.928  0.00  0.00    +0.189 A 
ATOM     15  C   UNL     1       2.325  -2.446   8.239  0.00  0.00    +0.054 A 
ATOM     16  C   UNL     1       3.511  -1.696   8.260  0.00  0.00    +0.042 A 
ATOM     17  C   UNL     1       3.913  -1.550   6.978  0.00  0.00    +0.196 A 
ATOM     18  O   UNL     1       3.038  -2.175   6.179  0.00  0.00    -0.458 OA
ENDBRANCH  11  14
ENDBRANCH   5  10
BRANCH   1  19
ATOM     19  C   UNL     1       0.377  -4.510   2.237  0.00  0.00    +0.135 C 
BRANCH  19  20
ATOM     20  C   UNL     1       1.606  -5.372   2.363  0.00  0.00    -0.023 A 
ATOM     21  C   UNL     1       2.687  -4.932   3.104  0.00  0.00    +0.006 A 
ATOM     22  C   UNL     1       3.814  -5.723   3.219  0.00  0.00    +0.000 A 
ATOM     23  C   UNL     1       3.861  -6.955   2.594  0.00  0.00    +0.000 A 
ATOM     24  C   UNL     1       2.780  -7.396   1.853  0.00  0.00    +0.000 A 
ATOM     25  C   UNL     1       1.651  -6.606   1.742  0.00  0.00    +0.006 A 
ENDBRANCH  19  20
BRANCH  19  26
ATOM     26  N   UNL     1       0.761  -3.098   2.321  0.00  0.00    -0.320 N 
ATOM     27  H   UNL     1       0.518  -2.575   3.100  0.00  0.00    +0.148 HD
BRANCH  26  33
ATOM     28  C   UNL     1       2.858   0.820   0.541  0.00  0.00    +0.063 C 
ATOM     29  C   UNL     1       2.492  -0.635   0.401  0.00  0.00    +0.014 A 
ATOM     30  C   UNL     1       2.867  -1.325  -0.735  0.00  0.00    +0.021 A 
ATOM     31  C   UNL     1       2.526  -2.666  -0.859  0.00  0.00    +0.005 A 
ATOM     32  C   UNL     1       1.818  -3.265   0.167  0.00  0.00    +0.041 A 
ATOM     33  C   UNL     1       1.473  -2.509   1.282  0.00  0.00    +0.097 A 
ATOM     34  N   UNL     1       1.821  -1.234   1.366  0.00  0.00    -0.347 N 
ATOM     35  H   UNL     1       1.573  -0.727   2.155  0.00  0.00    +0.167 HD
ENDBRANCH  26  33
ENDBRANCH  19  26
ENDBRANCH   1  19
TORSDOF 6
