REMARK  Name = ZINC28730266
REMARK  10 active torsions:
REMARK  status: ('A' for Active; 'I' for Inactive)
REMARK    1  A    between atoms: C_1  and  C_2
REMARK    2  A    between atoms: C_3  and  C_16
REMARK    3  A    between atoms: C_4  and  C_15
REMARK    4  A    between atoms: N_5  and  C_7
REMARK    5  A    between atoms: C_7  and  C_8
REMARK    6  A    between atoms: C_16  and  N_17
REMARK    7  A    between atoms: N_17  and  C_18
REMARK    8  A    between atoms: N_17  and  C_19
REMARK    9  A    between atoms: C_19  and  C_20
REMARK   10  A    between atoms: C_33  and  C_35
REMARK                            x       y       z     vdW  Elec       q    Type
REMARK                         _______ _______ _______ _____ _____    ______ ____
ROOT
ATOM      1  N   UNL     1       5.411  -0.813  -0.777  0.00  0.00    +0.386 N 
ATOM      2  C   UNL     1       5.489  -1.981   0.111  0.00  0.00    -0.095 C 
ATOM      3  H   UNL     1       5.753   0.066  -0.211  0.00  0.00    -0.081 HD
ENDROOT
BRANCH   1   4
ATOM      4  C   UNL     1       6.296  -0.975  -1.938  0.00  0.00    -0.039 C 
BRANCH   4   7
ATOM      5  C   UNL     1       8.173   1.564  -1.662  0.00  0.00    +0.068 C 
ATOM      6  C   UNL     1       8.560   0.140  -1.357  0.00  0.00    +0.062 A 
ATOM      7  C   UNL     1       7.731  -0.980  -1.479  0.00  0.00    -0.021 A 
ATOM      8  C   UNL     1       8.448  -2.069  -1.117  0.00  0.00    +0.038 A 
ATOM      9  N   UNL     1       9.684  -1.653  -0.772  0.00  0.00    -0.264 N 
ATOM     10  N   UNL     1       9.729  -0.261  -0.927  0.00  0.00    -0.176 NA
ATOM     11  C   UNL     1       7.953  -3.493  -1.101  0.00  0.00    +0.065 C 
BRANCH   9  12
ATOM     12  C   UNL     1      10.785  -2.505  -0.316  0.00  0.00    +0.180 C 
BRANCH  12  13
ATOM     13  C   UNL     1      10.824  -2.513   1.190  0.00  0.00    -0.008 A 
ATOM     14  C   UNL     1      10.252  -3.558   1.891  0.00  0.00    +0.007 A 
ATOM     15  C   UNL     1      10.287  -3.564   3.273  0.00  0.00    +0.000 A 
ATOM     16  C   UNL     1      10.896  -2.527   3.955  0.00  0.00    +0.001 A 
ATOM     17  C   UNL     1      11.469  -1.482   3.255  0.00  0.00    +0.020 A 
ATOM     18  C   UNL     1      11.438  -1.477   1.871  0.00  0.00    +0.046 A 
ATOM     19 CL   UNL     1      12.164  -0.168   0.991  0.00  0.00    -0.083 Cl
ENDBRANCH  12  13
ENDBRANCH   9  12
ENDBRANCH   4   7
ENDBRANCH   1   4
BRANCH   1  20
ATOM     20  C   UNL     1       4.026  -0.567  -1.202  0.00  0.00    +0.019 C 
BRANCH  20  21
ATOM     21  C   UNL     1       3.199  -0.165  -0.008  0.00  0.00    +0.204 C 
ATOM     22  O   UNL     1       3.712  -0.091   1.089  0.00  0.00    -0.277 OA
ATOM     23  N   UNL     1       1.889   0.112  -0.159  0.00  0.00    -0.268 N 
ATOM     24  C   UNL     1       1.282   0.032  -1.419  0.00  0.00    +0.058 A 
ATOM     25  C   UNL     1       1.534   0.991  -2.386  0.00  0.00    +0.025 A 
ATOM     26  C   UNL     1       0.895   0.919  -3.610  0.00  0.00    +0.002 A 
ATOM     27  C   UNL     1       0.005  -0.107  -3.873  0.00  0.00    +0.002 A 
ATOM     28  C   UNL     1      -0.242  -1.076  -2.918  0.00  0.00    +0.025 A 
ATOM     29  C   UNL     1       0.402  -1.015  -1.693  0.00  0.00    +0.055 A 
ATOM     30  N   UNL     1       0.188  -1.997  -0.719  0.00  0.00    -0.284 N 
ATOM     31  C   UNL     1      -0.096  -1.650   0.556  0.00  0.00    +0.219 C 
ATOM     32  O   UNL     1      -0.201  -2.509   1.406  0.00  0.00    -0.275 OA
ATOM     33  C   UNL     1      -0.283  -0.203   0.930  0.00  0.00    +0.118 C 
ATOM     34  C   UNL     1       1.072   0.504   0.991  0.00  0.00    +0.087 C 
ATOM     35  C   UNL     1       0.856   2.019   0.969  0.00  0.00    +0.029 C 
ATOM     36  H   UNL     1       0.251  -3.062  -0.987  0.00  0.00    +0.155 HD
ENDBRANCH  20  21
ENDBRANCH   1  20
TORSDOF 6
