REMARK  Name = ZINC20927929
REMARK  9 active torsions:
REMARK  status: ('A' for Active; 'I' for Inactive)
REMARK    1  A    between atoms: C_1  and  O_2
REMARK    2  A    between atoms: O_2  and  C_3
REMARK    3  A    between atoms: C_6  and  N_9
REMARK    4  A    between atoms: N_9  and  S_10
REMARK    5  A    between atoms: S_10  and  C_13
REMARK    6  A    between atoms: C_15  and  N_31
REMARK    7  A    between atoms: C_18  and  N_19
REMARK    8  A    between atoms: N_19  and  N_20
REMARK    9  A    between atoms: N_20  and  C_21
REMARK                            x       y       z     vdW  Elec       q    Type
REMARK                         _______ _______ _______ _____ _____    ______ ____
ROOT
ATOM      1  C   UNL     1       2.657  -5.280  -3.220  0.00  0.00    +0.133 A 
ATOM      2  C   UNL     1       2.770  -6.603  -3.601  0.00  0.00    +0.063 A 
ATOM      3  C   UNL     1       2.147  -7.593  -2.863  0.00  0.00    +0.128 A 
ATOM      4  C   UNL     1       1.409  -7.262  -1.742  0.00  0.00    +0.035 A 
ATOM      5  C   UNL     1       1.291  -5.942  -1.355  0.00  0.00    +0.028 A 
ATOM      6  C   UNL     1       1.921  -4.945  -2.091  0.00  0.00    +0.071 A 
ENDROOT
BRANCH   1   7
ATOM      7  S   UNL     1       3.453  -4.020  -4.160  0.00  0.00    +0.074 S 
ATOM      8  O   UNL     1       2.469  -3.030  -4.425  0.00  0.00    -0.150 OA
ATOM      9  O   UNL     1       4.170  -4.678  -5.195  0.00  0.00    -0.150 OA
BRANCH   7  10
ATOM     10  N   UNL     1       4.582  -3.314  -3.176  0.00  0.00    -0.216 N 
ATOM     11  H   UNL     1       4.471  -2.393  -2.893  0.00  0.00    +0.174 HD
BRANCH  10  15
ATOM     12  C   UNL     1       7.903  -5.495  -1.914  0.00  0.00    +0.120 A 
ATOM     13  C   UNL     1       8.063  -4.204  -2.395  0.00  0.00    +0.047 A 
ATOM     14  C   UNL     1       6.963  -3.481  -2.813  0.00  0.00    +0.028 A 
ATOM     15  C   UNL     1       5.697  -4.046  -2.752  0.00  0.00    +0.048 A 
ATOM     16  C   UNL     1       5.537  -5.339  -2.271  0.00  0.00    +0.028 A 
ATOM     17  C   UNL     1       6.638  -6.062  -1.858  0.00  0.00    +0.047 A 
BRANCH  12  19
ATOM     18  C   UNL     1      10.258  -5.559  -1.587  0.00  0.00    +0.277 C 
ATOM     19  O   UNL     1       8.986  -6.206  -1.502  0.00  0.00    -0.495 OA
ENDBRANCH  12  19
ENDBRANCH  10  15
ENDBRANCH   7  10
ENDBRANCH   1   7
BRANCH   3  20
ATOM     20  N   UNL     1       2.270  -9.009  -3.275  0.00  0.00    +0.056 N 
ATOM     21  O   UNL     1       2.915  -9.300  -4.256  0.00  0.00    -0.126 OA
ATOM     22  O   UNL     1       1.725  -9.875  -2.631  0.00  0.00    -0.126 OA
ENDBRANCH   3  20
BRANCH   6  23
ATOM     23  N   UNL     1       1.810  -3.609  -1.699  0.00  0.00    -0.265 N 
ATOM     24  H   UNL     1       2.300  -2.921  -2.176  0.00  0.00    +0.170 HD
BRANCH  23  25
ATOM     25  N   UNL     1       0.990  -3.263  -0.617  0.00  0.00    -0.261 N 
ATOM     26  H   UNL     1       1.373  -3.157   0.268  0.00  0.00    +0.170 HD
BRANCH  25  27
ATOM     27  C   UNL     1      -0.320  -3.078  -0.804  0.00  0.00    +0.116 C 
ATOM     28  C   UNL     1      -1.044  -3.202  -2.014  0.00  0.00    +0.024 A 
ATOM     29  C   UNL     1      -0.673  -3.533  -3.323  0.00  0.00    +0.012 A 
ATOM     30  C   UNL     1      -1.632  -3.572  -4.316  0.00  0.00    +0.001 A 
ATOM     31  C   UNL     1      -2.955  -3.286  -4.023  0.00  0.00    +0.002 A 
ATOM     32  C   UNL     1      -3.342  -2.957  -2.734  0.00  0.00    +0.024 A 
ATOM     33  C   UNL     1      -2.399  -2.909  -1.711  0.00  0.00    +0.043 A 
ATOM     34  N   UNL     1      -2.515  -2.617  -0.384  0.00  0.00    -0.280 N 
ATOM     35  C   UNL     1      -1.347  -2.698   0.228  0.00  0.00    +0.264 C 
ATOM     36  O   UNL     1      -1.139  -2.498   1.411  0.00  0.00    -0.268 OA
ATOM     37  H   UNL     1      -3.348  -2.385   0.055  0.00  0.00    +0.155 HD
ENDBRANCH  25  27
ENDBRANCH  23  25
ENDBRANCH   6  23
TORSDOF 8
