REMARK  Name = ZINC39604877
REMARK  6 active torsions:
REMARK  status: ('A' for Active; 'I' for Inactive)
REMARK    1  A    between atoms: C_3  and  C_15
REMARK    2  A    between atoms: C_4  and  O_7
REMARK    3  A    between atoms: O_7  and  C_8
REMARK    4  A    between atoms: C_19  and  C_28
REMARK    5  A    between atoms: N_30  and  C_31
REMARK    6  A    between atoms: C_31  and  C_32
REMARK                            x       y       z     vdW  Elec       q    Type
REMARK                         _______ _______ _______ _____ _____    ______ ____
ROOT
ATOM      1  C   UNL     1       3.626   2.159   0.214  0.00  0.00    +0.252 C 
ATOM      2  O   UNL     1       4.644   1.496   0.200  0.00  0.00    -0.270 OA
ATOM      3  N   UNL     1       3.694   3.501   0.107  0.00  0.00    -0.296 N 
ATOM      4  C   UNL     1       2.571   4.463   0.004  0.00  0.00    +0.121 C 
ATOM      5  C   UNL     1       3.009   5.667   0.868  0.00  0.00    +0.100 C 
ATOM      6  C   UNL     1       4.544   5.588   0.902  0.00  0.00    -0.004 C 
ATOM      7  C   UNL     1       4.910   4.349   0.072  0.00  0.00    +0.115 C 
ATOM      8  C   UNL     1       5.152   6.841   0.280  0.00  0.00    -0.010 C 
ATOM      9  C   UNL     1       6.678   6.765   0.379  0.00  0.00    -0.082 C 
ATOM     10  N   UNL     1       7.075   6.653   1.787  0.00  0.00    +0.379 N 
ATOM     11  C   UNL     1       6.563   5.399   2.353  0.00  0.00    -0.082 C 
ATOM     12  C   UNL     1       5.032   5.417   2.338  0.00  0.00    -0.010 C 
ATOM     13  H   UNL     1       8.082   6.665   1.854  0.00  0.00    -0.086 HD
ATOM     14  H   UNL     1       6.697   7.433   2.305  0.00  0.00    -0.086 HD
ENDROOT
BRANCH   1  17
ATOM     15  C   UNL     1      -0.018   1.345  -0.153  0.00  0.00    +0.021 A 
ATOM     16  C   UNL     1       1.189   2.005  -0.310  0.00  0.00    +0.020 A 
ATOM     17  C   UNL     1       2.315   1.496   0.347  0.00  0.00    +0.099 A 
ATOM     18  C   UNL     1       2.174   0.344   1.136  0.00  0.00    +0.233 A 
ATOM     19  N   UNL     1       0.998  -0.248   1.252  0.00  0.00    -0.220 NA
ATOM     20  C   UNL     1      -0.076   0.214   0.642  0.00  0.00    +0.114 A 
BRANCH  18  21
ATOM     21  O   UNL     1       3.251  -0.166   1.780  0.00  0.00    -0.437 OA
BRANCH  21  22
ATOM     22  C   UNL     1       3.100  -1.345   2.440  0.00  0.00    +0.130 A 
ATOM     23  C   UNL     1       3.079  -2.538   1.732  0.00  0.00    +0.048 A 
ATOM     24  C   UNL     1       2.926  -3.736   2.404  0.00  0.00    +0.023 A 
ATOM     25  C   UNL     1       2.795  -3.745   3.782  0.00  0.00    +0.041 A 
ATOM     26  C   UNL     1       2.816  -2.556   4.489  0.00  0.00    +0.023 A 
ATOM     27  C   UNL     1       2.974  -1.357   3.821  0.00  0.00    +0.048 A 
ATOM     28 CL   UNL     1       2.602  -5.251   4.623  0.00  0.00    -0.084 Cl
ENDBRANCH  21  22
ENDBRANCH  18  21
ENDBRANCH   1  17
BRANCH   5  29
ATOM     29  C   UNL     1       2.562   6.958   0.232  0.00  0.00    +0.218 C 
ATOM     30  O   UNL     1       2.419   7.024  -0.971  0.00  0.00    -0.275 OA
ATOM     31  N   UNL     1       2.321   8.040   1.000  0.00  0.00    -0.313 N 
ATOM     32  H   UNL     1       2.435   7.987   1.961  0.00  0.00    +0.149 HD
BRANCH  31  33
ATOM     33  C   UNL     1       1.886   9.295   0.381  0.00  0.00    +0.135 C 
BRANCH  33  34
ATOM     34  C   UNL     1       1.684  10.354   1.466  0.00  0.00    +0.135 C 
ATOM     35  C   UNL     1       1.111  11.643   0.839  0.00  0.00    +0.035 C 
ATOM     36  C   UNL     1       1.870  12.754   1.616  0.00  0.00    +0.031 C 
ATOM     37  C   UNL     1       3.244  12.072   1.835  0.00  0.00    +0.160 C 
ATOM     38  O   UNL     1       2.943  10.684   2.064  0.00  0.00    -0.375 OA
ENDBRANCH  33  34
ENDBRANCH  31  33
ENDBRANCH   5  29
TORSDOF 6
