REMARK  Name = ZINC34750246
REMARK  9 active torsions:
REMARK  status: ('A' for Active; 'I' for Inactive)
REMARK    1  A    between atoms: C_1  and  C_2
REMARK    2  A    between atoms: C_7  and  N_8
REMARK    3  A    between atoms: C_9  and  C_11
REMARK    4  A    between atoms: C_11  and  S_12
REMARK    5  A    between atoms: S_12  and  C_13
REMARK    6  A    between atoms: C_24  and  C_26
REMARK    7  A    between atoms: C_24  and  C_27
REMARK    8  A    between atoms: N_31  and  C_34
REMARK    9  A    between atoms: C_34  and  C_35
REMARK                            x       y       z     vdW  Elec       q    Type
REMARK                         _______ _______ _______ _____ _____    ______ ____
ROOT
ATOM      1  C   UNL     1      -0.173  -0.098   7.711  0.00  0.00    +0.191 A 
ATOM      2  N   UNL     1      -0.261  -0.668   8.907  0.00  0.00    -0.206 NA
ATOM      3  C   UNL     1      -0.560   0.021   9.995  0.00  0.00    +0.134 A 
ATOM      4  C   UNL     1      -0.797   1.421   9.889  0.00  0.00    +0.051 A 
ATOM      5  C   UNL     1      -1.140   2.375  10.943  0.00  0.00    -0.020 A 
ATOM      6  C   UNL     1      -1.314   3.662  10.573  0.00  0.00    +0.021 A 
ATOM      7  S   UNL     1      -1.035   3.682   8.825  0.00  0.00    -0.071 S 
ATOM      8  C   UNL     1      -0.686   1.958   8.591  0.00  0.00    +0.115 A 
ATOM      9  N   UNL     1      -0.379   1.203   7.554  0.00  0.00    -0.214 NA
ATOM     10  C   UNL     1      -1.669   4.802  11.477  0.00  0.00    +0.203 C 
ATOM     11  O   UNL     1      -2.103   4.254  12.731  0.00  0.00    -0.368 OA
ATOM     12  C   UNL     1      -1.220   3.257  13.254  0.00  0.00    +0.068 C 
ATOM     13  C   UNL     1      -1.304   1.983  12.409  0.00  0.00    +0.071 C 
ATOM     14  C   UNL     1       0.215   3.788  13.229  0.00  0.00    +0.041 C 
ATOM     15  C   UNL     1      -1.614   2.937  14.697  0.00  0.00    +0.041 C 
ATOM     16  N   UNL     1      -0.641  -0.611  11.223  0.00  0.00    -0.318 N 
ATOM     17  C   UNL     1      -1.933  -1.081  11.746  0.00  0.00    +0.088 C 
ATOM     18  C   UNL     1      -1.778  -2.543  12.180  0.00  0.00    -0.059 C 
ATOM     19  N   UNL     1      -0.662  -2.655  13.128  0.00  0.00    +0.384 N 
ATOM     20  C   UNL     1       0.598  -2.305  12.461  0.00  0.00    -0.059 C 
ATOM     21  C   UNL     1       0.561  -0.837  12.038  0.00  0.00    +0.088 C 
ATOM     22  H   UNL     1      -0.816  -2.028  13.903  0.00  0.00    -0.081 HD
ENDROOT
BRANCH   1  23
ATOM     23  S   UNL     1       0.230  -1.085   6.309  0.00  0.00    -0.077 S 
BRANCH  23  24
ATOM     24  C   UNL     1       0.244   0.094   4.931  0.00  0.00    +0.173 C 
BRANCH  24  26
ATOM     25  N   UNL     1       0.649   0.049   2.491  0.00  0.00    -0.285 N 
ATOM     26  C   UNL     1       0.581  -0.631   3.653  0.00  0.00    +0.227 C 
ATOM     27  O   UNL     1       0.790  -1.825   3.671  0.00  0.00    -0.275 OA
ATOM     28  H   UNL     1       0.550   1.014   2.487  0.00  0.00    +0.155 HD
BRANCH  25  35
ATOM     29  C   UNL     1      -0.584   1.051   0.131  0.00  0.00    +0.045 C 
ATOM     30  C   UNL     1       0.281  -0.183   0.116  0.00  0.00    -0.029 A 
ATOM     31  C   UNL     1       0.499  -0.860  -1.069  0.00  0.00    +0.005 A 
ATOM     32  C   UNL     1       1.292  -1.992  -1.083  0.00  0.00    +0.000 A 
ATOM     33  C   UNL     1       1.870  -2.450   0.086  0.00  0.00    +0.002 A 
ATOM     34  C   UNL     1       1.656  -1.778   1.274  0.00  0.00    +0.023 A 
ATOM     35  C   UNL     1       0.864  -0.638   1.291  0.00  0.00    +0.036 A 
ENDBRANCH  25  35
ENDBRANCH  24  26
ENDBRANCH  23  24
ENDBRANCH   1  23
BRANCH  19  36
ATOM     36  C   UNL     1      -0.583  -4.034  13.628  0.00  0.00    -0.052 C 
BRANCH  36  37
ATOM     37  C   UNL     1       0.481  -4.123  14.691  0.00  0.00    -0.053 C 
ATOM     38  C   UNL     1       0.185  -4.597  15.876  0.00  0.00    +0.002 C 
ENDBRANCH  36  37
ENDBRANCH  19  36
TORSDOF 6
