REMARK  Name = ZINC58849665
REMARK  9 active torsions:
REMARK  status: ('A' for Active; 'I' for Inactive)
REMARK    1  A    between atoms: C_1  and  C_2
REMARK    2  A    between atoms: C_2  and  O_3
REMARK    3  A    between atoms: O_3  and  C_4
REMARK    4  A    between atoms: C_7  and  C_10
REMARK    5  A    between atoms: C_21  and  S_26
REMARK    6  A    between atoms: S_26  and  N_29
REMARK    7  A    between atoms: N_29  and  C_30
REMARK    8  A    between atoms: C_35  and  O_36
REMARK    9  A    between atoms: O_36  and  C_37
REMARK                            x       y       z     vdW  Elec       q    Type
REMARK                         _______ _______ _______ _____ _____    ______ ____
ROOT
ATOM      1  C   UNL     1       1.255  -5.723  -2.270  0.00  0.00    +0.105 C 
ATOM      2  C   UNL     1       2.600  -6.150  -1.761  0.00  0.00    +0.029 C 
ATOM      3  C   UNL     1       3.733  -5.231  -2.260  0.00  0.00    +0.033 C 
ATOM      4  C   UNL     1       4.949  -6.133  -2.276  0.00  0.00    -0.030 C 
ATOM      5  C   UNL     1       4.597  -7.392  -2.245  0.00  0.00    -0.023 C 
ATOM      6  C   UNL     1       3.094  -7.514  -2.236  0.00  0.00    +0.049 C 
ATOM      7  C   UNL     1       2.646  -7.852  -3.630  0.00  0.00    -0.018 A 
ATOM      8  C   UNL     1       3.269  -8.906  -4.284  0.00  0.00    +0.034 A 
ATOM      9  C   UNL     1       2.901  -9.247  -5.570  0.00  0.00    +0.109 A 
ATOM     10  C   UNL     1       1.905  -8.538  -6.218  0.00  0.00    +0.030 A 
ATOM     11  C   UNL     1       1.278  -7.492  -5.574  0.00  0.00    +0.025 A 
ATOM     12  C   UNL     1       1.644  -7.150  -4.275  0.00  0.00    +0.031 A 
ATOM     13  N   UNL     1       0.971  -6.130  -3.630  0.00  0.00    -0.336 N 
ATOM     14  H   UNL     1       0.292  -5.648  -4.128  0.00  0.00    +0.147 HD
ENDROOT
BRANCH   1  18
ATOM     15  C   UNL     1       1.020  -1.462  -2.056  0.00  0.00    +0.121 A 
ATOM     16  C   UNL     1       0.469  -2.239  -1.048  0.00  0.00    +0.046 A 
ATOM     17  C   UNL     1       0.547  -3.617  -1.119  0.00  0.00    +0.009 A 
ATOM     18  C   UNL     1       1.172  -4.220  -2.195  0.00  0.00    -0.027 A 
ATOM     19  C   UNL     1       1.722  -3.447  -3.200  0.00  0.00    +0.009 A 
ATOM     20  C   UNL     1       1.642  -2.070  -3.137  0.00  0.00    +0.046 A 
BRANCH  15  21
ATOM     21  O   UNL     1       0.945  -0.106  -1.988  0.00  0.00    -0.492 OA
BRANCH  21  23
ATOM     22  C   UNL     1       0.304   1.978  -0.945  0.00  0.00    +0.048 C 
ATOM     23  C   UNL     1       0.290   0.451  -0.847  0.00  0.00    +0.225 C 
ENDBRANCH  21  23
ENDBRANCH  15  21
ENDBRANCH   1  18
BRANCH   9  24
ATOM     24  S   UNL     1       3.700 -10.588  -6.387  0.00  0.00    +0.072 S 
ATOM     25  O   UNL     1       3.553 -10.359  -7.781  0.00  0.00    -0.150 OA
ATOM     26  O   UNL     1       4.971 -10.740  -5.769  0.00  0.00    -0.150 OA
BRANCH  24  27
ATOM     27  N   UNL     1       2.838 -11.958  -6.038  0.00  0.00    -0.213 N 
ATOM     28  H   UNL     1       3.265 -12.694  -5.573  0.00  0.00    +0.174 HD
BRANCH  27  29
ATOM     29  C   UNL     1       1.493 -12.053  -6.415  0.00  0.00    +0.091 A 
ATOM     30  C   UNL     1       1.062 -11.482  -7.603  0.00  0.00    +0.048 A 
ATOM     31  C   UNL     1      -0.267 -11.578  -7.973  0.00  0.00    +0.043 A 
ATOM     32  C   UNL     1      -1.168 -12.243  -7.161  0.00  0.00    +0.024 A 
ATOM     33  C   UNL     1      -0.744 -12.814  -5.975  0.00  0.00    +0.049 A 
ATOM     34  C   UNL     1       0.586 -12.727  -5.600  0.00  0.00    +0.142 A 
ATOM     35 CL   UNL     1      -0.806 -10.862  -9.460  0.00  0.00    -0.083 Cl
BRANCH  34  36
ATOM     36  O   UNL     1       1.005 -13.294  -4.437  0.00  0.00    -0.493 OA
ATOM     37  C   UNL     1       0.020 -13.969  -3.652  0.00  0.00    +0.277 C 
ENDBRANCH  34  36
ENDBRANCH  27  29
ENDBRANCH  24  27
ENDBRANCH   9  24
TORSDOF 7
