REMARK  Name = ZINC33697631
REMARK  7 active torsions:
REMARK  status: ('A' for Active; 'I' for Inactive)
REMARK    1  A    between atoms: C_1  and  C_2
REMARK    2  A    between atoms: C_2  and  O_3
REMARK    3  A    between atoms: O_3  and  C_4
REMARK    4  A    between atoms: C_7  and  C_10
REMARK    5  A    between atoms: N_18  and  C_21
REMARK    6  A    between atoms: C_29  and  N_33
REMARK    7  A    between atoms: C_30  and  C_31
REMARK                            x       y       z     vdW  Elec       q    Type
REMARK                         _______ _______ _______ _____ _____    ______ ____
ROOT
ATOM      1  C   UNL     1      -2.001  -6.092  -0.011  0.00  0.00    +0.075 C 
ATOM      2  C   UNL     1      -2.693  -6.473  -1.314  0.00  0.00    +0.110 C 
ATOM      3  C   UNL     1      -3.225  -7.916  -1.294  0.00  0.00    +0.152 C 
ATOM      4  C   UNL     1      -1.972  -8.733  -1.386  0.00  0.00    +0.240 C 
ATOM      5  O   UNL     1      -1.777  -9.836  -0.922  0.00  0.00    -0.274 OA
ATOM      6  N   UNL     1      -1.103  -7.976  -2.100  0.00  0.00    -0.209 N 
ATOM      7  C   UNL     1      -1.518  -6.676  -2.297  0.00  0.00    +0.232 C 
ATOM      8  O   UNL     1      -1.075  -5.858  -3.075  0.00  0.00    -0.274 OA
ATOM      9  S   UNL     1      -4.282  -8.281   0.100  0.00  0.00    -0.096 S 
ATOM     10  C   UNL     1      -3.587  -7.394   1.451  0.00  0.00    +0.074 C 
ATOM     11  C   UNL     1      -2.658  -6.473   1.252  0.00  0.00    +0.064 C 
ENDROOT
BRANCH   6  12
ATOM     12  C   UNL     1       0.114  -8.467  -2.595  0.00  0.00    +0.044 A 
ATOM     13  C   UNL     1       0.960  -7.633  -3.314  0.00  0.00    +0.025 A 
ATOM     14  C   UNL     1       2.157  -8.120  -3.801  0.00  0.00    +0.022 A 
ATOM     15  C   UNL     1       2.514  -9.437  -3.573  0.00  0.00    +0.041 A 
ATOM     16  C   UNL     1       1.672 -10.271  -2.857  0.00  0.00    +0.022 A 
ATOM     17  C   UNL     1       0.477  -9.787  -2.363  0.00  0.00    +0.025 A 
ATOM     18 CL   UNL     1       4.020 -10.046  -4.186  0.00  0.00    -0.084 Cl
ENDBRANCH   6  12
BRANCH   1  22
ATOM     19  C   UNL     1      -1.498  -1.848   0.006  0.00  0.00    +0.121 A 
ATOM     20  C   UNL     1      -0.388  -2.679  -0.003  0.00  0.00    +0.046 A 
ATOM     21  C   UNL     1      -0.553  -4.051  -0.008  0.00  0.00    +0.008 A 
ATOM     22  C   UNL     1      -1.823  -4.596  -0.005  0.00  0.00    -0.038 A 
ATOM     23  C   UNL     1      -2.932  -3.769   0.004  0.00  0.00    +0.008 A 
ATOM     24  C   UNL     1      -2.772  -2.397   0.016  0.00  0.00    +0.046 A 
BRANCH  19  25
ATOM     25  O   UNL     1      -1.339  -0.499   0.012  0.00  0.00    -0.492 OA
BRANCH  25  27
ATOM     26  C   UNL     1      -0.019   1.526   0.010  0.00  0.00    +0.048 C 
ATOM     27  C   UNL     1       0.002  -0.004   0.002  0.00  0.00    +0.225 C 
ENDBRANCH  25  27
ENDBRANCH  19  25
ENDBRANCH   1  22
BRANCH  10  28
ATOM     28  N   UNL     1      -4.021  -7.655   2.729  0.00  0.00    -0.352 N 
ATOM     29  H   UNL     1      -4.707  -8.325   2.881  0.00  0.00    +0.143 HD
ATOM     30  H   UNL     1      -3.643  -7.170   3.479  0.00  0.00    +0.143 HD
ENDBRANCH  10  28
BRANCH  11  31
ATOM     31  C   UNL     1      -2.252  -5.748   2.419  0.00  0.00    +0.098 C 
ATOM     32  N   UNL     1      -1.931  -5.173   3.344  0.00  0.00    -0.191 NA
ENDBRANCH  11  31
TORSDOF 6
