REMARK  Name = ZINC22294461
REMARK  12 active torsions:
REMARK  status: ('A' for Active; 'I' for Inactive)
REMARK    1  A    between atoms: C_1  and  C_2
REMARK    2  A    between atoms: C_3  and  C_28
REMARK    3  A    between atoms: C_4  and  C_27
REMARK    4  A    between atoms: C_7  and  C_8
REMARK    5  A    between atoms: C_13  and  C_16
REMARK    6  A    between atoms: C_16  and  N_17
REMARK    7  A    between atoms: C_19  and  C_26
REMARK    8  A    between atoms: C_22  and  C_25
REMARK    9  A    between atoms: C_28  and  O_30
REMARK   10  A    between atoms: O_30  and  C_31
REMARK   11  A    between atoms: C_31  and  C_32
REMARK   12  A    between atoms: C_31  and  C_33
REMARK                            x       y       z     vdW  Elec       q    Type
REMARK                         _______ _______ _______ _____ _____    ______ ____
ROOT
ATOM      1  C   UNL     1      -0.822   5.045   6.845  0.00  0.00    +0.266 C 
ATOM      2  O   UNL     1      -1.763   4.430   7.311  0.00  0.00    -0.268 OA
ATOM      3  N   UNL     1      -0.191   4.581   5.748  0.00  0.00    -0.259 N 
ATOM      4  C   UNL     1      -0.615   3.401   5.150  0.00  0.00    +0.165 A 
ATOM      5  N   UNL     1      -0.129   2.790   4.087  0.00  0.00    -0.231 NA
ATOM      6  C   UNL     1      -0.658   1.666   3.644  0.00  0.00    +0.034 A 
ATOM      7  C   UNL     1      -1.714   1.141   4.313  0.00  0.00    +0.070 A 
ATOM      8  S   UNL     1      -1.916   2.349   5.614  0.00  0.00    -0.060 S 
ATOM      9  H   UNL     1       0.660   5.136   5.326  0.00  0.00    +0.157 HD
ENDROOT
BRANCH   1  16
ATOM     10  C   UNL     1      -2.092   6.346   9.380  0.00  0.00    +0.047 C 
ATOM     11  C   UNL     1      -0.923   6.867   8.584  0.00  0.00    -0.006 A 
ATOM     12  C   UNL     1      -0.188   8.046   8.844  0.00  0.00    +0.083 A 
ATOM     13  C   UNL     1       0.790   8.138   7.871  0.00  0.00    +0.028 A 
ATOM     14  N   UNL     1       0.676   7.078   7.055  0.00  0.00    -0.354 N 
ATOM     15  H   UNL     1       1.371   6.956   6.211  0.00  0.00    +0.166 HD
ATOM     16  C   UNL     1      -0.374   6.292   7.476  0.00  0.00    +0.106 A 
ATOM     17  C   UNL     1       1.813   9.238   7.749  0.00  0.00    +0.064 C 
BRANCH  12  18
ATOM     18  C   UNL     1      -0.418   8.997   9.945  0.00  0.00    +0.341 C 
ATOM     19  O   UNL     1       0.146   8.842  11.010  0.00  0.00    -0.245 OA
BRANCH  18  20
ATOM     20  O   UNL     1      -1.256  10.038   9.771  0.00  0.00    -0.458 OA
BRANCH  20  21
ATOM     21  C   UNL     1      -1.436  10.935  10.899  0.00  0.00    +0.171 C 
ATOM     22  C   UNL     1      -1.742  12.344  10.387  0.00  0.00    +0.052 C 
ATOM     23  C   UNL     1      -2.600  10.442  11.762  0.00  0.00    +0.052 C 
ENDBRANCH  20  21
ENDBRANCH  18  20
ENDBRANCH  12  18
ENDBRANCH   1  16
BRANCH   6  24
ATOM     24  C   UNL     1      -0.099   0.979   2.425  0.00  0.00    -0.022 C 
BRANCH  24  25
ATOM     25  N   UNL     1      -0.700   1.559   1.216  0.00  0.00    +0.384 N 
ATOM     26  C   UNL     1      -0.013   1.086   0.008  0.00  0.00    -0.075 C 
ATOM     27  C   UNL     1      -0.752   1.593  -1.232  0.00  0.00    -0.031 C 
ATOM     28  C   UNL     1      -0.788   3.123  -1.209  0.00  0.00    +0.003 C 
ATOM     29  C   UNL     1      -1.465   3.591   0.082  0.00  0.00    -0.031 C 
ATOM     30  C   UNL     1      -0.705   3.026   1.284  0.00  0.00    -0.075 C 
ATOM     31  C   UNL     1      -2.911   3.091   0.111  0.00  0.00    +0.005 C 
ATOM     32  C   UNL     1      -0.024   1.117  -2.491  0.00  0.00    +0.005 C 
ATOM     33  H   UNL     1      -1.745   1.222   1.161  0.00  0.00    -0.081 HD
ENDBRANCH  24  25
ENDBRANCH   6  24
TORSDOF 6
