REMARK  Name = ZINC22705447
REMARK  9 active torsions:
REMARK  status: ('A' for Active; 'I' for Inactive)
REMARK    1  A    between atoms: C_1  and  C_2
REMARK    2  A    between atoms: C_3  and  C_11
REMARK    3  A    between atoms: C_7  and  N_8
REMARK    4  A    between atoms: C_14  and  C_16
REMARK    5  A    between atoms: C_19  and  C_30
REMARK    6  A    between atoms: C_25  and  N_29
REMARK    7  A    between atoms: C_26  and  C_27
REMARK    8  A    between atoms: C_33  and  O_36
REMARK    9  A    between atoms: O_36  and  C_37
REMARK                            x       y       z     vdW  Elec       q    Type
REMARK                         _______ _______ _______ _____ _____    ______ ____
ROOT
ATOM      1  C   UNL     1      -1.563   5.066   0.426  0.00  0.00    +0.138 C 
ATOM      2  C   UNL     1      -0.092   5.029   0.750  0.00  0.00    +0.057 A 
ATOM      3  C   UNL     1       0.786   6.087   1.002  0.00  0.00    +0.100 A 
ATOM      4  N   UNL     1       1.980   5.577   1.236  0.00  0.00    -0.171 NA
ATOM      5  N   UNL     1       1.892   4.180   1.137  0.00  0.00    -0.246 N 
ATOM      6  H   UNL     1       2.785   3.559   1.298  0.00  0.00    +0.192 HD
ATOM      7  C   UNL     1       0.614   3.864   0.840  0.00  0.00    +0.223 A 
ATOM      8  O   UNL     1       0.046   2.647   0.649  0.00  0.00    -0.423 OA
ATOM      9  C   UNL     1      -1.300   2.581   0.633  0.00  0.00    +0.201 C 
ATOM     10  C   UNL     1      -2.105   3.662   0.529  0.00  0.00    +0.101 C 
ENDROOT
BRANCH   3  11
ATOM     11  C   UNL     1       0.436   7.529   1.007  0.00  0.00    +0.003 A 
ATOM     12  C   UNL     1       1.297   8.458   0.426  0.00  0.00    +0.013 A 
ATOM     13  C   UNL     1       0.966   9.797   0.426  0.00  0.00    +0.046 A 
ATOM     14  C   UNL     1      -0.217  10.221   1.015  0.00  0.00    +0.120 A 
ATOM     15  C   UNL     1      -1.074   9.299   1.600  0.00  0.00    +0.046 A 
ATOM     16  C   UNL     1      -0.751   7.958   1.597  0.00  0.00    +0.013 A 
BRANCH  14  17
ATOM     17  O   UNL     1      -0.538  11.542   1.018  0.00  0.00    -0.495 OA
ATOM     18  C   UNL     1       0.389  12.436   0.399  0.00  0.00    +0.277 C 
ENDBRANCH  14  17
ENDBRANCH   3  11
BRANCH   1  22
ATOM     19  C   UNL     1      -1.600   5.783  -3.156  0.00  0.00    +0.136 A 
ATOM     20  C   UNL     1      -2.435   6.765  -2.725  0.00  0.00    +0.050 A 
ATOM     21  C   UNL     1      -2.538   6.625  -1.327  0.00  0.00    +0.046 A 
ATOM     22  C   UNL     1      -1.762   5.582  -0.976  0.00  0.00    +0.119 A 
ATOM     23  O   UNL     1      -1.199   5.073  -2.084  0.00  0.00    -0.459 OA
BRANCH  19  26
ATOM     24  C   UNL     1       1.203   5.493  -3.815  0.00  0.00    +0.047 C 
ATOM     25  C   UNL     1       0.149   5.396  -4.888  0.00  0.00    -0.010 A 
ATOM     26  C   UNL     1      -1.200   5.538  -4.558  0.00  0.00    +0.022 A 
ATOM     27  C   UNL     1      -2.170   5.453  -5.559  0.00  0.00    +0.012 A 
ATOM     28  C   UNL     1      -1.790   5.224  -6.865  0.00  0.00    +0.003 A 
ATOM     29  C   UNL     1      -0.452   5.078  -7.184  0.00  0.00    +0.033 A 
ATOM     30  C   UNL     1       0.514   5.162  -6.197  0.00  0.00    +0.130 A 
BRANCH  30  31
ATOM     31  N   UNL     1       1.944   5.005  -6.548  0.00  0.00    +0.057 N 
ATOM     32  O   UNL     1       2.367   5.458  -7.596  0.00  0.00    -0.126 OA
ATOM     33  O   UNL     1       2.697   4.422  -5.788  0.00  0.00    -0.126 OA
ENDBRANCH  30  31
ENDBRANCH  19  26
ENDBRANCH   1  22
BRANCH   9  34
ATOM     34  N   UNL     1      -1.889   1.344   0.722  0.00  0.00    -0.328 N 
ATOM     35  H   UNL     1      -2.985   1.254   0.712  0.00  0.00    +0.145 HD
ATOM     36  H   UNL     1      -1.264   0.443   0.804  0.00  0.00    +0.145 HD
ENDBRANCH   9  34
BRANCH  10  37
ATOM     37  C   UNL     1      -3.524   3.469   0.521  0.00  0.00    +0.101 C 
ATOM     38  N   UNL     1      -4.649   3.315   0.515  0.00  0.00    -0.191 NA
ENDBRANCH  10  37
TORSDOF 7
