REMARK  Name = ZINC63494043
REMARK  5 active torsions:
REMARK  status: ('A' for Active; 'I' for Inactive)
REMARK    1  A    between atoms: N_10  and  C_11
REMARK    2  A    between atoms: C_15  and  C_21
REMARK    3  A    between atoms: N_23  and  C_24
REMARK    4  A    between atoms: C_24  and  C_25
REMARK    5  A    between atoms: C_25  and  C_26
REMARK                            x       y       z     vdW  Elec       q    Type
REMARK                         _______ _______ _______ _____ _____    ______ ____
ROOT
ATOM      1  C   UNL     1       4.861   0.093  -0.355  0.00  0.00    +0.224 C 
ATOM      2  N   UNL     1       4.608   1.537  -0.459  0.00  0.00    -0.316 N 
ATOM      3  C   UNL     1       4.854   2.147  -1.678  0.00  0.00    +0.055 A 
ATOM      4  C   UNL     1       4.668   3.526  -1.965  0.00  0.00    +0.059 A 
ATOM      5  C   UNL     1       4.947   4.035  -3.230  0.00  0.00    +0.015 A 
ATOM      6  C   UNL     1       5.410   3.216  -4.237  0.00  0.00    +0.002 A 
ATOM      7  C   UNL     1       5.598   1.866  -3.978  0.00  0.00    +0.017 A 
ATOM      8  C   UNL     1       5.325   1.355  -2.731  0.00  0.00    +0.033 A 
ATOM      9  S   UNL     1       5.446  -0.287  -2.055  0.00  0.00    -0.082 S 
ATOM     10  H   UNL     1       4.280   2.045   0.299  0.00  0.00    +0.149 HD
ENDROOT
BRANCH   1  20
ATOM     11  C   UNL     1       3.629  -3.528   2.952  0.00  0.00    +0.000 A 
ATOM     12  C   UNL     1       4.825  -3.040   2.458  0.00  0.00    +0.002 A 
ATOM     13  C   UNL     1       4.819  -2.083   1.464  0.00  0.00    +0.023 A 
ATOM     14  C   UNL     1       3.612  -1.611   0.959  0.00  0.00    +0.035 A 
ATOM     15  C   UNL     1       2.414  -2.103   1.452  0.00  0.00    -0.026 A 
ATOM     16  C   UNL     1       2.429  -3.062   2.451  0.00  0.00    +0.005 A 
ATOM     17  C   UNL     1       1.089  -1.624   0.922  0.00  0.00    +0.038 C 
ATOM     18  C   UNL     1       1.246  -0.268   0.234  0.00  0.00    +0.024 C 
ATOM     19  C   UNL     1       2.390  -0.358  -0.785  0.00  0.00    +0.108 C 
ATOM     20  N   UNL     1       3.629  -0.637  -0.046  0.00  0.00    -0.303 N 
ENDBRANCH   1  20
BRANCH   4  21
ATOM     21  C   UNL     1       4.174   4.429  -0.910  0.00  0.00    +0.246 C 
ATOM     22  O   UNL     1       3.927   3.993   0.198  0.00  0.00    -0.270 OA
ATOM     23  N   UNL     1       3.995   5.739  -1.173  0.00  0.00    -0.311 N 
ATOM     24  H   UNL     1       4.191   6.088  -2.057  0.00  0.00    +0.149 HD
BRANCH  23  25
ATOM     25  C   UNL     1       3.503   6.637  -0.124  0.00  0.00    +0.109 C 
BRANCH  25  26
ATOM     26  C   UNL     1       3.391   8.057  -0.681  0.00  0.00    +0.052 C 
BRANCH  26  27
ATOM     27  C   UNL     1       2.885   8.980   0.398  0.00  0.00    -0.040 C 
ATOM     28  C   UNL     1       3.630   9.755   1.220  0.00  0.00    -0.001 A 
ATOM     29  C   UNL     1       5.077   9.960   1.352  0.00  0.00    +0.010 A 
ATOM     30  C   UNL     1       5.534  10.819   2.291  0.00  0.00    +0.001 A 
ATOM     31  C   UNL     1       4.663  11.516   3.140  0.00  0.00    +0.002 A 
ATOM     32  C   UNL     1       3.322  11.380   3.079  0.00  0.00    +0.026 A 
ATOM     33  C   UNL     1       2.731  10.503   2.128  0.00  0.00    +0.043 A 
ATOM     34  N   UNL     1       1.480  10.203   1.877  0.00  0.00    -0.380 N 
ATOM     35  C   UNL     1       1.443   9.234   0.776  0.00  0.00    +0.144 C 
ATOM     36  H   UNL     1       0.707  10.564   2.339  0.00  0.00    +0.160 HD
ENDBRANCH  26  27
ENDBRANCH  25  26
ENDBRANCH  23  25
ENDBRANCH   4  21
TORSDOF 5
