REMARK  Name = ZINC63425432
REMARK  8 active torsions:
REMARK  status: ('A' for Active; 'I' for Inactive)
REMARK    1  A    between atoms: C_1  and  C_2
REMARK    2  A    between atoms: C_2  and  C_3
REMARK    3  A    between atoms: C_3  and  N_20
REMARK    4  A    between atoms: N_10  and  C_13
REMARK    5  A    between atoms: C_13  and  C_14
REMARK    6  A    between atoms: N_20  and  C_21
REMARK    7  A    between atoms: C_21  and  C_22
REMARK    8  A    between atoms: C_22  and  C_23
REMARK                            x       y       z     vdW  Elec       q    Type
REMARK                         _______ _______ _______ _____ _____    ______ ____
ROOT
ATOM      1  C   UNL     1       0.707  -0.490  -1.238  0.00  0.00    +0.021 C 
ATOM      2  C   UNL     1       2.075  -0.690  -1.234  0.00  0.00    +0.116 C 
ATOM      3  C   UNL     1       2.805  -1.038  -2.466  0.00  0.00    +0.258 C 
ATOM      4  O   UNL     1       2.220  -1.159  -3.526  0.00  0.00    -0.270 OA
ATOM      5  N   UNL     1       4.140  -1.218  -2.388  0.00  0.00    -0.235 N 
ATOM      6  C   UNL     1       4.797  -1.088  -1.227  0.00  0.00    +0.316 C 
ATOM      7  O   UNL     1       6.000  -1.264  -1.223  0.00  0.00    -0.252 OA
ATOM      8  N   UNL     1       4.198  -0.774  -0.069  0.00  0.00    -0.217 N 
ATOM      9  C   UNL     1       2.869  -0.558   0.001  0.00  0.00    +0.261 C 
ATOM     10  O   UNL     1       2.337  -0.269   1.057  0.00  0.00    -0.269 OA
ATOM     11  H   UNL     1       4.635  -1.448  -3.189  0.00  0.00    +0.159 HD
ENDROOT
BRANCH   1  13
ATOM     12  C   UNL     1       0.072   1.491   0.111  0.00  0.00    +0.010 C 
ATOM     13  C   UNL     1       0.009  -0.035   0.018  0.00  0.00    +0.048 C 
ENDBRANCH   1  13
BRANCH   1  14
ATOM     14  N   UNL     1      -0.002  -0.703  -2.364  0.00  0.00    -0.346 N 
ATOM     15  H   UNL     1       0.432  -1.075  -3.148  0.00  0.00    +0.146 HD
BRANCH  14  16
ATOM     16  C   UNL     1      -1.428  -0.371  -2.405  0.00  0.00    +0.105 C 
BRANCH  16  17
ATOM     17  C   UNL     1      -1.990  -0.707  -3.788  0.00  0.00    +0.052 C 
BRANCH  17  18
ATOM     18  C   UNL     1      -3.457  -0.366  -3.831  0.00  0.00    -0.040 C 
ATOM     19  C   UNL     1      -4.013   0.780  -4.287  0.00  0.00    -0.001 A 
ATOM     20  C   UNL     1      -3.440   2.005  -4.857  0.00  0.00    +0.010 A 
ATOM     21  C   UNL     1      -4.270   3.006  -5.230  0.00  0.00    +0.001 A 
ATOM     22  C   UNL     1      -5.660   2.902  -5.085  0.00  0.00    +0.002 A 
ATOM     23  C   UNL     1      -6.261   1.809  -4.570  0.00  0.00    +0.026 A 
ATOM     24  C   UNL     1      -5.484   0.695  -4.145  0.00  0.00    +0.043 A 
ATOM     25  N   UNL     1      -5.825  -0.458  -3.622  0.00  0.00    -0.380 N 
ATOM     26  C   UNL     1      -4.607  -1.238  -3.378  0.00  0.00    +0.144 C 
ATOM     27  H   UNL     1      -6.731  -0.748  -3.432  0.00  0.00    +0.160 HD
ENDBRANCH  17  18
ENDBRANCH  16  17
ENDBRANCH  14  16
ENDBRANCH   1  14
BRANCH   8  28
ATOM     28  C   UNL     1       5.008  -0.656   1.146  0.00  0.00    +0.153 C 
BRANCH  28  29
ATOM     29  C   UNL     1       5.489   0.765   1.294  0.00  0.00    -0.030 A 
ATOM     30  C   UNL     1       6.689   1.150   0.728  0.00  0.00    +0.005 A 
ATOM     31  C   UNL     1       7.131   2.453   0.863  0.00  0.00    +0.000 A 
ATOM     32  C   UNL     1       6.370   3.371   1.564  0.00  0.00    +0.000 A 
ATOM     33  C   UNL     1       5.169   2.986   2.129  0.00  0.00    +0.000 A 
ATOM     34  C   UNL     1       4.726   1.684   1.990  0.00  0.00    +0.005 A 
ENDBRANCH  28  29
ENDBRANCH   8  28
TORSDOF 7
