REMARK  Name = ZINC44713671
REMARK  9 active torsions:
REMARK  status: ('A' for Active; 'I' for Inactive)
REMARK    1  A    between atoms: C_1  and  C_2
REMARK    2  A    between atoms: C_3  and  C_9
REMARK    3  A    between atoms: C_4  and  C_8
REMARK    4  A    between atoms: C_9  and  C_11
REMARK    5  A    between atoms: C_9  and  N_12
REMARK    6  A    between atoms: C_13  and  C_15
REMARK    7  A    between atoms: C_26  and  C_28
REMARK    8  A    between atoms: C_28  and  C_29
REMARK    9  A    between atoms: C_29  and  C_30
REMARK                            x       y       z     vdW  Elec       q    Type
REMARK                         _______ _______ _______ _____ _____    ______ ____
ROOT
ATOM      1  C   UNL     1      -2.477  -1.284  -5.531  0.00  0.00    +0.100 C 
ATOM      2  C   UNL     1      -3.761  -1.655  -4.755  0.00  0.00    +0.121 C 
ATOM      3  N   UNL     1      -4.716  -0.567  -5.071  0.00  0.00    -0.300 N 
ATOM      4  C   UNL     1      -4.485  -0.279  -6.507  0.00  0.00    +0.115 C 
ATOM      5  C   UNL     1      -2.957  -0.384  -6.682  0.00  0.00    -0.004 C 
ATOM      6  C   UNL     1      -2.622  -1.022  -8.027  0.00  0.00    -0.010 C 
ATOM      7  C   UNL     1      -3.057  -0.082  -9.155  0.00  0.00    -0.082 C 
ATOM      8  N   UNL     1      -2.365   1.205  -9.015  0.00  0.00    +0.379 N 
ATOM      9  C   UNL     1      -2.765   1.855  -7.761  0.00  0.00    -0.082 C 
ATOM     10  C   UNL     1      -2.318   0.997  -6.574  0.00  0.00    -0.010 C 
ATOM     11  C   UNL     1      -5.597   0.025  -4.241  0.00  0.00    +0.216 C 
ATOM     12  O   UNL     1      -6.318   0.909  -4.652  0.00  0.00    -0.276 OA
ATOM     13  H   UNL     1      -1.368   1.051  -9.010  0.00  0.00    -0.086 HD
ATOM     14  H   UNL     1      -2.606   1.801  -9.793  0.00  0.00    -0.086 HD
ENDROOT
BRANCH   1  16
ATOM     15  N   UNL     1      -0.196  -0.596  -4.864  0.00  0.00    -0.308 N 
ATOM     16  C   UNL     1      -1.524  -0.532  -4.639  0.00  0.00    +0.219 C 
ATOM     17  O   UNL     1      -1.951   0.132  -3.718  0.00  0.00    -0.275 OA
ATOM     18  H   UNL     1       0.145  -1.127  -5.601  0.00  0.00    +0.149 HD
BRANCH  15  19
ATOM     19  C   UNL     1       0.731   0.135  -3.997  0.00  0.00    +0.104 C 
ATOM     20  C   UNL     1       0.848   1.582  -4.482  0.00  0.00    +0.033 C 
BRANCH  19  23
ATOM     21  C   UNL     1       2.238  -0.798  -6.575  0.00  0.00    +0.065 C 
ATOM     22  C   UNL     1       2.738  -0.925  -5.159  0.00  0.00    +0.038 A 
ATOM     23  C   UNL     1       2.086  -0.521  -4.044  0.00  0.00    +0.015 A 
ATOM     24  C   UNL     1       2.893  -0.821  -2.941  0.00  0.00    +0.065 A 
ATOM     25  N   UNL     1       3.990  -1.384  -3.379  0.00  0.00    -0.179 NA
ATOM     26  N   UNL     1       3.913  -1.466  -4.775  0.00  0.00    -0.281 N 
ATOM     27  H   UNL     1       4.587  -1.842  -5.363  0.00  0.00    +0.189 HD
ATOM     28  C   UNL     1       2.558  -0.543  -1.499  0.00  0.00    +0.068 C 
ENDBRANCH  19  23
ENDBRANCH  15  19
ENDBRANCH   1  16
BRANCH  11  29
ATOM     29  C   UNL     1      -5.685  -0.410  -2.800  0.00  0.00    +0.100 C 
BRANCH  29  30
ATOM     30  C   UNL     1      -6.755   0.416  -2.083  0.00  0.00    +0.044 C 
BRANCH  30  31
ATOM     31  C   UNL     1      -6.843  -0.019  -0.643  0.00  0.00    -0.047 A 
ATOM     32  C   UNL     1      -7.707  -1.036  -0.280  0.00  0.00    +0.003 A 
ATOM     33  C   UNL     1      -7.787  -1.435   1.041  0.00  0.00    +0.000 A 
ATOM     34  C   UNL     1      -7.005  -0.818   1.999  0.00  0.00    +0.000 A 
ATOM     35  C   UNL     1      -6.141   0.198   1.636  0.00  0.00    +0.000 A 
ATOM     36  C   UNL     1      -6.057   0.594   0.314  0.00  0.00    +0.003 A 
ENDBRANCH  30  31
ENDBRANCH  29  30
ENDBRANCH  11  29
TORSDOF 6
