REMARK  Name = ZINC39684819
REMARK  6 active torsions:
REMARK  status: ('A' for Active; 'I' for Inactive)
REMARK    1  A    between atoms: C_3  and  C_35
REMARK    2  A    between atoms: C_6  and  C_7
REMARK    3  A    between atoms: C_7  and  N_8
REMARK    4  A    between atoms: C_9  and  C_11
REMARK    5  A    between atoms: C_22  and  C_24
REMARK    6  A    between atoms: C_28  and  C_30
REMARK                            x       y       z     vdW  Elec       q    Type
REMARK                         _______ _______ _______ _____ _____    ______ ____
ROOT
ATOM      1  C   UNL     1      -3.627  -1.436  -2.645  0.00  0.00    +0.100 C 
ATOM      2  C   UNL     1      -3.875  -0.258  -3.614  0.00  0.00    +0.121 C 
ATOM      3  N   UNL     1      -5.007  -0.701  -4.460  0.00  0.00    -0.296 N 
ATOM      4  C   UNL     1      -5.913  -1.409  -3.524  0.00  0.00    +0.115 C 
ATOM      5  C   UNL     1      -4.968  -2.189  -2.588  0.00  0.00    -0.004 C 
ATOM      6  C   UNL     1      -5.515  -2.186  -1.164  0.00  0.00    -0.010 C 
ATOM      7  C   UNL     1      -6.818  -2.989  -1.121  0.00  0.00    -0.082 C 
ATOM      8  N   UNL     1      -6.561  -4.365  -1.565  0.00  0.00    +0.379 N 
ATOM      9  C   UNL     1      -6.124  -4.365  -2.966  0.00  0.00    -0.082 C 
ATOM     10  C   UNL     1      -4.792  -3.620  -3.087  0.00  0.00    -0.010 C 
ATOM     11  C   UNL     1      -5.176  -0.505  -5.783  0.00  0.00    +0.247 C 
ATOM     12  O   UNL     1      -4.281  -0.015  -6.444  0.00  0.00    -0.270 OA
ATOM     13  H   UNL     1      -5.841  -4.774  -0.989  0.00  0.00    -0.086 HD
ATOM     14  H   UNL     1      -7.407  -4.908  -1.479  0.00  0.00    -0.086 HD
ENDROOT
BRANCH  11  15
ATOM     15  C   UNL     1      -6.449  -0.885  -6.430  0.00  0.00    +0.038 A 
ATOM     16  C   UNL     1      -7.607  -1.033  -5.664  0.00  0.00    +0.016 A 
ATOM     17  C   UNL     1      -8.792  -1.388  -6.272  0.00  0.00    +0.039 A 
ATOM     18  C   UNL     1      -8.835  -1.598  -7.642  0.00  0.00    +0.135 A 
ATOM     19  C   UNL     1      -7.688  -1.453  -8.407  0.00  0.00    +0.091 A 
ATOM     20  C   UNL     1      -6.499  -1.093  -7.809  0.00  0.00    +0.028 A 
ATOM     21  F   UNL     1      -9.999  -1.947  -8.233  0.00  0.00    -0.205 F 
BRANCH  19  22
ATOM     22  C   UNL     1      -7.742  -1.684  -9.895  0.00  0.00    +0.420 C 
ATOM     23  F   UNL     1      -6.472  -1.480 -10.445  0.00  0.00    -0.166 F 
ATOM     24  F   UNL     1      -8.155  -2.997 -10.149  0.00  0.00    -0.166 F 
ATOM     25  F   UNL     1      -8.650  -0.790 -10.473  0.00  0.00    -0.166 F 
ENDBRANCH  19  22
ENDBRANCH  11  15
BRANCH   1  27
ATOM     26  N   UNL     1      -2.446  -1.649  -0.482  0.00  0.00    -0.311 N 
ATOM     27  C   UNL     1      -3.256  -0.922  -1.278  0.00  0.00    +0.218 C 
ATOM     28  O   UNL     1      -3.686   0.145  -0.894  0.00  0.00    -0.275 OA
ATOM     29  H   UNL     1      -2.102  -2.502  -0.789  0.00  0.00    +0.149 HD
BRANCH  26  30
ATOM     30  C   UNL     1      -2.085  -1.149   0.847  0.00  0.00    +0.139 C 
BRANCH  30  36
ATOM     31  C   UNL     1       0.194  -2.041   1.369  0.00  0.00    +0.006 A 
ATOM     32  C   UNL     1       1.030  -2.946   1.990  0.00  0.00    +0.019 A 
ATOM     33  C   UNL     1       0.491  -3.964   2.777  0.00  0.00    +0.052 A 
ATOM     34  C   UNL     1      -0.894  -4.060   2.932  0.00  0.00    +0.019 A 
ATOM     35  C   UNL     1      -1.719  -3.148   2.306  0.00  0.00    +0.006 A 
ATOM     36  C   UNL     1      -1.177  -2.141   1.527  0.00  0.00    -0.030 A 
BRANCH  33  37
ATOM     37  C   UNL     1       1.353  -4.907   3.424  0.00  0.00    +0.099 C 
ATOM     38  N   UNL     1       2.037  -5.655   3.937  0.00  0.00    -0.191 NA
ENDBRANCH  33  37
ENDBRANCH  30  36
ENDBRANCH  26  30
ENDBRANCH   1  27
TORSDOF 6
