REMARK  Name = ZINC14053487
REMARK  15 active torsions:
REMARK  status: ('A' for Active; 'I' for Inactive)
REMARK    1  A    between atoms: C_1  and  C_2
REMARK    2  A    between atoms: C_2  and  C_3
REMARK    3  A    between atoms: C_3  and  C_4
REMARK    4  A    between atoms: C_4  and  N_5
REMARK    5  A    between atoms: N_5  and  C_6
REMARK    6  A    between atoms: C_7  and  N_19
REMARK    7  A    between atoms: N_8  and  C_15
REMARK    8  A    between atoms: C_15  and  C_16
REMARK    9  A    between atoms: C_16  and  C_17
REMARK   10  A    between atoms: C_16  and  C_18
REMARK   11  A    between atoms: C_20  and  C_22
REMARK   12  A    between atoms: C_22  and  C_23
REMARK   13  A    between atoms: C_23  and  C_25
REMARK   14  A    between atoms: C_23  and  N_32
REMARK   15  A    between atoms: C_33  and  C_35
REMARK                            x       y       z     vdW  Elec       q    Type
REMARK                         _______ _______ _______ _____ _____    ______ ____
ROOT
ATOM      1  N   UNL     1      -0.009   1.104  -2.350  0.00  0.00    -0.264 N 
ATOM      2  C   UNL     1      -0.412   1.706  -1.211  0.00  0.00    +0.222 C 
ATOM      3  O   UNL     1      -1.344   2.483  -1.233  0.00  0.00    -0.275 OA
ENDROOT
BRANCH   1   4
ATOM      4  C   UNL     1      -0.730   1.302  -3.546  0.00  0.00    +0.140 A 
ATOM      5  C   UNL     1      -2.037   0.873  -3.657  0.00  0.00    +0.127 A 
ATOM      6  N   UNL     1      -2.715   1.085  -4.835  0.00  0.00    -0.280 N 
ATOM      7  C   UNL     1      -2.109   1.694  -5.870  0.00  0.00    +0.331 A 
ATOM      8  O   UNL     1      -2.725   1.868  -6.904  0.00  0.00    -0.246 OA
ATOM      9  N   UNL     1      -0.835   2.115  -5.781  0.00  0.00    -0.273 N 
ATOM     10  H   UNL     1      -0.408   2.566  -6.565  0.00  0.00    +0.173 HD
ATOM     11  C   UNL     1      -0.127   1.936  -4.649  0.00  0.00    +0.277 A 
ATOM     12  O   UNL     1       1.028   2.322  -4.579  0.00  0.00    -0.266 OA
BRANCH   5  13
ATOM     13  N   UNL     1      -2.654   0.245  -2.602  0.00  0.00    -0.343 N 
ATOM     14  H   UNL     1      -2.146   0.021  -1.807  0.00  0.00    +0.144 HD
ATOM     15  H   UNL     1      -3.597   0.025  -2.653  0.00  0.00    +0.144 HD
ENDBRANCH   5  13
BRANCH   6  16
ATOM     16  C   UNL     1      -4.105   0.639  -4.964  0.00  0.00    +0.131 C 
BRANCH  16  17
ATOM     17  C   UNL     1      -4.133  -0.795  -5.495  0.00  0.00    +0.003 C 
ATOM     18  C   UNL     1      -5.576  -1.304  -5.513  0.00  0.00    +0.009 C 
ATOM     19  C   UNL     1      -3.564  -0.824  -6.915  0.00  0.00    +0.009 C 
ENDBRANCH  16  17
ENDBRANCH   6  16
ENDBRANCH   1   4
BRANCH   1  20
ATOM     20  C   UNL     1       1.178   0.245  -2.343  0.00  0.00    +0.114 C 
BRANCH  20  21
ATOM     21  C   UNL     1       0.752  -1.211  -2.146  0.00  0.00    +0.019 C 
BRANCH  21  23
ATOM     22  C   UNL     1       1.565  -3.565  -1.943  0.00  0.00    +0.004 C 
ATOM     23  C   UNL     1       1.991  -2.108  -2.140  0.00  0.00    -0.002 C 
ENDBRANCH  21  23
ENDBRANCH  20  21
ENDBRANCH   1  20
BRANCH   2  24
ATOM     24  C   UNL     1       0.296   1.415   0.087  0.00  0.00    +0.123 C 
BRANCH  24  25
ATOM     25  C   UNL     1      -0.353   2.220   1.214  0.00  0.00    +0.112 C 
BRANCH  25  26
ATOM     26  C   UNL     1       0.429   2.024   2.487  0.00  0.00    -0.027 A 
ATOM     27  C   UNL     1      -0.206   2.128   3.711  0.00  0.00    +0.007 A 
ATOM     28  C   UNL     1       0.510   1.942   4.878  0.00  0.00    +0.020 A 
ATOM     29  C   UNL     1       1.864   1.664   4.823  0.00  0.00    +0.041 A 
ATOM     30  C   UNL     1       2.500   1.566   3.598  0.00  0.00    +0.020 A 
ATOM     31  C   UNL     1       1.782   1.746   2.430  0.00  0.00    +0.007 A 
ATOM     32 CL   UNL     1       2.766   1.438   6.289  0.00  0.00    -0.084 Cl
ENDBRANCH  25  26
BRANCH  25  33
ATOM     33  N   UNL     1      -1.731   1.762   1.411  0.00  0.00    -0.308 N 
ATOM     34  C   UNL     1      -1.970   0.492   1.794  0.00  0.00    +0.210 C 
ATOM     35  O   UNL     1      -1.045  -0.244   2.066  0.00  0.00    -0.276 OA
ATOM     36  C   UNL     1      -3.386  -0.015   1.883  0.00  0.00    +0.109 C 
ATOM     37  H   UNL     1      -2.471   2.372   1.267  0.00  0.00    +0.149 HD
ENDBRANCH  25  33
ENDBRANCH  24  25
ENDBRANCH   2  24
TORSDOF 11
