REMARK  Name = ZINC00930835
REMARK  8 active torsions:
REMARK  status: ('A' for Active; 'I' for Inactive)
REMARK    1  A    between atoms: C_1  and  C_2
REMARK    2  A    between atoms: N_4  and  C_5
REMARK    3  A    between atoms: C_8  and  N_11
REMARK    4  A    between atoms: N_11  and  C_12
REMARK    5  A    between atoms: C_12  and  C_14
REMARK    6  A    between atoms: C_12  and  C_21
REMARK    7  A    between atoms: N_23  and  C_24
REMARK    8  A    between atoms: C_30  and  C_32
REMARK                            x       y       z     vdW  Elec       q    Type
REMARK                         _______ _______ _______ _____ _____    ______ ____
ROOT
ATOM      1  N   UNL     1       1.947   4.769   0.826  0.00  0.00    -0.252 N 
ATOM      2  C   UNL     1       1.286   5.575  -0.029  0.00  0.00    +0.265 C 
ATOM      3  O   UNL     1       1.448   5.454  -1.225  0.00  0.00    -0.271 OA
ENDROOT
BRANCH   2   4
ATOM      4  C   UNL     1       0.347   6.628   0.502  0.00  0.00    +0.296 C 
ATOM      5  C   UNL     1      -1.052   6.419  -0.091  0.00  0.00    +0.283 C 
ATOM      6  O   UNL     1      -1.914   7.441   0.422  0.00  0.00    -0.484 OA
ATOM      7  C   UNL     1      -1.430   8.713   0.405  0.00  0.00    +0.162 A 
ATOM      8  C   UNL     1      -2.310   9.777   0.542  0.00  0.00    +0.049 A 
ATOM      9  C   UNL     1      -1.833  11.075   0.530  0.00  0.00    +0.004 A 
ATOM     10  C   UNL     1      -0.480  11.316   0.383  0.00  0.00    +0.004 A 
ATOM     11  C   UNL     1       0.401  10.260   0.245  0.00  0.00    +0.049 A 
ATOM     12  C   UNL     1      -0.070   8.956   0.255  0.00  0.00    +0.163 A 
ATOM     13  O   UNL     1       0.809   7.926   0.115  0.00  0.00    -0.472 OA
ENDBRANCH   2   4
BRANCH   1  17
ATOM     14  C   UNL     1       1.490   5.268   4.940  0.00  0.00    +0.033 A 
ATOM     15  C   UNL     1       0.371   5.148   4.127  0.00  0.00    +0.025 A 
ATOM     16  C   UNL     1       0.522   4.982   2.765  0.00  0.00    +0.025 A 
ATOM     17  C   UNL     1       1.793   4.937   2.208  0.00  0.00    +0.038 A 
ATOM     18  C   UNL     1       2.912   5.057   3.021  0.00  0.00    +0.025 A 
ATOM     19  C   UNL     1       2.761   5.223   4.383  0.00  0.00    +0.025 A 
BRANCH  14  23
ATOM     20  C   UNL     1       0.125   5.053   8.444  0.00  0.00    +0.109 C 
ATOM     21  C   UNL     1       0.280   4.888   6.955  0.00  0.00    +0.214 C 
ATOM     22  O   UNL     1      -0.546   4.261   6.324  0.00  0.00    -0.276 OA
ATOM     23  N   UNL     1       1.336   5.437   6.322  0.00  0.00    -0.286 N 
ATOM     24  H   UNL     1       1.990   5.948   6.824  0.00  0.00    +0.155 HD
ENDBRANCH  14  23
ENDBRANCH   1  17
BRANCH   1  25
ATOM     25  C   UNL     1       2.825   3.717   0.308  0.00  0.00    +0.197 C 
BRANCH  25  26
ATOM     26  C   UNL     1       2.003   2.694  -0.431  0.00  0.00    -0.018 A 
ATOM     27  C   UNL     1       0.667   2.938  -0.691  0.00  0.00    +0.009 A 
ATOM     28  C   UNL     1      -0.087   2.003  -1.374  0.00  0.00    +0.038 A 
ATOM     29  C   UNL     1       0.493   0.816  -1.788  0.00  0.00    +0.123 A 
ATOM     30  C   UNL     1       1.829   0.569  -1.522  0.00  0.00    +0.038 A 
ATOM     31  C   UNL     1       2.583   1.509  -0.844  0.00  0.00    +0.009 A 
ATOM     32  F   UNL     1      -0.245  -0.102  -2.450  0.00  0.00    -0.205 F 
ENDBRANCH  25  26
BRANCH  25  33
ATOM     33  C   UNL     1       3.836   4.323  -0.631  0.00  0.00    +0.239 C 
ATOM     34  O   UNL     1       3.722   5.478  -0.981  0.00  0.00    -0.273 OA
ATOM     35  N   UNL     1       4.867   3.581  -1.082  0.00  0.00    -0.311 N 
ATOM     36  H   UNL     1       4.959   2.657  -0.801  0.00  0.00    +0.149 HD
BRANCH  35  37
ATOM     37  C   UNL     1       5.849   4.170  -1.995  0.00  0.00    +0.073 C 
ATOM     38  C   UNL     1       5.336   4.065  -3.433  0.00  0.00    +0.022 C 
ATOM     39  C   UNL     1       6.362   4.681  -4.386  0.00  0.00    +0.002 C 
ATOM     40  C   UNL     1       7.689   3.929  -4.262  0.00  0.00    +0.000 C 
ATOM     41  C   UNL     1       8.202   4.034  -2.825  0.00  0.00    +0.002 C 
ATOM     42  C   UNL     1       7.176   3.419  -1.871  0.00  0.00    +0.022 C 
ENDBRANCH  35  37
ENDBRANCH  25  33
ENDBRANCH   1  25
TORSDOF 7
