REMARK  Name = ZINC20532240
REMARK  11 active torsions:
REMARK  status: ('A' for Active; 'I' for Inactive)
REMARK    1  A    between atoms: C_1  and  C_2
REMARK    2  A    between atoms: C_2  and  N_3
REMARK    3  A    between atoms: C_9  and  N_29
REMARK    4  A    between atoms: C_10  and  C_11
REMARK    5  A    between atoms: C_11  and  C_13
REMARK    6  A    between atoms: C_11  and  N_14
REMARK    7  A    between atoms: N_17  and  C_18
REMARK    8  A    between atoms: C_21  and  C_24
REMARK    9  A    between atoms: C_24  and  O_26
REMARK   10  A    between atoms: O_26  and  C_27
REMARK   11  A    between atoms: C_27  and  C_28
REMARK                            x       y       z     vdW  Elec       q    Type
REMARK                         _______ _______ _______ _____ _____    ______ ____
ROOT
ATOM      1  C   UNL     1      -3.334   3.726   0.492  0.00  0.00    +0.104 C 
ATOM      2  C   UNL     1      -2.682   4.273   1.764  0.00  0.00    +0.033 C 
ENDROOT
BRANCH   1  10
ATOM      3  N   UNL     1      -6.594  -0.147   1.525  0.00  0.00    +0.383 N 
ATOM      4  C   UNL     1      -6.893   1.055   0.734  0.00  0.00    -0.074 C 
ATOM      5  C   UNL     1      -5.825   2.125   0.971  0.00  0.00    +0.018 C 
ATOM      6  C   UNL     1      -4.455   1.491   0.739  0.00  0.00    -0.034 A 
ATOM      7  C   UNL     1      -4.337   0.134   0.745  0.00  0.00    -0.021 A 
ATOM      8  S   UNL     1      -2.617  -0.143   0.428  0.00  0.00    -0.077 S 
ATOM      9  C   UNL     1      -2.114   1.568   0.310  0.00  0.00    +0.090 A 
ATOM     10  C   UNL     1      -3.291   2.220   0.513  0.00  0.00    +0.007 A 
ATOM     11  C   UNL     1      -5.429  -0.860   0.967  0.00  0.00    -0.035 C 
ATOM     12  H   UNL     1      -6.349   0.172   2.549  0.00  0.00    -0.081 HD
BRANCH   9  13
ATOM     13  N   UNL     1      -0.842   2.099   0.067  0.00  0.00    -0.317 N 
ATOM     14  C   UNL     1      -0.504   3.420   0.140  0.00  0.00    +0.092 A 
ATOM     15  C   UNL     1       0.807   3.536  -0.156  0.00  0.00    +0.019 A 
ATOM     16  C   UNL     1       1.296   2.242  -0.425  0.00  0.00    +0.019 A 
ATOM     17  C   UNL     1       0.265   1.383  -0.285  0.00  0.00    +0.092 A 
ENDBRANCH   9  13
BRANCH   3  19
ATOM     18  C   UNL     1      -8.213  -1.409   0.189  0.00  0.00    -0.017 C 
ATOM     19  C   UNL     1      -7.765  -1.031   1.602  0.00  0.00    -0.082 C 
ENDBRANCH   3  19
ENDBRANCH   1  10
BRANCH   1  20
ATOM     20  N   UNL     1      -2.606   4.219  -0.680  0.00  0.00    -0.292 N 
ATOM     21  C   UNL     1      -2.675   5.522  -1.017  0.00  0.00    +0.304 C 
ATOM     22  O   UNL     1      -3.341   6.289  -0.349  0.00  0.00    -0.252 OA
ATOM     23  N   UNL     1      -2.005   5.976  -2.095  0.00  0.00    -0.269 N 
ATOM     24  H   UNL     1      -2.003   3.526  -1.285  0.00  0.00    +0.151 HD
ATOM     25  H   UNL     1      -1.315   5.311  -2.634  0.00  0.00    +0.156 HD
BRANCH  23  26
ATOM     26  C   UNL     1      -2.188   7.289  -2.528  0.00  0.00    +0.035 A 
ATOM     27  C   UNL     1      -3.435   7.893  -2.404  0.00  0.00    +0.024 A 
ATOM     28  C   UNL     1      -3.618   9.190  -2.826  0.00  0.00    +0.017 A 
ATOM     29  C   UNL     1      -2.551   9.898  -3.388  0.00  0.00    +0.059 A 
ATOM     30  C   UNL     1      -1.301   9.285  -3.516  0.00  0.00    +0.017 A 
ATOM     31  C   UNL     1      -1.124   7.989  -3.088  0.00  0.00    +0.024 A 
BRANCH  29  32
ATOM     32  C   UNL     1      -2.745  11.286  -3.845  0.00  0.00    +0.339 C 
ATOM     33  O   UNL     1      -1.817  11.900  -4.334  0.00  0.00    -0.245 OA
BRANCH  32  34
ATOM     34  O   UNL     1      -3.951  11.874  -3.722  0.00  0.00    -0.461 OA
BRANCH  34  35
ATOM     35  C   UNL     1      -4.068  13.243  -4.193  0.00  0.00    +0.229 C 
ATOM     36  C   UNL     1      -5.498  13.738  -3.971  0.00  0.00    +0.048 C 
ENDBRANCH  34  35
ENDBRANCH  32  34
ENDBRANCH  29  32
ENDBRANCH  23  26
ENDBRANCH   1  20
TORSDOF 8
