REMARK  Name = ZINC53624195
REMARK  6 active torsions:
REMARK  status: ('A' for Active; 'I' for Inactive)
REMARK    1  A    between atoms: C_1  and  C_2
REMARK    2  A    between atoms: C_6  and  N_9
REMARK    3  A    between atoms: C_7  and  C_8
REMARK    4  A    between atoms: C_12  and  C_23
REMARK    5  A    between atoms: C_27  and  O_29
REMARK    6  A    between atoms: O_29  and  C_30
REMARK                            x       y       z     vdW  Elec       q    Type
REMARK                         _______ _______ _______ _____ _____    ______ ____
ROOT
ATOM      1  N   UNL     1       0.052  -2.791   2.361  0.00  0.00    -0.215 NA
ATOM      2  C   UNL     1      -0.029  -4.108   2.351  0.00  0.00    +0.220 C 
ATOM      3  N   UNL     1      -0.021  -4.801   1.151  0.00  0.00    -0.291 N 
ATOM      4  C   UNL     1      -0.729  -6.093   1.115  0.00  0.00    +0.202 C 
ATOM      5  N   UNL     1      -0.394  -6.810   2.356  0.00  0.00    -0.216 N 
ATOM      6  C   UNL     1      -0.198  -8.177   2.326  0.00  0.00    +0.249 C 
ATOM      7  O   UNL     1      -0.262  -8.839   1.147  0.00  0.00    -0.270 OA
ATOM      8  C   UNL     1       0.057  -8.857   3.464  0.00  0.00    +0.090 C 
ATOM      9  C   UNL     1       0.153  -8.106   4.729  0.00  0.00    +0.031 C 
ATOM     10  N   UNL     1      -0.266  -6.766   4.721  0.00  0.00    -0.287 N 
ATOM     11  C   UNL     1      -0.270  -6.101   3.521  0.00  0.00    +0.198 C 
ATOM     12  N   UNL     1      -0.116  -4.792   3.504  0.00  0.00    -0.184 NA
ATOM     13  C   UNL     1       0.624  -8.681   5.846  0.00  0.00    +0.033 C 
ATOM     14  H   UNL     1       0.431  -4.450   0.368  0.00  0.00    +0.151 HD
ATOM     15  H   UNL     1      -0.545  -6.324   5.539  0.00  0.00    +0.155 HD
ENDROOT
BRANCH   1  21
ATOM     16  C   UNL     1      -1.262   0.751  -0.753  0.00  0.00    +0.044 C 
ATOM     17  C   UNL     1      -0.350  -0.380  -0.352  0.00  0.00    -0.046 A 
ATOM     18  C   UNL     1       0.712  -0.732  -1.166  0.00  0.00    +0.004 A 
ATOM     19  C   UNL     1       1.555  -1.769  -0.806  0.00  0.00    +0.002 A 
ATOM     20  C   UNL     1       1.341  -2.460   0.368  0.00  0.00    +0.028 A 
ATOM     21  C   UNL     1       0.270  -2.110   1.195  0.00  0.00    +0.071 A 
ATOM     22  C   UNL     1      -0.573  -1.059   0.828  0.00  0.00    -0.022 A 
ATOM     23  C   UNL     1      -1.727  -0.670   1.716  0.00  0.00    +0.046 C 
ENDBRANCH   1  21
BRANCH   4  24
ATOM     24  C   UNL     1      -2.216  -5.862   1.041  0.00  0.00    -0.005 A 
ATOM     25  C   UNL     1      -3.087  -6.778   1.601  0.00  0.00    +0.007 A 
ATOM     26  C   UNL     1      -4.452  -6.569   1.535  0.00  0.00    +0.004 A 
ATOM     27  C   UNL     1      -4.949  -5.443   0.907  0.00  0.00    +0.045 A 
ATOM     28  C   UNL     1      -4.078  -4.522   0.344  0.00  0.00    +0.120 A 
ATOM     29  C   UNL     1      -2.708  -4.732   0.417  0.00  0.00    +0.052 A 
BRANCH  28  30
ATOM     30  O   UNL     1      -4.565  -3.414  -0.274  0.00  0.00    -0.495 OA
ATOM     31  C   UNL     1      -5.985  -3.261  -0.307  0.00  0.00    +0.277 C 
ENDBRANCH  28  30
ENDBRANCH   4  24
TORSDOF 3
