REMARK  Name = ZINC35087236
REMARK  12 active torsions:
REMARK  status: ('A' for Active; 'I' for Inactive)
REMARK    1  A    between atoms: C_1  and  C_2
REMARK    2  A    between atoms: C_2  and  N_3
REMARK    3  A    between atoms: N_3  and  C_4
REMARK    4  A    between atoms: N_3  and  C_6
REMARK    5  A    between atoms: C_4  and  C_5
REMARK    6  A    between atoms: C_6  and  C_7
REMARK    7  A    between atoms: C_7  and  S_8
REMARK    8  A    between atoms: S_8  and  C_9
REMARK    9  A    between atoms: C_10  and  C_26
REMARK   10  A    between atoms: C_11  and  C_18
REMARK   11  A    between atoms: C_12  and  C_16
REMARK   12  A    between atoms: C_13  and  N_15
REMARK                            x       y       z     vdW  Elec       q    Type
REMARK                         _______ _______ _______ _____ _____    ______ ____
ROOT
ATOM      1  C   UNL     1      -4.585  -4.899   0.046  0.00  0.00    +0.117 A 
ATOM      2  C   UNL     1      -4.953  -6.253   0.162  0.00  0.00    +0.093 A 
ATOM      3  C   UNL     1      -6.308  -6.607   0.015  0.00  0.00    +0.023 A 
ATOM      4  C   UNL     1      -7.237  -5.579  -0.244  0.00  0.00    +0.100 A 
ATOM      5  C   UNL     1      -6.777  -4.253  -0.344  0.00  0.00    +0.136 A 
ATOM      6  N   UNL     1      -5.494  -3.965  -0.193  0.00  0.00    -0.224 NA
ENDROOT
BRANCH   3   7
ATOM      7  C   UNL     1      -6.744  -8.016   0.127  0.00  0.00    -0.012 A 
ATOM      8  C   UNL     1      -6.311  -8.960  -0.805  0.00  0.00    +0.028 A 
ATOM      9  C   UNL     1      -6.721 -10.274  -0.695  0.00  0.00    +0.043 A 
ATOM     10  C   UNL     1      -7.560 -10.655   0.338  0.00  0.00    +0.040 A 
ATOM     11  C   UNL     1      -7.993  -9.724   1.266  0.00  0.00    +0.043 A 
ATOM     12  C   UNL     1      -7.584  -8.408   1.170  0.00  0.00    +0.028 A 
ATOM     13 CL   UNL     1      -9.045 -10.212   2.558  0.00  0.00    -0.083 Cl
ATOM     14 CL   UNL     1      -6.184 -11.449  -1.854  0.00  0.00    -0.083 Cl
ENDBRANCH   3   7
BRANCH   5  15
ATOM     15  N   UNL     1      -7.677  -3.237  -0.597  0.00  0.00    -0.342 N 
ATOM     16  H   UNL     1      -8.619  -3.440  -0.705  0.00  0.00    +0.144 HD
ATOM     17  H   UNL     1      -7.367  -2.321  -0.667  0.00  0.00    +0.144 HD
ENDBRANCH   5  15
BRANCH   4  18
ATOM     18  C   UNL     1      -8.628  -5.880  -0.404  0.00  0.00    +0.103 C 
ATOM     19  N   UNL     1      -9.732  -6.118  -0.531  0.00  0.00    -0.191 NA
ENDBRANCH   4  18
BRANCH   2  20
ATOM     20  C   UNL     1      -3.964  -7.255   0.425  0.00  0.00    +0.102 C 
ATOM     21  N   UNL     1      -3.180  -8.050   0.635  0.00  0.00    -0.191 NA
ENDBRANCH   2  20
BRANCH   1  22
ATOM     22  S   UNL     1      -2.894  -4.439   0.228  0.00  0.00    -0.106 S 
BRANCH  22  23
ATOM     23  C   UNL     1      -2.903  -2.638   0.012  0.00  0.00    +0.057 C 
BRANCH  23  24
ATOM     24  C   UNL     1      -1.477  -2.100   0.147  0.00  0.00    -0.068 C 
BRANCH  24  25
ATOM     25  N   UNL     1      -1.466  -0.661  -0.148  0.00  0.00    +0.380 N 
ATOM     26  H   UNL     1      -1.873  -0.502  -1.058  0.00  0.00    -0.082 HD
BRANCH  25  28
ATOM     27  C   UNL     1      -2.340   1.534   0.495  0.00  0.00    -0.017 C 
ATOM     28  C   UNL     1      -2.247   0.054   0.870  0.00  0.00    -0.082 C 
ENDBRANCH  25  28
BRANCH  25  29
ATOM     29  C   UNL     1      -0.082  -0.171  -0.138  0.00  0.00    -0.082 C 
ATOM     30  C   UNL     1       0.691  -0.799  -1.300  0.00  0.00    -0.017 C 
ENDBRANCH  25  29
ENDBRANCH  24  25
ENDBRANCH  23  24
ENDBRANCH  22  23
ENDBRANCH   1  22
TORSDOF 10
