REMARK  Name = ZINC36637938
REMARK  17 active torsions:
REMARK  status: ('A' for Active; 'I' for Inactive)
REMARK    1  A    between atoms: C_1  and  C_2
REMARK    2  A    between atoms: C_2  and  C_3
REMARK    3  A    between atoms: C_3  and  C_4
REMARK    4  A    between atoms: C_4  and  N_5
REMARK    5  A    between atoms: N_5  and  C_6
REMARK    6  A    between atoms: N_5  and  S_7
REMARK    7  A    between atoms: S_7  and  C_10
REMARK    8  A    between atoms: C_13  and  C_16
REMARK    9  A    between atoms: N_18  and  C_19
REMARK   10  A    between atoms: C_19  and  C_20
REMARK   11  A    between atoms: C_20  and  N_21
REMARK   12  A    between atoms: N_21  and  C_22
REMARK   13  A    between atoms: N_21  and  C_24
REMARK   14  A    between atoms: C_22  and  C_23
REMARK   15  A    between atoms: C_24  and  C_25
REMARK   16  A    between atoms: C_31  and  C_35
REMARK   17  A    between atoms: C_35  and  C_36
REMARK                            x       y       z     vdW  Elec       q    Type
REMARK                         _______ _______ _______ _____ _____    ______ ____
ROOT
ATOM      1  C   UNL     1       6.146   2.344   3.750  0.00  0.00    +0.252 C 
ATOM      2  O   UNL     1       6.594   3.071   2.885  0.00  0.00    -0.270 OA
ATOM      3  N   UNL     1       6.567   2.473   5.024  0.00  0.00    -0.248 N 
ATOM      4  C   UNL     1       7.409   3.515   5.372  0.00  0.00    +0.168 A 
ATOM      5  N   UNL     1       7.924   3.800   6.545  0.00  0.00    -0.224 NA
ATOM      6  C   UNL     1       8.738   4.860   6.743  0.00  0.00    +0.080 A 
ATOM      7  C   UNL     1       9.354   5.275   7.946  0.00  0.00    +0.029 A 
ATOM      8  C   UNL     1      10.159   6.384   7.973  0.00  0.00    +0.006 A 
ATOM      9  C   UNL     1      10.398   7.136   6.831  0.00  0.00    -0.046 A 
ATOM     10  C   UNL     1       9.811   6.758   5.638  0.00  0.00    +0.021 A 
ATOM     11  C   UNL     1       9.004   5.649   5.600  0.00  0.00    +0.041 A 
ATOM     12  S   UNL     1       8.076   4.811   4.338  0.00  0.00    -0.052 S 
ENDROOT
BRANCH   1  16
ATOM     13  C   UNL     1       3.253  -0.603   2.758  0.00  0.00    +0.106 A 
ATOM     14  C   UNL     1       3.243   0.618   2.107  0.00  0.00    +0.029 A 
ATOM     15  C   UNL     1       4.180   1.579   2.425  0.00  0.00    +0.015 A 
ATOM     16  C   UNL     1       5.139   1.318   3.405  0.00  0.00    +0.037 A 
ATOM     17  C   UNL     1       5.143   0.084   4.057  0.00  0.00    +0.015 A 
ATOM     18  C   UNL     1       4.197  -0.867   3.734  0.00  0.00    +0.029 A 
BRANCH  13  19
ATOM     19  S   UNL     1       2.053  -1.826   2.346  0.00  0.00    +0.061 S 
ATOM     20  O   UNL     1       2.609  -3.081   2.714  0.00  0.00    -0.153 OA
ATOM     21  O   UNL     1       1.622  -1.542   1.022  0.00  0.00    -0.153 OA
BRANCH  19  22
ATOM     22  N   UNL     1       0.745  -1.580   3.332  0.00  0.00    -0.180 NA
ATOM     23  C   UNL     1       0.669  -2.255   4.630  0.00  0.00    +0.131 C 
BRANCH  22  24
ATOM     24  C   UNL     1      -0.336  -0.688   2.906  0.00  0.00    +0.109 C 
BRANCH  24  25
ATOM     25  C   UNL     1      -0.100   0.710   3.482  0.00  0.00    +0.017 C 
BRANCH  25  27
ATOM     26  C   UNL     1      -0.993   3.040   3.613  0.00  0.00    +0.004 C 
ATOM     27  C   UNL     1      -1.229   1.642   3.037  0.00  0.00    -0.002 C 
ENDBRANCH  25  27
ENDBRANCH  24  25
ENDBRANCH  22  24
ENDBRANCH  19  22
ENDBRANCH  13  19
ENDBRANCH   1  16
BRANCH   9  28
ATOM     28  C   UNL     1      11.287   8.351   6.892  0.00  0.00    +0.032 C 
ATOM     29  C   UNL     1      12.733   7.939   6.610  0.00  0.00    +0.009 C 
ENDBRANCH   9  28
BRANCH   3  30
ATOM     30  C   UNL     1       6.135   1.509   6.039  0.00  0.00    +0.097 C 
BRANCH  30  31
ATOM     31  C   UNL     1       7.332   0.670   6.489  0.00  0.00    -0.059 C 
BRANCH  31  32
ATOM     32  N   UNL     1       6.912  -0.254   7.550  0.00  0.00    +0.380 N 
ATOM     33  H   UNL     1       6.470   0.266   8.294  0.00  0.00    -0.082 HD
BRANCH  32  34
ATOM     34  C   UNL     1       5.959  -1.228   7.002  0.00  0.00    -0.082 C 
ATOM     35  C   UNL     1       6.656  -2.082   5.941  0.00  0.00    -0.017 C 
ENDBRANCH  32  34
BRANCH  32  36
ATOM     36  C   UNL     1       8.086  -0.962   8.078  0.00  0.00    -0.082 C 
ATOM     37  C   UNL     1       7.667  -1.833   9.264  0.00  0.00    -0.017 C 
ENDBRANCH  32  36
ENDBRANCH  31  32
ENDBRANCH  30  31
ENDBRANCH   3  30
TORSDOF 12
