REMARK  Name = ZINC40049754
REMARK  6 active torsions:
REMARK  status: ('A' for Active; 'I' for Inactive)
REMARK    1  A    between atoms: C_11  and  C_13
REMARK    2  A    between atoms: C_13  and  S_14
REMARK    3  A    between atoms: S_14  and  C_15
REMARK    4  A    between atoms: C_19  and  C_28
REMARK    5  A    between atoms: N_20  and  C_21
REMARK    6  A    between atoms: C_21  and  C_22
REMARK                            x       y       z     vdW  Elec       q    Type
REMARK                         _______ _______ _______ _____ _____    ______ ____
ROOT
ATOM      1  C   UNL     1       7.725  -2.144   3.536  0.00  0.00    +0.237 C 
ATOM      2  N   UNL     1       7.127  -1.005   4.250  0.00  0.00    -0.237 N 
ATOM      3  N   UNL     1       7.607   0.152   3.625  0.00  0.00    -0.169 NA
ATOM      4  C   UNL     1       8.409  -0.141   2.636  0.00  0.00    +0.147 C 
ATOM      5  N   UNL     1       8.556  -1.525   2.490  0.00  0.00    -0.283 N 
ATOM      6  H   UNL     1       6.520  -1.047   5.006  0.00  0.00    +0.171 HD
ENDROOT
BRANCH   4   7
ATOM      7  C   UNL     1       9.042   0.812   1.823  0.00  0.00    +0.022 C 
ATOM      8  C   UNL     1       8.945   2.200   1.917  0.00  0.00    +0.006 A 
ATOM      9  C   UNL     1       8.234   3.049   2.793  0.00  0.00    +0.010 A 
ATOM     10  C   UNL     1       8.328   4.396   2.649  0.00  0.00    +0.001 A 
ATOM     11  C   UNL     1       9.116   4.972   1.651  0.00  0.00    +0.002 A 
ATOM     12  C   UNL     1       9.826   4.217   0.775  0.00  0.00    +0.026 A 
ATOM     13  C   UNL     1       9.777   2.802   0.863  0.00  0.00    +0.043 A 
ATOM     14  N   UNL     1      10.364   1.863   0.146  0.00  0.00    -0.380 N 
ATOM     15  C   UNL     1       9.979   0.547   0.665  0.00  0.00    +0.152 C 
ATOM     16  H   UNL     1      10.960   2.019  -0.603  0.00  0.00    +0.160 HD
ENDBRANCH   4   7
BRANCH   1  17
ATOM     17  S   UNL     1       6.431  -3.175   2.791  0.00  0.00    -0.109 S 
BRANCH  17  18
ATOM     18  C   UNL     1       5.510  -2.026   1.732  0.00  0.00    +0.168 C 
BRANCH  18  29
ATOM     19  C   UNL     1      -0.017   1.375   0.010  0.00  0.00    +0.000 A 
ATOM     20  C   UNL     1       1.173   2.079   0.002  0.00  0.00    +0.000 A 
ATOM     21  C   UNL     1       2.372   1.396  -0.019  0.00  0.00    +0.005 A 
ATOM     22  C   UNL     1       2.392   0.008  -0.029  0.00  0.00    -0.027 A 
ATOM     23  C   UNL     1       1.208  -0.695  -0.011  0.00  0.00    -0.041 A 
ATOM     24  C   UNL     1       0.002  -0.004   0.002  0.00  0.00    +0.004 A 
ATOM     25  C   UNL     1       1.151  -2.200   0.010  0.00  0.00    +0.054 C 
ATOM     26  C   UNL     1       2.465  -2.801  -0.485  0.00  0.00    +0.113 C 
ATOM     27  N   UNL     1       3.568  -2.109   0.202  0.00  0.00    -0.296 N 
ATOM     28  C   UNL     1       3.735  -0.676  -0.066  0.00  0.00    +0.143 C 
ATOM     29  C   UNL     1       4.391  -2.765   1.044  0.00  0.00    +0.226 C 
ATOM     30  O   UNL     1       4.230  -3.950   1.248  0.00  0.00    -0.275 OA
ENDBRANCH  18  29
ENDBRANCH  17  18
ENDBRANCH   1  17
BRANCH   5  31
ATOM     31  C   UNL     1       9.373  -2.222   1.494  0.00  0.00    +0.140 C 
BRANCH  31  32
ATOM     32  C   UNL     1       8.536  -2.488   0.242  0.00  0.00    +0.136 C 
ATOM     33  C   UNL     1       9.372  -3.256  -0.812  0.00  0.00    +0.035 C 
ATOM     34  C   UNL     1       8.250  -3.957  -1.625  0.00  0.00    +0.031 C 
ATOM     35  C   UNL     1       7.193  -4.251  -0.539  0.00  0.00    +0.160 C 
ATOM     36  O   UNL     1       7.434  -3.355   0.554  0.00  0.00    -0.375 OA
ENDBRANCH  31  32
ENDBRANCH   5  31
TORSDOF 6
