REMARK  Name = ZINC45320396
REMARK  10 active torsions:
REMARK  status: ('A' for Active; 'I' for Inactive)
REMARK    1  A    between atoms: C_1  and  C_2
REMARK    2  A    between atoms: C_7  and  S_8
REMARK    3  A    between atoms: S_8  and  N_11
REMARK    4  A    between atoms: N_11  and  N_12
REMARK    5  A    between atoms: C_15  and  C_33
REMARK    6  A    between atoms: C_16  and  C_19
REMARK    7  A    between atoms: C_19  and  C_20
REMARK    8  A    between atoms: N_22  and  C_23
REMARK    9  A    between atoms: C_23  and  C_24
REMARK   10  A    between atoms: C_27  and  C_30
REMARK                            x       y       z     vdW  Elec       q    Type
REMARK                         _______ _______ _______ _____ _____    ______ ____
ROOT
ATOM      1  N   UNL     1      -2.479  -0.675   3.435  0.00  0.00    -0.214 N 
ATOM      2  C   UNL     1      -3.347  -1.174   2.368  0.00  0.00    +0.133 C 
ATOM      3  C   UNL     1      -3.347  -2.701   2.358  0.00  0.00    +0.051 C 
ATOM      4  C   UNL     1      -3.630  -3.225   3.742  0.00  0.00    -0.062 C 
ATOM      5  C   UNL     1      -3.174  -2.568   4.806  0.00  0.00    +0.024 C 
ATOM      6  C   UNL     1      -2.394  -1.335   4.608  0.00  0.00    +0.258 C 
ATOM      7  O   UNL     1      -1.681  -0.911   5.497  0.00  0.00    -0.269 OA
ATOM      8  C   UNL     1      -4.428  -4.491   3.922  0.00  0.00    +0.039 C 
ENDROOT
BRANCH   1   9
ATOM      9  N   UNL     1      -1.728   0.490   3.235  0.00  0.00    -0.105 NA
ATOM     10  H   UNL     1      -2.102   1.354   3.470  0.00  0.00    +0.172 HD
BRANCH   9  11
ATOM     11  S   UNL     1      -0.204   0.393   2.596  0.00  0.00    +0.075 S 
ATOM     12  O   UNL     1       0.518  -0.524   3.405  0.00  0.00    -0.152 OA
ATOM     13  O   UNL     1       0.233   1.729   2.383  0.00  0.00    -0.152 OA
BRANCH  11  20
ATOM     14  C   UNL     1      -0.633   1.942   0.034  0.00  0.00    +0.046 C 
ATOM     15  C   UNL     1      -0.547   0.444  -0.111  0.00  0.00    -0.023 A 
ATOM     16  C   UNL     1      -0.658  -0.137  -1.361  0.00  0.00    +0.005 A 
ATOM     17  C   UNL     1      -0.579  -1.510  -1.495  0.00  0.00    +0.002 A 
ATOM     18  C   UNL     1      -0.390  -2.304  -0.379  0.00  0.00    +0.022 A 
ATOM     19  C   UNL     1      -0.279  -1.723   0.872  0.00  0.00    +0.068 A 
ATOM     20  C   UNL     1      -0.352  -0.348   1.004  0.00  0.00    +0.128 A 
ATOM     21 CL   UNL     1      -0.041  -2.719   2.273  0.00  0.00    -0.082 Cl
ENDBRANCH  11  20
ENDBRANCH   9  11
ENDBRANCH   1   9
BRANCH   5  22
ATOM     22  C   UNL     1      -3.447  -3.083   6.195  0.00  0.00    +0.136 C 
BRANCH  22  23
ATOM     23  C   UNL     1      -4.680  -2.413   6.746  0.00  0.00    +0.218 C 
ATOM     24  O   UNL     1      -5.277  -1.598   6.076  0.00  0.00    -0.275 OA
ATOM     25  N   UNL     1      -5.118  -2.721   7.983  0.00  0.00    -0.311 N 
ATOM     26  H   UNL     1      -4.640  -3.373   8.518  0.00  0.00    +0.149 HD
BRANCH  25  27
ATOM     27  C   UNL     1      -6.316  -2.070   8.518  0.00  0.00    +0.139 C 
BRANCH  27  28
ATOM     28  C   UNL     1      -6.590  -2.585   9.907  0.00  0.00    -0.030 A 
ATOM     29  C   UNL     1      -7.391  -3.699  10.083  0.00  0.00    +0.006 A 
ATOM     30  C   UNL     1      -7.646  -4.176  11.353  0.00  0.00    +0.011 A 
ATOM     31  C   UNL     1      -7.093  -3.532  12.460  0.00  0.00    +0.012 A 
ATOM     32  C   UNL     1      -6.285  -2.409  12.276  0.00  0.00    +0.011 A 
ATOM     33  C   UNL     1      -6.034  -1.945  11.001  0.00  0.00    +0.006 A 
BRANCH  31  34
ATOM     34  C   UNL     1      -7.362  -4.037  13.825  0.00  0.00    +0.094 C 
ATOM     35  N   UNL     1      -6.833  -3.421  14.880  0.00  0.00    -0.387 N 
ATOM     36  N   UNL     1      -8.134  -5.109  13.997  0.00  0.00    -0.345 N 
ATOM     37  H   UNL     1      -6.272  -2.640  14.754  0.00  0.00    +0.157 HD
ATOM     38  H   UNL     1      -8.519  -5.558  13.229  0.00  0.00    +0.144 HD
ATOM     39  H   UNL     1      -8.310  -5.440  14.892  0.00  0.00    +0.144 HD
ATOM     40  H   UNL     1      -7.010  -3.752  15.774  0.00  0.00    +0.157 HD
ENDBRANCH  31  34
ENDBRANCH  27  28
ENDBRANCH  25  27
ENDBRANCH  22  23
ENDBRANCH   5  22
TORSDOF 8
