REMARK  Name = ZINC13786856
REMARK  6 active torsions:
REMARK  status: ('A' for Active; 'I' for Inactive)
REMARK    1  A    between atoms: C_1  and  O_2
REMARK    2  A    between atoms: O_2  and  C_3
REMARK    3  A    between atoms: C_6  and  C_9
REMARK    4  A    between atoms: C_14  and  O_38
REMARK    5  A    between atoms: C_22  and  C_27
REMARK    6  A    between atoms: C_36  and  O_37
REMARK                            x       y       z     vdW  Elec       q    Type
REMARK                         _______ _______ _______ _____ _____    ______ ____
ROOT
ATOM      1  C   UNL     1       2.587  -2.550   4.310  0.00  0.00    +0.091 C 
ATOM      2  C   UNL     1       1.600  -3.426   5.037  0.00  0.00    +0.007 A 
ATOM      3  C   UNL     1       0.682  -2.851   5.897  0.00  0.00    +0.012 A 
ATOM      4  C   UNL     1      -0.229  -3.641   6.571  0.00  0.00    +0.046 A 
ATOM      5  C   UNL     1      -0.223  -5.016   6.385  0.00  0.00    +0.120 A 
ATOM      6  C   UNL     1       0.695  -5.594   5.524  0.00  0.00    +0.092 A 
ATOM      7  C   UNL     1       1.611  -4.799   4.847  0.00  0.00    +0.138 A 
ATOM      8  O   UNL     1       2.502  -5.380   4.010  0.00  0.00    -0.437 OA
ATOM      9  C   UNL     1       3.640  -4.733   3.665  0.00  0.00    +0.230 A 
ATOM     10  C   UNL     1       3.723  -3.375   3.789  0.00  0.00    +0.070 A 
ATOM     11  C   UNL     1       4.937  -2.783   3.403  0.00  0.00    +0.167 A 
ATOM     12  N   UNL     1       5.357  -1.541   3.385  0.00  0.00    -0.206 NA
ATOM     13  C   UNL     1       6.613  -1.501   2.922  0.00  0.00    +0.186 A 
ATOM     14  N   UNL     1       7.017  -2.729   2.634  0.00  0.00    -0.143 NA
ATOM     15  N   UNL     1       5.964  -3.582   2.931  0.00  0.00    -0.201 N 
ATOM     16  C   UNL     1       5.812  -4.926   2.835  0.00  0.00    +0.229 A 
ATOM     17  N   UNL     1       4.677  -5.446   3.200  0.00  0.00    -0.201 NA
ENDROOT
BRANCH  13  18
ATOM     18  C   UNL     1       7.425  -0.272   2.756  0.00  0.00    +0.063 A 
ATOM     19  C   UNL     1       6.881   0.975   3.103  0.00  0.00    +0.016 A 
ATOM     20  C   UNL     1       7.604   2.116   2.961  0.00  0.00    +0.009 A 
ATOM     21  C   UNL     1       8.917   2.062   2.459  0.00  0.00    -0.014 A 
ATOM     22  C   UNL     1       9.682   3.231   2.304  0.00  0.00    +0.008 A 
ATOM     23  C   UNL     1      10.950   3.147   1.817  0.00  0.00    +0.001 A 
ATOM     24  C   UNL     1      11.505   1.917   1.467  0.00  0.00    +0.001 A 
ATOM     25  C   UNL     1      10.793   0.764   1.603  0.00  0.00    +0.012 A 
ATOM     26  C   UNL     1       9.482   0.812   2.104  0.00  0.00    +0.024 A 
ATOM     27  C   UNL     1       8.720  -0.362   2.263  0.00  0.00    +0.135 A 
BRANCH  27  28
ATOM     28  O   UNL     1       9.244  -1.570   1.933  0.00  0.00    -0.505 OA
ATOM     29  H   UNL     1       9.090  -1.828   1.015  0.00  0.00    +0.292 HD
ENDBRANCH  27  28
ENDBRANCH  13  18
BRANCH   1  33
ATOM     30  C   UNL     1       0.626  -0.618   1.042  0.00  0.00    +0.120 A 
ATOM     31  C   UNL     1       1.202   0.138   2.051  0.00  0.00    +0.046 A 
ATOM     32  C   UNL     1       1.835  -0.488   3.107  0.00  0.00    +0.008 A 
ATOM     33  C   UNL     1       1.895  -1.869   3.158  0.00  0.00    -0.035 A 
ATOM     34  C   UNL     1       1.322  -2.625   2.152  0.00  0.00    +0.008 A 
ATOM     35  C   UNL     1       0.682  -2.003   1.098  0.00  0.00    +0.046 A 
BRANCH  30  37
ATOM     36  C   UNL     1      -0.017   1.425   0.010  0.00  0.00    +0.277 C 
ATOM     37  O   UNL     1       0.002  -0.004   0.002  0.00  0.00    -0.495 OA
ENDBRANCH  30  37
ENDBRANCH   1  33
BRANCH   5  38
ATOM     38  O   UNL     1      -1.118  -5.795   7.048  0.00  0.00    -0.507 OA
ATOM     39  H   UNL     1      -1.949  -5.933   6.572  0.00  0.00    +0.292 HD
ENDBRANCH   5  38
TORSDOF 5
