REMARK  Name = ZINC39444434
REMARK  10 active torsions:
REMARK  status: ('A' for Active; 'I' for Inactive)
REMARK    1  A    between atoms: C_2  and  C_3
REMARK    2  A    between atoms: C_3  and  N_4
REMARK    3  A    between atoms: C_5  and  S_19
REMARK    4  A    between atoms: C_9  and  C_10
REMARK    5  A    between atoms: C_10  and  O_11
REMARK    6  A    between atoms: O_11  and  C_12
REMARK    7  A    between atoms: S_19  and  C_20
REMARK    8  A    between atoms: C_20  and  C_21
REMARK    9  A    between atoms: N_23  and  N_24
REMARK   10  A    between atoms: C_25  and  C_26
REMARK                            x       y       z     vdW  Elec       q    Type
REMARK                         _______ _______ _______ _____ _____    ______ ____
ROOT
ATOM      1  N   UNL     1      -1.318  -1.700  -1.126  0.00  0.00    -0.283 N 
ATOM      2  C   UNL     1      -1.828  -1.419  -2.479  0.00  0.00    +0.237 C 
ATOM      3  N   UNL     1      -1.609  -2.683  -3.205  0.00  0.00    -0.238 N 
ATOM      4  N   UNL     1      -1.022  -3.561  -2.286  0.00  0.00    -0.170 NA
ATOM      5  C   UNL     1      -0.860  -3.008  -1.141  0.00  0.00    +0.156 C 
ATOM      6  H   UNL     1      -1.827  -2.868  -4.132  0.00  0.00    +0.171 HD
ENDROOT
BRANCH   1   7
ATOM      7  C   UNL     1      -1.293  -0.775   0.010  0.00  0.00    +0.135 C 
BRANCH   7   9
ATOM      8  C   UNL     1      -0.016   1.306   0.009  0.00  0.00    +0.005 C 
ATOM      9  C   UNL     1       0.002  -0.004   0.002  0.00  0.00    -0.016 C 
ENDBRANCH   7   9
ENDBRANCH   1   7
BRANCH   5  10
ATOM     10  C   UNL     1      -0.247  -3.700   0.050  0.00  0.00    +0.302 C 
BRANCH  10  11
ATOM     11  O   UNL     1       0.114  -5.035  -0.309  0.00  0.00    -0.485 OA
BRANCH  11  12
ATOM     12  C   UNL     1       0.684  -5.801   0.658  0.00  0.00    +0.121 A 
ATOM     13  C   UNL     1       0.886  -5.280   1.928  0.00  0.00    +0.047 A 
ATOM     14  C   UNL     1       1.466  -6.060   2.909  0.00  0.00    +0.023 A 
ATOM     15  C   UNL     1       1.845  -7.361   2.627  0.00  0.00    +0.041 A 
ATOM     16  C   UNL     1       1.645  -7.882   1.361  0.00  0.00    +0.023 A 
ATOM     17  C   UNL     1       1.060  -7.107   0.379  0.00  0.00    +0.047 A 
ATOM     18 CL   UNL     1       2.574  -8.339   3.862  0.00  0.00    -0.084 Cl
ENDBRANCH  11  12
ENDBRANCH  10  11
ENDBRANCH   5  10
BRANCH   2  19
ATOM     19  S   UNL     1      -0.892  -0.068  -3.246  0.00  0.00    -0.109 S 
BRANCH  19  20
ATOM     20  C   UNL     1       0.813  -0.684  -3.289  0.00  0.00    +0.170 C 
BRANCH  20  21
ATOM     21  C   UNL     1       1.708   0.356  -3.912  0.00  0.00    +0.242 C 
ATOM     22  O   UNL     1       1.241   1.409  -4.290  0.00  0.00    -0.273 OA
ATOM     23  N   UNL     1       3.027   0.116  -4.048  0.00  0.00    -0.206 N 
ATOM     24  H   UNL     1       3.400  -0.727  -3.746  0.00  0.00    +0.177 HD
BRANCH  23  25
ATOM     25  N   UNL     1       3.859   1.083  -4.628  0.00  0.00    -0.188 NA
ATOM     26  C   UNL     1       5.140   0.850  -4.760  0.00  0.00    +0.136 C 
BRANCH  26  27
ATOM     27  C   UNL     1       5.973   1.818  -5.340  0.00  0.00    +0.000 C 
ATOM     28  C   UNL     1       7.345   1.726  -5.559  0.00  0.00    +0.004 A 
ATOM     29  C   UNL     1       8.289   0.710  -5.292  0.00  0.00    +0.010 A 
ATOM     30  C   UNL     1       9.592   0.898  -5.619  0.00  0.00    +0.001 A 
ATOM     31  C   UNL     1      10.033   2.081  -6.219  0.00  0.00    +0.002 A 
ATOM     32  C   UNL     1       9.185   3.098  -6.504  0.00  0.00    +0.026 A 
ATOM     33  C   UNL     1       7.805   2.975  -6.191  0.00  0.00    +0.043 A 
ATOM     34  N   UNL     1       6.796   3.803  -6.362  0.00  0.00    -0.380 N 
ATOM     35  C   UNL     1       5.567   3.177  -5.865  0.00  0.00    +0.150 C 
ATOM     36  H   UNL     1       6.855   4.686  -6.759  0.00  0.00    +0.160 HD
ENDBRANCH  26  27
ENDBRANCH  23  25
ENDBRANCH  20  21
ENDBRANCH  19  20
ENDBRANCH   2  19
TORSDOF 10
