REMARK  Name = ZINC44134973
REMARK  14 active torsions:
REMARK  status: ('A' for Active; 'I' for Inactive)
REMARK    1  A    between atoms: C_1  and  C_2
REMARK    2  A    between atoms: C_2  and  C_3
REMARK    3  A    between atoms: C_3  and  N_4
REMARK    4  A    between atoms: C_5  and  C_7
REMARK    5  A    between atoms: C_7  and  C_8
REMARK    6  A    between atoms: C_8  and  C_9
REMARK    7  A    between atoms: C_9  and  C_10
REMARK    8  A    between atoms: C_14  and  C_39
REMARK    9  A    between atoms: C_15  and  C_38
REMARK   10  A    between atoms: C_16  and  O_37
REMARK   11  A    between atoms: C_23  and  O_36
REMARK   12  A    between atoms: C_26  and  C_35
REMARK   13  A    between atoms: C_27  and  C_34
REMARK   14  A    between atoms: C_30  and  O_33
REMARK                            x       y       z     vdW  Elec       q    Type
REMARK                         _______ _______ _______ _____ _____    ______ ____
ROOT
ATOM      1  C   UNL     1      -5.345  -6.865   0.291  0.00  0.00    -0.002 C 
ATOM      2  C   UNL     1      -6.099  -6.765  -1.065  0.00  0.00    +0.005 C 
ATOM      3  C   UNL     1      -6.746  -8.153  -1.317  0.00  0.00    +0.008 C 
ATOM      4  C   UNL     1      -6.569  -8.873   0.023  0.00  0.00    -0.019 C 
ATOM      5  C   UNL     1      -5.169  -8.398   0.455  0.00  0.00    +0.002 C 
ATOM      6  C   UNL     1      -4.821  -8.857   1.845  0.00  0.00    +0.122 C 
ATOM      7  C   UNL     1      -5.291 -10.299   2.104  0.00  0.00    +0.036 C 
ATOM      8  C   UNL     1      -5.584 -11.026   0.803  0.00  0.00    +0.004 C 
ATOM      9  C   UNL     1      -6.735 -10.367   0.059  0.00  0.00    +0.028 C 
ATOM     10  C   UNL     1      -6.952 -11.027  -1.288  0.00  0.00    +0.119 C 
ATOM     11  C   UNL     1      -7.104 -12.542  -1.168  0.00  0.00    +0.039 C 
ATOM     12  C   UNL     1      -7.001 -13.062   0.258  0.00  0.00    -0.022 C 
ATOM     13  C   UNL     1      -5.763 -12.527   0.961  0.00  0.00    -0.023 C 
ATOM     14  C   UNL     1      -5.768 -12.970   2.421  0.00  0.00    +0.010 C 
ATOM     15  C   UNL     1      -5.759 -14.494   2.506  0.00  0.00    +0.032 C 
ATOM     16  C   UNL     1      -6.844 -15.145   1.661  0.00  0.00    +0.115 C 
ATOM     17  C   UNL     1      -6.915 -14.600   0.240  0.00  0.00    +0.038 C 
ATOM     18  C   UNL     1      -4.508 -13.154   0.299  0.00  0.00    +0.012 C 
ATOM     19  C   UNL     1      -8.292 -12.735   1.021  0.00  0.00    +0.012 C 
ATOM     20  C   UNL     1      -4.071  -8.789  -0.548  0.00  0.00    +0.014 C 
ATOM     21  C   UNL     1      -7.629  -8.285   0.986  0.00  0.00    +0.012 C 
ENDROOT
BRANCH  16  22
ATOM     22  O   UNL     1      -6.579 -16.558   1.591  0.00  0.00    -0.392 OA
ATOM     23  H   UNL     1      -6.570 -17.000   2.451  0.00  0.00    +0.210 HD
ENDBRANCH  16  22
BRANCH  10  24
ATOM     24  O   UNL     1      -8.138 -10.496  -1.899  0.00  0.00    -0.391 OA
ATOM     25  H   UNL     1      -8.337 -10.875  -2.765  0.00  0.00    +0.210 HD
ENDBRANCH  10  24
BRANCH   6  26
ATOM     26  O   UNL     1      -3.399  -8.790   2.038  0.00  0.00    -0.391 OA
ATOM     27  H   UNL     1      -3.107  -9.073   2.915  0.00  0.00    +0.210 HD
ENDBRANCH   6  26
BRANCH   1  28
ATOM     28  C   UNL     1      -3.968  -6.200   0.174  0.00  0.00    +0.004 C 
BRANCH  28  29
ATOM     29  C   UNL     1      -4.143  -4.684   0.060  0.00  0.00    +0.009 C 
BRANCH  29  30
ATOM     30  C   UNL     1      -2.769  -4.020  -0.057  0.00  0.00    +0.096 C 
BRANCH  30  32
ATOM     31  N   UNL     1      -1.860  -1.731  -0.283  0.00  0.00    -0.315 N 
ATOM     32  C   UNL     1      -2.941  -2.527  -0.169  0.00  0.00    +0.213 C 
ATOM     33  O   UNL     1      -4.053  -2.042  -0.157  0.00  0.00    -0.276 OA
ATOM     34  H   UNL     1      -0.971  -2.119  -0.293  0.00  0.00    +0.149 HD
BRANCH  31  35
ATOM     35  C   UNL     1      -2.027  -0.279  -0.392  0.00  0.00    +0.104 C 
BRANCH  35  37
ATOM     36  C   UNL     1      -0.828   1.901  -0.623  0.00  0.00    +0.005 C 
ATOM     37  C   UNL     1      -0.653   0.385  -0.509  0.00  0.00    +0.015 C 
ENDBRANCH  35  37
ENDBRANCH  31  35
ENDBRANCH  30  32
ENDBRANCH  29  30
ENDBRANCH  28  29
ENDBRANCH   1  28
TORSDOF 9
