REMARK  Name = ZINC40611174
REMARK  10 active torsions:
REMARK  status: ('A' for Active; 'I' for Inactive)
REMARK    1  A    between atoms: C_1  and  C_2
REMARK    2  A    between atoms: C_2  and  C_34
REMARK    3  A    between atoms: C_4  and  N_10
REMARK    4  A    between atoms: C_6  and  C_8
REMARK    5  A    between atoms: C_6  and  C_9
REMARK    6  A    between atoms: C_12  and  N_31
REMARK    7  A    between atoms: C_13  and  N_17
REMARK    8  A    between atoms: N_20  and  C_23
REMARK    9  A    between atoms: C_26  and  O_29
REMARK   10  A    between atoms: O_29  and  C_30
REMARK                            x       y       z     vdW  Elec       q    Type
REMARK                         _______ _______ _______ _____ _____    ______ ____
ROOT
ATOM      1  N   UNL     1       2.650  -0.875  -2.637  0.00  0.00    -0.324 N 
ATOM      2  C   UNL     1       3.831  -0.355  -3.145  0.00  0.00    +0.155 A 
ATOM      3  C   UNL     1       4.349  -0.824  -4.348  0.00  0.00    +0.205 A 
ATOM      4  C   UNL     1       5.537  -0.270  -4.815  0.00  0.00    +0.157 A 
ATOM      5  N   UNL     1       6.130   0.684  -4.099  0.00  0.00    -0.218 NA
ATOM      6  C   UNL     1       5.608   1.101  -2.964  0.00  0.00    +0.225 A 
ATOM      7  N   UNL     1       4.483   0.605  -2.491  0.00  0.00    -0.218 NA
ATOM      8  H   UNL     1       2.181  -1.573  -3.119  0.00  0.00    +0.148 HD
ENDROOT
BRANCH   1  12
ATOM      9  C   UNL     1      -0.033   1.424  -0.007  0.00  0.00    -0.010 C 
ATOM     10  C   UNL     1       0.015  -0.108  -0.017  0.00  0.00    -0.072 C 
ATOM     11  C   UNL     1       0.599  -0.598  -1.338  0.00  0.00    +0.009 C 
ATOM     12  C   UNL     1       2.110  -0.367  -1.369  0.00  0.00    +0.069 C 
ATOM     13  C   UNL     1       2.735  -1.142  -0.209  0.00  0.00    +0.009 C 
ATOM     14  C   UNL     1       2.167  -0.657   1.121  0.00  0.00    -0.072 C 
ATOM     15  N   UNL     1       0.715  -0.622   1.147  0.00  0.00    +0.386 N 
ATOM     16  C   UNL     1       2.764   0.710   1.472  0.00  0.00    -0.010 C 
ATOM     17  C   UNL     1       2.633  -1.649   2.211  0.00  0.00    -0.010 C 
ATOM     18  C   UNL     1      -1.447  -0.607   0.055  0.00  0.00    -0.010 C 
ATOM     19  H   UNL     1       0.422  -0.077   1.964  0.00  0.00    -0.084 HD
ATOM     20  H   UNL     1       0.375  -1.571   1.332  0.00  0.00    -0.084 HD
ENDBRANCH   1  12
BRANCH   4  21
ATOM     21  N   UNL     1       6.094  -0.703  -6.008  0.00  0.00    -0.310 N 
ATOM     22  C   UNL     1       5.826   0.013  -7.263  0.00  0.00    +0.125 C 
ATOM     23  C   UNL     1       7.165   0.406  -7.898  0.00  0.00    +0.124 C 
ATOM     24  N   UNL     1       8.035  -0.778  -7.931  0.00  0.00    -0.327 N 
ATOM     25  C   UNL     1       8.303  -1.495  -6.676  0.00  0.00    +0.124 C 
ATOM     26  C   UNL     1       6.968  -1.884  -6.040  0.00  0.00    +0.125 C 
BRANCH  24  27
ATOM     27  C   UNL     1       8.598  -1.216  -9.135  0.00  0.00    +0.030 A 
ATOM     28  C   UNL     1       9.312  -2.405  -9.176  0.00  0.00    +0.027 A 
ATOM     29  C   UNL     1       9.867  -2.837 -10.365  0.00  0.00    +0.047 A 
ATOM     30  C   UNL     1       9.710  -2.082 -11.518  0.00  0.00    +0.120 A 
ATOM     31  C   UNL     1       8.997  -0.893 -11.478  0.00  0.00    +0.047 A 
ATOM     32  C   UNL     1       8.437  -0.463 -10.291  0.00  0.00    +0.027 A 
BRANCH  30  33
ATOM     33  O   UNL     1      10.256  -2.508 -12.688  0.00  0.00    -0.495 OA
ATOM     34  C   UNL     1      10.056  -1.681 -13.837  0.00  0.00    +0.277 C 
ENDBRANCH  30  33
ENDBRANCH  24  27
ENDBRANCH   4  21
BRANCH   3  35
ATOM     35  N   UNL     1       3.655  -1.886  -5.111  0.00  0.00    +0.063 N 
ATOM     36  O   UNL     1       2.765  -1.598  -5.876  0.00  0.00    -0.126 OA
ATOM     37  O   UNL     1       3.979  -3.042  -4.968  0.00  0.00    -0.126 OA
ENDBRANCH   3  35
TORSDOF 5
