REMARK  Name = ZINC13059025
REMARK  5 active torsions:
REMARK  status: ('A' for Active; 'I' for Inactive)
REMARK    1  A    between atoms: C_5  and  C_6
REMARK    2  A    between atoms: N_8  and  N_9
REMARK    3  A    between atoms: N_9  and  S_10
REMARK    4  A    between atoms: S_10  and  C_13
REMARK    5  A    between atoms: C_15  and  C_21
REMARK                            x       y       z     vdW  Elec       q    Type
REMARK                         _______ _______ _______ _____ _____    ______ ____
ROOT
ATOM      1  N   UNL     1      -1.272   6.943   1.491  0.00  0.00    -0.108 NA
ATOM      2  H   UNL     1      -1.886   6.723   2.209  0.00  0.00    +0.172 HD
ENDROOT
BRANCH   1   5
ATOM      3  C   UNL     1      -0.515   9.095   2.171  0.00  0.00    +0.265 C 
ATOM      4  O   UNL     1      -1.668   9.416   2.393  0.00  0.00    -0.268 OA
ATOM      5  N   UNL     1      -0.236   7.859   1.712  0.00  0.00    -0.227 N 
ATOM      6  H   UNL     1       0.683   7.604   1.535  0.00  0.00    +0.171 HD
BRANCH   3  11
ATOM      7  C   UNL     1       0.499  11.353   2.863  0.00  0.00    +0.024 A 
ATOM      8  C   UNL     1       1.689  12.069   3.000  0.00  0.00    -0.036 A 
ATOM      9  C   UNL     1       2.835  11.420   2.662  0.00  0.00    -0.006 A 
ATOM     10  S   UNL     1       2.325   9.844   2.169  0.00  0.00    -0.088 S 
ATOM     11  C   UNL     1       0.569  10.054   2.402  0.00  0.00    +0.076 A 
ATOM     12  C   UNL     1       4.048  12.291   2.846  0.00  0.00    +0.043 C 
ATOM     13  C   UNL     1       3.487  13.727   2.935  0.00  0.00    +0.010 C 
ATOM     14  C   UNL     1       2.060  13.480   3.463  0.00  0.00    +0.036 C 
ENDBRANCH   3  11
ENDBRANCH   1   5
BRANCH   1  15
ATOM     15  S   UNL     1      -1.450   6.237   0.003  0.00  0.00    +0.075 S 
ATOM     16  O   UNL     1      -2.643   5.468   0.059  0.00  0.00    -0.152 OA
ATOM     17  O   UNL     1      -0.191   5.666  -0.328  0.00  0.00    -0.152 OA
BRANCH  15  18
ATOM     18  C   UNL     1      -1.737   7.531  -1.157  0.00  0.00    +0.126 A 
ATOM     19  C   UNL     1      -0.821   7.772  -2.159  0.00  0.00    +0.046 A 
ATOM     20  C   UNL     1      -1.050   8.799  -3.078  0.00  0.00    +0.083 A 
ATOM     21  C   UNL     1      -2.205   9.579  -2.972  0.00  0.00    +0.057 A 
ATOM     22  C   UNL     1      -3.117   9.323  -1.968  0.00  0.00    +0.042 A 
ATOM     23  C   UNL     1      -2.883   8.304  -1.061  0.00  0.00    +0.069 A 
ATOM     24 CL   UNL     1      -4.031   7.992   0.204  0.00  0.00    -0.081 Cl
ATOM     25 CL   UNL     1      -2.495  10.862  -4.105  0.00  0.00    -0.083 Cl
BRANCH  20  26
ATOM     26  C   UNL     1      -0.073   9.063  -4.153  0.00  0.00    +0.388 C 
ATOM     27  O   UNL     1      -0.274   9.956  -4.951  0.00  0.00    -0.241 OA
ATOM     28  O   UNL     1       1.042   8.312  -4.248  0.00  0.00    -0.241 OA
ENDBRANCH  20  26
ENDBRANCH  15  18
ENDBRANCH   1  15
TORSDOF 5
