REMARK  Name = ZINC12309932
REMARK  12 active torsions:
REMARK  status: ('A' for Active; 'I' for Inactive)
REMARK    1  A    between atoms: C_1  and  C_2
REMARK    2  A    between atoms: C_2  and  C_3
REMARK    3  A    between atoms: C_2  and  C_4
REMARK    4  A    between atoms: C_10  and  N_11
REMARK    5  A    between atoms: N_11  and  O_12
REMARK    6  A    between atoms: O_12  and  C_13
REMARK    7  A    between atoms: C_13  and  C_14
REMARK    8  A    between atoms: N_16  and  C_17
REMARK    9  A    between atoms: C_21  and  N_23
REMARK   10  A    between atoms: C_24  and  C_26
REMARK   11  A    between atoms: N_29  and  C_34
REMARK   12  A    between atoms: N_32  and  C_33
REMARK                            x       y       z     vdW  Elec       q    Type
REMARK                         _______ _______ _______ _____ _____    ______ ____
ROOT
ATOM      1  N   UNL     1      -1.119   6.909   1.693  0.00  0.00    -0.264 N 
ATOM      2  H   UNL     1      -1.239   7.899   1.229  0.00  0.00    +0.194 HD
ENDROOT
BRANCH   1   9
ATOM      3  C   UNL     1       1.304   7.042   1.453  0.00  0.00    -0.003 A 
ATOM      4  C   UNL     1       2.465   6.402   1.662  0.00  0.00    +0.090 A 
ATOM      5  N   UNL     1       2.506   5.089   2.050  0.00  0.00    -0.347 N 
ATOM      6  H   UNL     1       3.442   4.659   2.436  0.00  0.00    +0.167 HD
ATOM      7  C   UNL     1       1.416   4.280   1.976  0.00  0.00    +0.129 A 
ATOM      8  C   UNL     1       0.154   4.833   1.780  0.00  0.00    +0.106 A 
ATOM      9  C   UNL     1       0.043   6.298   1.645  0.00  0.00    +0.082 A 
ATOM     10  C   UNL     1      -0.976   3.985   1.714  0.00  0.00    +0.268 A 
ATOM     11  O   UNL     1      -2.089   4.447   1.546  0.00  0.00    -0.267 OA
ATOM     12  N   UNL     1      -0.795   2.652   1.836  0.00  0.00    -0.263 N 
ATOM     13  C   UNL     1       0.433   2.139   2.027  0.00  0.00    +0.333 A 
ATOM     14  O   UNL     1       0.558   0.935   2.136  0.00  0.00    -0.246 OA
ATOM     15  N   UNL     1       1.528   2.918   2.097  0.00  0.00    -0.282 N 
ATOM     16  C   UNL     1       2.845   2.310   2.302  0.00  0.00    +0.155 C 
ATOM     17  C   UNL     1      -1.951   1.755   1.765  0.00  0.00    +0.157 C 
BRANCH   3  19
ATOM     18  C   UNL     1       1.185   9.380   2.273  0.00  0.00    +0.012 C 
ATOM     19  C   UNL     1       1.287   8.489   1.033  0.00  0.00    +0.016 C 
ATOM     20  C   UNL     1       2.576   8.815   0.276  0.00  0.00    +0.012 C 
ENDBRANCH   3  19
ENDBRANCH   1   9
BRANCH   1  21
ATOM     21  O   UNL     1      -2.217   6.293   2.342  0.00  0.00    -0.265 OA
BRANCH  21  22
ATOM     22  C   UNL     1      -3.416   7.070   2.318  0.00  0.00    +0.288 C 
BRANCH  22  23
ATOM     23  C   UNL     1      -4.513   6.322   3.032  0.00  0.00    +0.246 C 
ATOM     24  O   UNL     1      -4.289   5.232   3.515  0.00  0.00    -0.273 OA
ATOM     25  N   UNL     1      -5.742   6.865   3.136  0.00  0.00    -0.283 N 
ATOM     26  H   UNL     1      -5.967   7.816   2.631  0.00  0.00    +0.155 HD
BRANCH  25  27
ATOM     27  C   UNL     1      -6.731   6.220   3.885  0.00  0.00    +0.035 A 
ATOM     28  C   UNL     1      -7.653   6.966   4.609  0.00  0.00    +0.023 A 
ATOM     29  C   UNL     1      -8.630   6.329   5.349  0.00  0.00    +0.004 A 
ATOM     30  C   UNL     1      -8.695   4.949   5.372  0.00  0.00    +0.023 A 
ATOM     31  C   UNL     1      -7.776   4.197   4.650  0.00  0.00    +0.035 A 
ATOM     32  C   UNL     1      -6.796   4.834   3.903  0.00  0.00    +0.046 A 
BRANCH  31  33
ATOM     33  N   UNL     1      -7.842   2.800   4.674  0.00  0.00    -0.286 N 
ATOM     34  C   UNL     1      -8.201   2.161   5.805  0.00  0.00    +0.214 C 
ATOM     35  O   UNL     1      -8.544   2.798   6.778  0.00  0.00    -0.276 OA
ATOM     36  C   UNL     1      -8.174   0.655   5.860  0.00  0.00    +0.109 C 
ATOM     37  H   UNL     1      -7.602   2.223   3.768  0.00  0.00    +0.155 HD
ENDBRANCH  31  33
ENDBRANCH  25  27
ENDBRANCH  22  23
ENDBRANCH  21  22
ENDBRANCH   1  21
TORSDOF 7
