REMARK  Name = ZINC36643289
REMARK  10 active torsions:
REMARK  status: ('A' for Active; 'I' for Inactive)
REMARK    1  A    between atoms: C_1  and  C_2
REMARK    2  A    between atoms: N_8  and  S_9
REMARK    3  A    between atoms: S_9  and  C_12
REMARK    4  A    between atoms: C_15  and  C_18
REMARK    5  A    between atoms: N_20  and  C_21
REMARK    6  A    between atoms: C_21  and  C_22
REMARK    7  A    between atoms: C_22  and  C_23
REMARK    8  A    between atoms: C_23  and  N_24
REMARK    9  A    between atoms: N_24  and  C_25
REMARK   10  A    between atoms: N_24  and  C_26
REMARK                            x       y       z     vdW  Elec       q    Type
REMARK                         _______ _______ _______ _____ _____    ______ ____
ROOT
ATOM      1  C   UNL     1      -2.944   2.925   5.839  0.00  0.00    +0.252 C 
ATOM      2  O   UNL     1      -3.555   3.901   5.450  0.00  0.00    -0.270 OA
ATOM      3  N   UNL     1      -3.151   2.452   7.084  0.00  0.00    -0.246 N 
ATOM      4  C   UNL     1      -4.152   2.995   7.873  0.00  0.00    +0.168 A 
ATOM      5  N   UNL     1      -4.498   2.676   9.098  0.00  0.00    -0.224 NA
ATOM      6  C   UNL     1      -5.504   3.296   9.753  0.00  0.00    +0.080 A 
ATOM      7  C   UNL     1      -5.974   3.050  11.064  0.00  0.00    +0.032 A 
ATOM      8  C   UNL     1      -7.015   3.774  11.582  0.00  0.00    +0.040 A 
ATOM      9  C   UNL     1      -7.644   4.770  10.845  0.00  0.00    +0.125 A 
ATOM     10  C   UNL     1      -7.209   5.037   9.558  0.00  0.00    +0.055 A 
ATOM     11  C   UNL     1      -6.167   4.315   9.033  0.00  0.00    +0.043 A 
ATOM     12  S   UNL     1      -5.295   4.312   7.484  0.00  0.00    -0.052 S 
ATOM     13  F   UNL     1      -8.670   5.470  11.379  0.00  0.00    -0.205 F 
ENDROOT
BRANCH   1  17
ATOM     14  C   UNL     1      -0.159   1.001   3.274  0.00  0.00    +0.106 A 
ATOM     15  C   UNL     1       0.179   1.254   4.591  0.00  0.00    +0.029 A 
ATOM     16  C   UNL     1      -0.721   1.879   5.430  0.00  0.00    +0.015 A 
ATOM     17  C   UNL     1      -1.975   2.256   4.946  0.00  0.00    +0.037 A 
ATOM     18  C   UNL     1      -2.310   1.997   3.616  0.00  0.00    +0.015 A 
ATOM     19  C   UNL     1      -1.398   1.376   2.787  0.00  0.00    +0.029 A 
BRANCH  14  20
ATOM     20  S   UNL     1       0.997   0.203   2.210  0.00  0.00    +0.061 S 
ATOM     21  O   UNL     1       0.262  -0.255   1.083  0.00  0.00    -0.153 OA
ATOM     22  O   UNL     1       1.764  -0.671   3.026  0.00  0.00    -0.153 OA
BRANCH  20  29
ATOM     23  C   UNL     1       0.330   1.757  -0.060  0.00  0.00    +0.026 C 
ATOM     24  C   UNL     1       1.659   2.233   0.531  0.00  0.00    +0.077 C 
ATOM     25  C   UNL     1       2.752   2.161  -0.540  0.00  0.00    +0.020 C 
ATOM     26  C   UNL     1       4.103   2.505   0.092  0.00  0.00    +0.003 C 
ATOM     27  C   UNL     1       4.430   1.486   1.186  0.00  0.00    +0.017 C 
ATOM     28  C   UNL     1       3.356   1.550   2.276  0.00  0.00    +0.110 C 
ATOM     29  N   UNL     1       2.036   1.367   1.655  0.00  0.00    -0.174 NA
ENDBRANCH  20  29
ENDBRANCH  14  20
ENDBRANCH   1  17
BRANCH   3  30
ATOM     30  C   UNL     1      -2.318   1.365   7.603  0.00  0.00    +0.114 C 
BRANCH  30  31
ATOM     31  C   UNL     1      -1.216   1.946   8.490  0.00  0.00    +0.001 C 
BRANCH  31  32
ATOM     32  C   UNL     1      -0.254   0.830   8.905  0.00  0.00    -0.078 C 
BRANCH  32  33
ATOM     33  N   UNL     1       0.804   1.388   9.757  0.00  0.00    +0.376 N 
ATOM     34  C   UNL     1       0.216   1.881  11.010  0.00  0.00    -0.097 C 
ATOM     35  C   UNL     1       1.792   0.343  10.058  0.00  0.00    -0.097 C 
ATOM     36  H   UNL     1       1.257   2.150   9.275  0.00  0.00    -0.083 HD
ENDBRANCH  32  33
ENDBRANCH  31  32
ENDBRANCH  30  31
ENDBRANCH   3  30
TORSDOF 7
