REMARK  Name = ZINC58954482
REMARK  15 active torsions:
REMARK  status: ('A' for Active; 'I' for Inactive)
REMARK    1  A    between atoms: C_1  and  C_2
REMARK    2  A    between atoms: C_2  and  N_3
REMARK    3  A    between atoms: N_3  and  C_4
REMARK    4  A    between atoms: N_3  and  C_6
REMARK    5  A    between atoms: C_4  and  C_5
REMARK    6  A    between atoms: C_6  and  C_8
REMARK    7  A    between atoms: C_6  and  C_28
REMARK    8  A    between atoms: C_8  and  N_9
REMARK    9  A    between atoms: C_10  and  C_12
REMARK   10  A    between atoms: C_12  and  C_14
REMARK   11  A    between atoms: C_12  and  N_17
REMARK   12  A    between atoms: C_14  and  C_15
REMARK   13  A    between atoms: C_14  and  C_16
REMARK   14  A    between atoms: N_20  and  C_21
REMARK   15  A    between atoms: C_21  and  C_22
REMARK                            x       y       z     vdW  Elec       q    Type
REMARK                         _______ _______ _______ _____ _____    ______ ____
ROOT
ATOM      1  N   UNL     1       2.242  -2.072  -2.627  0.00  0.00    -0.315 N 
ATOM      2  C   UNL     1       2.963  -2.382  -3.722  0.00  0.00    +0.234 C 
ATOM      3  O   UNL     1       2.403  -2.749  -4.734  0.00  0.00    -0.274 OA
ATOM      4  H   UNL     1       2.682  -1.710  -1.842  0.00  0.00    +0.149 HD
ENDROOT
BRANCH   1   5
ATOM      5  C   UNL     1       0.792  -2.283  -2.621  0.00  0.00    +0.093 C 
BRANCH   5   6
ATOM      6  C   UNL     1       0.199  -1.713  -1.331  0.00  0.00    -0.020 C 
BRANCH   6   7
ATOM      7  C   UNL     1      -1.250  -2.114  -1.224  0.00  0.00    -0.052 A 
ATOM      8  C   UNL     1      -1.628  -3.171  -0.416  0.00  0.00    +0.009 A 
ATOM      9  C   UNL     1      -2.939  -3.505  -0.343  0.00  0.00    +0.045 A 
ATOM     10  S   UNL     1      -3.688  -2.309  -1.437  0.00  0.00    -0.105 S 
ATOM     11  C   UNL     1      -2.203  -1.440  -1.913  0.00  0.00    +0.047 A 
ENDBRANCH   6   7
BRANCH   6  12
ATOM     12  N   UNL     1       0.302  -0.248  -1.350  0.00  0.00    +0.385 N 
ATOM     13  H   UNL     1      -0.114   0.107  -2.198  0.00  0.00    -0.081 HD
BRANCH  12  15
ATOM     14  C   UNL     1      -0.420   1.835  -0.283  0.00  0.00    -0.017 C 
ATOM     15  C   UNL     1      -0.405   0.308  -0.188  0.00  0.00    -0.081 C 
ENDBRANCH  12  15
BRANCH  12  16
ATOM     16  C   UNL     1       1.716   0.144  -1.297  0.00  0.00    -0.081 C 
ATOM     17  C   UNL     1       2.373  -0.482  -0.065  0.00  0.00    -0.017 C 
ENDBRANCH  12  16
ENDBRANCH   6  12
ENDBRANCH   5   6
ENDBRANCH   1   5
BRANCH   2  18
ATOM     18  C   UNL     1       4.466  -2.271  -3.691  0.00  0.00    +0.163 C 
BRANCH  18  19
ATOM     19  N   UNL     1       4.966  -2.025  -5.046  0.00  0.00    -0.288 N 
ATOM     20  C   UNL     1       6.149  -1.407  -5.225  0.00  0.00    +0.300 C 
ATOM     21  O   UNL     1       6.803  -1.053  -4.263  0.00  0.00    -0.253 OA
ATOM     22  N   UNL     1       6.609  -1.180  -6.472  0.00  0.00    -0.295 N 
ATOM     23  H   UNL     1       4.445  -2.308  -5.814  0.00  0.00    +0.151 HD
ATOM     24  H   UNL     1       6.088  -1.463  -7.240  0.00  0.00    +0.151 HD
BRANCH  22  25
ATOM     25  C   UNL     1       7.896  -0.508  -6.667  0.00  0.00    +0.141 C 
BRANCH  25  26
ATOM     26  C   UNL     1       8.177  -0.378  -8.142  0.00  0.00    -0.030 A 
ATOM     27  C   UNL     1       8.857  -1.382  -8.807  0.00  0.00    +0.005 A 
ATOM     28  C   UNL     1       9.114  -1.263 -10.160  0.00  0.00    +0.000 A 
ATOM     29  C   UNL     1       8.691  -0.141 -10.848  0.00  0.00    +0.000 A 
ATOM     30  C   UNL     1       8.011   0.862 -10.183  0.00  0.00    +0.000 A 
ATOM     31  C   UNL     1       7.750   0.741  -8.831  0.00  0.00    +0.005 A 
ENDBRANCH  25  26
ENDBRANCH  22  25
ENDBRANCH  18  19
BRANCH  18  32
ATOM     32  C   UNL     1       5.062  -3.575  -3.156  0.00  0.00    +0.012 C 
ATOM     33  C   UNL     1       6.578  -3.423  -3.017  0.00  0.00    +0.009 C 
ATOM     34  C   UNL     1       4.453  -3.891  -1.789  0.00  0.00    +0.009 C 
ENDBRANCH  18  32
ENDBRANCH   2  18
TORSDOF 11
