REMARK  Name = ZINC37055879
REMARK  5 active torsions:
REMARK  status: ('A' for Active; 'I' for Inactive)
REMARK    1  A    between atoms: C_3  and  C_20
REMARK    2  A    between atoms: C_5  and  N_7
REMARK    3  A    between atoms: N_7  and  S_8
REMARK    4  A    between atoms: S_8  and  C_11
REMARK    5  A    between atoms: C_12  and  N_19
REMARK                            x       y       z     vdW  Elec       q    Type
REMARK                         _______ _______ _______ _____ _____    ______ ____
ROOT
ATOM      1  S   UNL     1      -0.982  -3.227  -0.002  0.00  0.00    +0.094 S 
ATOM      2  O   UNL     1      -1.730  -3.188   1.206  0.00  0.00    -0.148 OA
ATOM      3  O   UNL     1      -1.589  -3.079  -1.278  0.00  0.00    -0.148 OA
ENDROOT
BRANCH   1   4
ATOM      4  C   UNL     1      -0.138  -4.773  -0.021  0.00  0.00    +0.145 A 
ATOM      5  C   UNL     1       0.259  -5.333  -1.229  0.00  0.00    +0.054 A 
ATOM      6  C   UNL     1       0.925  -6.552  -1.241  0.00  0.00    +0.040 A 
ATOM      7  C   UNL     1       1.191  -7.204  -0.052  0.00  0.00    +0.021 A 
ATOM      8  C   UNL     1       0.794  -6.644   1.150  0.00  0.00    +0.032 A 
ATOM      9  C   UNL     1       0.135  -5.427   1.165  0.00  0.00    +0.047 A 
ATOM     10 BR   UNL     1      -0.398  -4.662   2.810  0.00  0.00    -0.048 Br
ATOM     11 BR   UNL     1       2.097  -8.864  -0.067  0.00  0.00    -0.050 Br
BRANCH   5  12
ATOM     12  N   UNL     1      -0.011  -4.672  -2.429  0.00  0.00    -0.356 N 
ATOM     13  H   UNL     1      -0.165  -3.714  -2.432  0.00  0.00    +0.142 HD
ATOM     14  H   UNL     1      -0.046  -5.171  -3.261  0.00  0.00    +0.142 HD
ENDBRANCH   5  12
ENDBRANCH   1   4
BRANCH   1  15
ATOM     15  N   UNL     1       0.169  -2.042   0.116  0.00  0.00    -0.098 NA
BRANCH  15  20
ATOM     16  C   UNL     1      -1.942   0.971   0.127  0.00  0.00    +0.003 A 
ATOM     17  C   UNL     1      -0.991   1.966   0.224  0.00  0.00    +0.019 A 
ATOM     18  C   UNL     1       0.364   1.634   0.287  0.00  0.00    +0.054 A 
ATOM     19  C   UNL     1       0.750   0.293   0.251  0.00  0.00    +0.045 A 
ATOM     20  C   UNL     1      -0.213  -0.699   0.153  0.00  0.00    +0.076 A 
ATOM     21  C   UNL     1      -1.559  -0.356   0.091  0.00  0.00    +0.027 A 
BRANCH  18  22
ATOM     22  C   UNL     1       1.353   2.664   0.388  0.00  0.00    +0.099 C 
ATOM     23  N   UNL     1       2.138   3.482   0.468  0.00  0.00    -0.191 NA
ENDBRANCH  18  22
ENDBRANCH  15  20
ENDBRANCH   1  15
TORSDOF 5
