REMARK  Name = ZINC22092950
REMARK  16 active torsions:
REMARK  status: ('A' for Active; 'I' for Inactive)
REMARK    1  A    between atoms: C_1  and  C_2
REMARK    2  A    between atoms: C_2  and  C_3
REMARK    3  A    between atoms: C_2  and  C_4
REMARK    4  A    between atoms: C_4  and  N_5
REMARK    5  A    between atoms: C_6  and  C_28
REMARK    6  A    between atoms: C_9  and  S_10
REMARK    7  A    between atoms: S_10  and  C_11
REMARK    8  A    between atoms: C_11  and  C_12
REMARK    9  A    between atoms: N_17  and  C_20
REMARK   10  A    between atoms: C_20  and  C_21
REMARK   11  A    between atoms: N_23  and  C_24
REMARK   12  A    between atoms: C_24  and  C_25
REMARK   13  A    between atoms: C_24  and  C_26
REMARK   14  A    between atoms: C_24  and  C_27
REMARK   15  A    between atoms: C_28  and  C_29
REMARK   16  A    between atoms: C_29  and  C_30
REMARK                            x       y       z     vdW  Elec       q    Type
REMARK                         _______ _______ _______ _____ _____    ______ ____
ROOT
ATOM      1  C   UNL     1       1.756   2.096  -0.004  0.00  0.00    +0.173 C 
ENDROOT
BRANCH   1   2
ATOM      2  C   UNL     1       1.984   3.586   0.002  0.00  0.00    +0.226 C 
ATOM      3  O   UNL     1       1.037   4.344   0.015  0.00  0.00    -0.275 OA
ATOM      4  N   UNL     1       3.240   4.076  -0.007  0.00  0.00    -0.304 N 
ATOM      5  C   UNL     1       4.402   3.174  -0.017  0.00  0.00    +0.089 C 
ATOM      6  C   UNL     1       5.333   3.601  -1.162  0.00  0.00    -0.059 C 
ATOM      7  N   UNL     1       5.656   5.027  -1.018  0.00  0.00    +0.387 N 
ATOM      8  C   UNL     1       4.452   5.861  -1.141  0.00  0.00    -0.059 C 
ATOM      9  C   UNL     1       3.484   5.526  -0.002  0.00  0.00    +0.089 C 
ATOM     10  H   UNL     1       6.065   5.177  -0.008  0.00  0.00    -0.081 HD
BRANCH   7  11
ATOM     11  C   UNL     1       6.681   5.436  -1.987  0.00  0.00    +0.019 C 
BRANCH  11  12
ATOM     12  C   UNL     1       7.977   4.734  -1.674  0.00  0.00    +0.197 C 
ATOM     13  O   UNL     1       8.041   3.969  -0.735  0.00  0.00    -0.278 OA
ATOM     14  N   UNL     1       9.066   4.957  -2.436  0.00  0.00    -0.312 N 
ATOM     15  H   UNL     1       9.008   5.651  -3.288  0.00  0.00    +0.149 HD
BRANCH  14  16
ATOM     16  C   UNL     1      10.326   4.275  -2.131  0.00  0.00    +0.026 C 
ATOM     17  C   UNL     1      10.120   2.761  -2.215  0.00  0.00    +0.031 C 
ATOM     18  C   UNL     1      11.394   4.701  -3.141  0.00  0.00    +0.031 C 
ATOM     19  C   UNL     1      10.781   4.651  -0.720  0.00  0.00    +0.031 C 
ENDBRANCH  14  16
ENDBRANCH  11  12
ENDBRANCH   7  11
ENDBRANCH   1   2
BRANCH   1  20
ATOM     20  S   UNL     1      -0.022   1.758   0.012  0.00  0.00    -0.077 S 
BRANCH  20  25
ATOM     21  N   UNL     1      -1.085  -0.831   0.013  0.00  0.00    -0.306 N 
ATOM     22  C   UNL     1      -0.582  -2.103  -0.004  0.00  0.00    +0.135 A 
ATOM     23  N   UNL     1       0.717  -2.007  -0.015  0.00  0.00    -0.134 NA
ATOM     24  N   UNL     1       1.068  -0.770  -0.012  0.00  0.00    -0.122 NA
ATOM     25  C   UNL     1       0.002  -0.004   0.002  0.00  0.00    +0.192 A 
BRANCH  21  26
ATOM     26  C   UNL     1      -2.495  -0.437   0.036  0.00  0.00    +0.128 C 
BRANCH  26  28
ATOM     27  C   UNL     1      -2.979  -1.658  -2.090  0.00  0.00    +0.009 C 
ATOM     28  C   UNL     1      -3.008  -0.293  -1.398  0.00  0.00    +0.003 C 
ATOM     29  C   UNL     1      -4.442   0.238  -1.377  0.00  0.00    +0.009 C 
ENDBRANCH  26  28
ENDBRANCH  21  26
BRANCH  22  30
ATOM     30  C   UNL     1      -1.383  -3.379  -0.004  0.00  0.00    +0.085 C 
BRANCH  30  31
ATOM     31  C   UNL     1      -1.642  -3.819   1.439  0.00  0.00    +0.103 C 
BRANCH  31  32
ATOM     32  C   UNL     1      -2.443  -5.095   1.439  0.00  0.00    +0.211 C 
ATOM     33  O   UNL     1      -2.775  -5.603   0.389  0.00  0.00    -0.276 OA
ATOM     34  N   UNL     1      -2.791  -5.672   2.607  0.00  0.00    -0.329 N 
ATOM     35  H   UNL     1      -3.376  -6.604   2.607  0.00  0.00    +0.145 HD
ATOM     36  H   UNL     1      -2.490  -5.211   3.559  0.00  0.00    +0.145 HD
ENDBRANCH  31  32
ENDBRANCH  30  31
ENDBRANCH  22  30
ENDBRANCH  20  25
ENDBRANCH   1  20
TORSDOF 11
