REMARK  Name = ZINC08890179
REMARK  7 active torsions:
REMARK  status: ('A' for Active; 'I' for Inactive)
REMARK    1  A    between atoms: C_3  and  N_9
REMARK    2  A    between atoms: C_10  and  C_12
REMARK    3  A    between atoms: C_12  and  O_13
REMARK    4  A    between atoms: O_13  and  C_14
REMARK    5  A    between atoms: C_14  and  C_16
REMARK    6  A    between atoms: C_16  and  C_17
REMARK    7  A    between atoms: C_17  and  C_18
REMARK                            x       y       z     vdW  Elec       q    Type
REMARK                         _______ _______ _______ _____ _____    ______ ____
ROOT
ATOM      1  C   UNL     1      -2.097   8.221  -4.646  0.00  0.00    +0.128 C 
ENDROOT
BRANCH   1   2
ATOM      2  C   UNL     1      -2.406   9.228  -5.725  0.00  0.00    +0.308 C 
ATOM      3  O   UNL     1      -2.543   8.864  -6.869  0.00  0.00    -0.251 OA
BRANCH   2   4
ATOM      4  O   UNL     1      -2.528  10.528  -5.414  0.00  0.00    -0.455 OA
BRANCH   4   5
ATOM      5  C   UNL     1      -2.826  11.441  -6.503  0.00  0.00    +0.328 C 
BRANCH   5   7
ATOM      6  N   UNL     1      -3.198  13.867  -6.804  0.00  0.00    -0.281 N 
ATOM      7  C   UNL     1      -2.927  12.846  -5.968  0.00  0.00    +0.255 C 
ATOM      8  O   UNL     1      -2.763  13.057  -4.785  0.00  0.00    -0.272 OA
ATOM      9  H   UNL     1      -3.264  13.709  -7.759  0.00  0.00    +0.155 HD
BRANCH   6  12
ATOM     10  C   UNL     1      -2.839  16.857  -4.693  0.00  0.00    +0.003 A 
ATOM     11  C   UNL     1      -2.653  15.583  -5.194  0.00  0.00    +0.025 A 
ATOM     12  C   UNL     1      -3.384  15.158  -6.295  0.00  0.00    +0.053 A 
ATOM     13  C   UNL     1      -4.296  16.018  -6.894  0.00  0.00    +0.080 A 
ATOM     14  C   UNL     1      -4.482  17.290  -6.384  0.00  0.00    +0.061 A 
ATOM     15  C   UNL     1      -3.751  17.710  -5.286  0.00  0.00    +0.021 A 
ATOM     16 CL   UNL     1      -5.627  18.364  -7.126  0.00  0.00    -0.082 Cl
ATOM     17 CL   UNL     1      -5.208  15.494  -8.275  0.00  0.00    -0.080 Cl
ENDBRANCH   6  12
ENDBRANCH   5   7
ENDBRANCH   4   5
ENDBRANCH   2   4
ENDBRANCH   1   2
BRANCH   1  18
ATOM     18  C   UNL     1      -2.011   6.824  -5.263  0.00  0.00    +0.085 C 
BRANCH  18  19
ATOM     19  C   UNL     1      -1.702   5.817  -4.184  0.00  0.00    +0.111 A 
ATOM     20  N   UNL     1      -1.585   4.513  -4.532  0.00  0.00    -0.310 N 
ATOM     21  H   UNL     1      -1.703   4.270  -5.463  0.00  0.00    +0.170 HD
ATOM     22  C   UNL     1      -1.309   3.532  -3.639  0.00  0.00    +0.260 A 
ATOM     23  O   UNL     1      -1.206   2.364  -3.971  0.00  0.00    -0.267 OA
ATOM     24  C   UNL     1      -1.146   3.957  -2.278  0.00  0.00    +0.075 A 
ATOM     25  C   UNL     1      -0.850   3.115  -1.133  0.00  0.00    -0.023 A 
ATOM     26  C   UNL     1      -0.739   3.736   0.065  0.00  0.00    -0.004 A 
ATOM     27  S   UNL     1      -1.022   5.455  -0.275  0.00  0.00    -0.073 S 
ATOM     28  C   UNL     1      -1.288   5.338  -2.016  0.00  0.00    +0.116 A 
ATOM     29  N   UNL     1      -1.559   6.245  -2.949  0.00  0.00    -0.227 NA
ATOM     30  C   UNL     1      -0.443   3.105   1.390  0.00  0.00    +0.043 C 
ATOM     31  C   UNL     1      -0.648   1.588   1.262  0.00  0.00    +0.005 C 
ATOM     32  C   UNL     1       0.071   1.103   0.000  0.00  0.00    +0.005 C 
ATOM     33  C   UNL     1      -0.666   1.603  -1.242  0.00  0.00    +0.037 C 
ENDBRANCH  18  19
ENDBRANCH   1  18
TORSDOF 7
