REMARK  Name = ZINC39693323
REMARK  12 active torsions:
REMARK  status: ('A' for Active; 'I' for Inactive)
REMARK    1  A    between atoms: C_1  and  C_2
REMARK    2  A    between atoms: C_2  and  C_3
REMARK    3  A    between atoms: C_3  and  C_4
REMARK    4  A    between atoms: C_4  and  C_5
REMARK    5  A    between atoms: C_5  and  C_7
REMARK    6  A    between atoms: C_5  and  C_8
REMARK    7  A    between atoms: C_12  and  C_21
REMARK    8  A    between atoms: N_23  and  C_24
REMARK    9  A    between atoms: C_24  and  C_25
REMARK   10  A    between atoms: C_25  and  N_26
REMARK   11  A    between atoms: C_27  and  C_29
REMARK   12  A    between atoms: C_29  and  C_30
REMARK                            x       y       z     vdW  Elec       q    Type
REMARK                         _______ _______ _______ _____ _____    ______ ____
ROOT
ATOM      1  C   UNL     1       1.208  -4.354   6.644  0.00  0.00    +0.218 C 
ATOM      2  O   UNL     1       0.476  -3.575   6.070  0.00  0.00    -0.275 OA
ATOM      3  N   UNL     1       1.015  -4.622   7.950  0.00  0.00    -0.314 N 
ATOM      4  H   UNL     1       1.600  -5.245   8.409  0.00  0.00    +0.149 HD
ENDROOT
BRANCH   1   9
ATOM      5  C   UNL     1       1.597  -3.794   2.569  0.00  0.00    +0.218 C 
ATOM      6  O   UNL     1       1.013  -4.316   1.643  0.00  0.00    -0.275 OA
ATOM      7  N   UNL     1       2.110  -4.555   3.556  0.00  0.00    -0.300 N 
ATOM      8  C   UNL     1       2.844  -4.104   4.762  0.00  0.00    +0.121 C 
ATOM      9  C   UNL     1       2.333  -5.021   5.896  0.00  0.00    +0.100 C 
ATOM     10  C   UNL     1       1.827  -6.285   5.180  0.00  0.00    -0.004 C 
ATOM     11  C   UNL     1       2.063  -6.031   3.684  0.00  0.00    +0.115 C 
ATOM     12  C   UNL     1       2.618  -7.506   5.641  0.00  0.00    -0.010 C 
ATOM     13  C   UNL     1       2.058  -8.758   4.959  0.00  0.00    -0.082 C 
ATOM     14  N   UNL     1       0.639  -8.911   5.301  0.00  0.00    +0.379 N 
ATOM     15  C   UNL     1      -0.129  -7.777   4.773  0.00  0.00    -0.082 C 
ATOM     16  C   UNL     1       0.338  -6.484   5.447  0.00  0.00    -0.010 C 
ATOM     17  H   UNL     1       0.288  -9.768   4.901  0.00  0.00    -0.086 HD
ATOM     18  H   UNL     1       0.538  -8.945   6.305  0.00  0.00    -0.086 HD
BRANCH   5  19
ATOM     19  C   UNL     1       1.748  -2.295   2.616  0.00  0.00    +0.072 C 
ATOM     20  C   UNL     1       3.235  -1.933   2.627  0.00  0.00    +0.017 C 
BRANCH  19  21
ATOM     21  C   UNL     1       1.081  -1.676   1.387  0.00  0.00    +0.012 C 
BRANCH  21  22
ATOM     22  C   UNL     1       1.125  -0.151   1.496  0.00  0.00    +0.000 C 
BRANCH  22  24
ATOM     23  C   UNL     1       0.502   1.994   0.376  0.00  0.00    +0.004 C 
ATOM     24  C   UNL     1       0.458   0.468   0.266  0.00  0.00    -0.003 C 
ENDBRANCH  22  24
ENDBRANCH  21  22
ENDBRANCH  19  21
ENDBRANCH   5  19
ENDBRANCH   1   9
BRANCH   3  25
ATOM     25  C   UNL     1      -0.079  -3.973   8.678  0.00  0.00    +0.123 C 
BRANCH  25  26
ATOM     26  C   UNL     1      -0.076  -4.448  10.132  0.00  0.00    +0.123 C 
BRANCH  26  27
ATOM     27  N   UNL     1      -1.169  -3.799  10.860  0.00  0.00    -0.314 N 
ATOM     28  C   UNL     1      -1.362  -4.067  12.166  0.00  0.00    +0.217 C 
ATOM     29  O   UNL     1      -0.631  -4.846  12.740  0.00  0.00    -0.275 OA
ATOM     30  H   UNL     1      -1.755  -3.176  10.401  0.00  0.00    +0.149 HD
BRANCH  28  31
ATOM     31  C   UNL     1      -2.487  -3.399  12.915  0.00  0.00    +0.131 C 
BRANCH  31  32
ATOM     32  C   UNL     1      -2.485  -3.867  14.347  0.00  0.00    -0.031 A 
ATOM     33  C   UNL     1      -3.276  -4.907  14.729  0.00  0.00    +0.005 A 
ATOM     34  C   UNL     1      -3.287  -5.353  16.049  0.00  0.00    +0.001 A 
ATOM     35  C   UNL     1      -2.507  -4.761  16.995  0.00  0.00    +0.008 A 
ATOM     36  C   UNL     1      -1.677  -3.685  16.639  0.00  0.00    -0.018 A 
ATOM     37  C   UNL     1      -1.661  -3.235  15.295  0.00  0.00    -0.014 A 
ATOM     38  C   UNL     1      -0.827  -2.163  14.937  0.00  0.00    +0.009 A 
ATOM     39  C   UNL     1      -0.043  -1.575  15.882  0.00  0.00    +0.001 A 
ATOM     40  C   UNL     1      -0.054  -2.022  17.202  0.00  0.00    +0.001 A 
ATOM     41  C   UNL     1      -0.859  -3.049  17.588  0.00  0.00    +0.008 A 
ENDBRANCH  31  32
ENDBRANCH  28  31
ENDBRANCH  26  27
ENDBRANCH  25  26
ENDBRANCH   3  25
TORSDOF 10
