REMARK  Name = ZINC47326414
REMARK  7 active torsions:
REMARK  status: ('A' for Active; 'I' for Inactive)
REMARK    1  A    between atoms: C_1  and  C_2
REMARK    2  A    between atoms: C_7  and  N_8
REMARK    3  A    between atoms: N_11  and  C_12
REMARK    4  A    between atoms: C_12  and  C_13
REMARK    5  A    between atoms: C_13  and  C_14
REMARK    6  A    between atoms: C_14  and  N_15
REMARK    7  A    between atoms: C_19  and  C_20
REMARK                            x       y       z     vdW  Elec       q    Type
REMARK                         _______ _______ _______ _____ _____    ______ ____
ROOT
ATOM      1  N   UNL     1       0.025  -0.014   2.417  0.00  0.00    -0.269 N 
ATOM      2  C   UNL     1      -0.056  -0.694   3.578  0.00  0.00    +0.304 C 
ATOM      3  O   UNL     1      -0.040  -1.909   3.574  0.00  0.00    -0.253 OA
ATOM      4  N   UNL     1      -0.156  -0.025   4.745  0.00  0.00    -0.299 N 
ATOM      5  H   UNL     1       0.078   0.954   2.425  0.00  0.00    +0.156 HD
ATOM      6  H   UNL     1      -0.169   0.944   4.748  0.00  0.00    +0.150 HD
ENDROOT
BRANCH   1  13
ATOM      7  C   UNL     1      -1.266   1.182   0.182  0.00  0.00    +0.046 C 
ATOM      8  C   UNL     1      -0.585  -0.158   0.085  0.00  0.00    -0.028 A 
ATOM      9  C   UNL     1      -0.570  -0.841  -1.116  0.00  0.00    +0.019 A 
ATOM     10  C   UNL     1       0.055  -2.071  -1.206  0.00  0.00    +0.014 A 
ATOM     11  C   UNL     1       0.667  -2.622  -0.094  0.00  0.00    +0.016 A 
ATOM     12  C   UNL     1       0.655  -1.944   1.109  0.00  0.00    +0.024 A 
ATOM     13  C   UNL     1       0.034  -0.706   1.200  0.00  0.00    +0.038 A 
ATOM     14  I   UNL     1       0.075  -3.103  -3.030  0.00  0.00    -0.044 I 
ENDBRANCH   1  13
BRANCH   4  15
ATOM     15  C   UNL     1      -0.245  -0.764   6.007  0.00  0.00    +0.107 C 
BRANCH  15  16
ATOM     16  C   UNL     1      -0.348   0.224   7.170  0.00  0.00    +0.040 C 
BRANCH  16  17
ATOM     17  C   UNL     1      -0.441  -0.547   8.488  0.00  0.00    +0.124 C 
BRANCH  17  18
ATOM     18  N   UNL     1      -0.540   0.399   9.602  0.00  0.00    -0.336 N 
ATOM     19  C   UNL     1       0.496   0.870  10.363  0.00  0.00    +0.104 A 
ATOM     20  C   UNL     1      -0.036   1.712  11.268  0.00  0.00    +0.101 A 
ATOM     21  N   UNL     1      -1.362   1.755  11.066  0.00  0.00    -0.350 N 
ATOM     22  C   UNL     1      -1.670   0.975  10.066  0.00  0.00    +0.084 A 
ATOM     23  C   UNL     1      -3.057   0.751   9.522  0.00  0.00    +0.084 C 
ATOM     24  H   UNL     1      -1.991   2.285  11.579  0.00  0.00    +0.166 HD
ENDBRANCH  17  18
ENDBRANCH  16  17
ENDBRANCH  15  16
ENDBRANCH   4  15
TORSDOF 5
