REMARK  Name = ZINC45851262
REMARK  8 active torsions:
REMARK  status: ('A' for Active; 'I' for Inactive)
REMARK    1  A    between atoms: C_1  and  N_2
REMARK    2  A    between atoms: N_9  and  C_12
REMARK    3  A    between atoms: C_12  and  C_13
REMARK    4  A    between atoms: C_13  and  C_14
REMARK    5  A    between atoms: N_16  and  C_17
REMARK    6  A    between atoms: C_20  and  N_23
REMARK    7  A    between atoms: N_26  and  C_27
REMARK    8  A    between atoms: C_27  and  C_28
REMARK                            x       y       z     vdW  Elec       q    Type
REMARK                         _______ _______ _______ _____ _____    ______ ____
ROOT
ATOM      1  C   UNL     1       2.944  -4.771  -1.447  0.00  0.00    +0.219 C 
ATOM      2  O   UNL     1       3.342  -5.245  -0.404  0.00  0.00    -0.275 OA
ATOM      3  N   UNL     1       3.350  -5.291  -2.622  0.00  0.00    -0.285 N 
ATOM      4  H   UNL     1       2.980  -4.956  -3.454  0.00  0.00    +0.155 HD
ENDROOT
BRANCH   3   5
ATOM      5  C   UNL     1       4.305  -6.315  -2.642  0.00  0.00    +0.033 A 
ATOM      6  C   UNL     1       5.242  -6.371  -3.666  0.00  0.00    +0.025 A 
ATOM      7  C   UNL     1       6.183  -7.381  -3.685  0.00  0.00    +0.025 A 
ATOM      8  C   UNL     1       6.194  -8.340  -2.681  0.00  0.00    +0.035 A 
ATOM      9  C   UNL     1       5.258  -8.284  -1.658  0.00  0.00    +0.025 A 
ATOM     10  C   UNL     1       4.320  -7.271  -1.635  0.00  0.00    +0.025 A 
BRANCH   8  11
ATOM     11  N   UNL     1       7.149  -9.364  -2.701  0.00  0.00    -0.269 N 
ATOM     12  C   UNL     1       6.824 -10.598  -2.267  0.00  0.00    +0.304 C 
ATOM     13  O   UNL     1       5.729 -10.802  -1.779  0.00  0.00    -0.253 OA
ATOM     14  N   UNL     1       7.713 -11.606  -2.372  0.00  0.00    -0.296 N 
ATOM     15  H   UNL     1       8.045  -9.186  -3.028  0.00  0.00    +0.156 HD
ATOM     16  H   UNL     1       8.586 -11.443  -2.761  0.00  0.00    +0.151 HD
BRANCH  14  17
ATOM     17  C   UNL     1       7.359 -12.947  -1.899  0.00  0.00    +0.132 C 
BRANCH  17  18
ATOM     18  C   UNL     1       8.518 -13.883  -2.130  0.00  0.00    -0.016 C 
ATOM     19  C   UNL     1       9.013 -14.570  -1.131  0.00  0.00    +0.005 C 
ENDBRANCH  17  18
ENDBRANCH  14  17
ENDBRANCH   8  11
ENDBRANCH   3   5
BRANCH   1  20
ATOM     20  C   UNL     1       1.995  -3.600  -1.429  0.00  0.00    +0.118 C 
BRANCH  20  21
ATOM     21  C   UNL     1       1.697  -3.208   0.020  0.00  0.00    +0.136 C 
BRANCH  21  30
ATOM     22  C   UNL     1      -0.004   1.464   0.059  0.00  0.00    +0.154 C 
ATOM     23  N   UNL     1       0.021  -0.001   0.055  0.00  0.00    -0.295 N 
ATOM     24  C   UNL     1      -1.094  -0.836   0.070  0.00  0.00    +0.070 A 
ATOM     25  C   UNL     1      -2.460  -0.598   0.092  0.00  0.00    +0.028 A 
ATOM     26  C   UNL     1      -3.342  -1.660   0.103  0.00  0.00    +0.002 A 
ATOM     27  C   UNL     1      -2.868  -2.961   0.093  0.00  0.00    +0.002 A 
ATOM     28  C   UNL     1      -1.510  -3.208   0.071  0.00  0.00    +0.028 A 
ATOM     29  C   UNL     1      -0.616  -2.147   0.059  0.00  0.00    +0.070 A 
ATOM     30  N   UNL     1       0.774  -2.070   0.037  0.00  0.00    -0.292 N 
ATOM     31  C   UNL     1       1.126  -0.770   0.029  0.00  0.00    +0.330 A 
ATOM     32  O   UNL     1       2.270  -0.354   0.006  0.00  0.00    -0.246 OA
ENDBRANCH  21  30
ENDBRANCH  20  21
ENDBRANCH   1  20
TORSDOF 7
