REMARK  Name = ZINC13017473
REMARK  8 active torsions:
REMARK  status: ('A' for Active; 'I' for Inactive)
REMARK    1  A    between atoms: C_1  and  S_2
REMARK    2  A    between atoms: S_2  and  C_3
REMARK    3  A    between atoms: C_6  and  C_12
REMARK    4  A    between atoms: C_8  and  N_9
REMARK    5  A    between atoms: C_12  and  O_14
REMARK    6  A    between atoms: O_14  and  C_15
REMARK    7  A    between atoms: C_15  and  C_16
REMARK    8  A    between atoms: N_18  and  C_19
REMARK                            x       y       z     vdW  Elec       q    Type
REMARK                         _______ _______ _______ _____ _____    ______ ____
ROOT
ATOM      1  C   UNL     1       3.554   2.061  -0.024  0.00  0.00    +0.255 C 
ATOM      2  O   UNL     1       3.379   3.261  -0.009  0.00  0.00    -0.272 OA
ATOM      3  N   UNL     1       4.806   1.563  -0.035  0.00  0.00    -0.282 N 
ATOM      4  H   UNL     1       4.949   0.606   0.033  0.00  0.00    +0.155 HD
ENDROOT
BRANCH   3   5
ATOM      5  C   UNL     1       5.903   2.428  -0.147  0.00  0.00    +0.050 A 
ATOM      6  C   UNL     1       5.747   3.669  -0.745  0.00  0.00    +0.052 A 
ATOM      7  C   UNL     1       6.834   4.523  -0.854  0.00  0.00    +0.069 A 
ATOM      8  C   UNL     1       8.081   4.130  -0.362  0.00  0.00    +0.068 A 
ATOM      9  C   UNL     1       8.231   2.887   0.234  0.00  0.00    +0.045 A 
ATOM     10  C   UNL     1       7.145   2.041   0.347  0.00  0.00    +0.041 A 
ATOM     11 BR   UNL     1       7.348   0.350   1.168  0.00  0.00    -0.048 Br
ATOM     12  N   UNL     1       8.961   5.182  -0.612  0.00  0.00    -0.306 N 
ATOM     13  H   UNL     1       9.903   5.201  -0.382  0.00  0.00    +0.170 HD
ATOM     14  C   UNL     1       8.280   6.167  -1.227  0.00  0.00    +0.325 A 
ATOM     15  O   UNL     1       8.755   7.230  -1.584  0.00  0.00    -0.247 OA
ATOM     16  N   UNL     1       6.995   5.800  -1.387  0.00  0.00    -0.306 N 
ATOM     17  H   UNL     1       6.300   6.333  -1.803  0.00  0.00    +0.170 HD
ENDBRANCH   3   5
BRANCH   1  18
ATOM     18  C   UNL     1       2.372   1.126  -0.029  0.00  0.00    +0.328 C 
BRANCH  18  19
ATOM     19  O   UNL     1       1.143   1.900  -0.015  0.00  0.00    -0.452 OA
BRANCH  19  20
ATOM     20  C   UNL     1      -0.015   1.210  -0.017  0.00  0.00    +0.340 C 
ATOM     21  O   UNL     1       0.002  -0.005  -0.032  0.00  0.00    -0.245 OA
BRANCH  20  25
ATOM     22  C   UNL     1      -3.711   3.277   0.007  0.00  0.00    +0.038 A 
ATOM     23  C   UNL     1      -2.515   3.992   0.016  0.00  0.00    +0.018 A 
ATOM     24  C   UNL     1      -1.321   3.328   0.013  0.00  0.00    +0.016 A 
ATOM     25  C   UNL     1      -1.300   1.929  -0.009  0.00  0.00    +0.061 A 
ATOM     26  C   UNL     1      -2.503   1.215  -0.018  0.00  0.00    +0.048 A 
ATOM     27  C   UNL     1      -3.694   1.885  -0.009  0.00  0.00    +0.140 A 
BRANCH  27  28
ATOM     28  N   UNL     1      -4.967   1.129  -0.019  0.00  0.00    +0.058 N 
ATOM     29  O   UNL     1      -4.952  -0.089  -0.034  0.00  0.00    -0.126 OA
ATOM     30  O   UNL     1      -6.029   1.726  -0.011  0.00  0.00    -0.126 OA
ENDBRANCH  27  28
BRANCH  22  32
ATOM     31  C   UNL     1      -4.773   5.888   0.038  0.00  0.00    +0.090 C 
ATOM     32  S   UNL     1      -5.249   4.137   0.017  0.00  0.00    -0.126 S 
ENDBRANCH  22  32
ENDBRANCH  20  25
ENDBRANCH  19  20
ENDBRANCH  18  19
ENDBRANCH   1  18
TORSDOF 7
