REMARK  Name = ZINC38804192
REMARK  12 active torsions:
REMARK  status: ('A' for Active; 'I' for Inactive)
REMARK    1  A    between atoms: C_1  and  C_2
REMARK    2  A    between atoms: C_2  and  C_3
REMARK    3  A    between atoms: C_2  and  C_4
REMARK    4  A    between atoms: C_2  and  O_5
REMARK    5  A    between atoms: O_5  and  C_6
REMARK    6  A    between atoms: N_8  and  O_9
REMARK    7  A    between atoms: O_9  and  C_10
REMARK    8  A    between atoms: C_10  and  C_12
REMARK    9  A    between atoms: C_18  and  N_22
REMARK   10  A    between atoms: C_23  and  O_25
REMARK   11  A    between atoms: O_25  and  C_26
REMARK   12  A    between atoms: C_26  and  C_27
REMARK                            x       y       z     vdW  Elec       q    Type
REMARK                         _______ _______ _______ _____ _____    ______ ____
ROOT
ATOM      1  C   UNL     1       5.817  -0.321  -3.904  0.00  0.00    +0.108 C 
ATOM      2  C   UNL     1       6.934  -0.815  -2.961  0.00  0.00    +0.050 C 
ATOM      3  C   UNL     1       7.360  -2.156  -3.519  0.00  0.00    -0.043 A 
ATOM      4  C   UNL     1       8.080  -3.184  -2.932  0.00  0.00    +0.006 A 
ATOM      5  C   UNL     1       8.356  -4.334  -3.641  0.00  0.00    +0.024 A 
ATOM      6  C   UNL     1       7.912  -4.463  -4.951  0.00  0.00    +0.037 A 
ATOM      7  C   UNL     1       7.193  -3.432  -5.539  0.00  0.00    +0.027 A 
ATOM      8  C   UNL     1       6.917  -2.280  -4.823  0.00  0.00    -0.042 A 
ATOM      9  C   UNL     1       6.161  -1.028  -5.232  0.00  0.00    +0.050 C 
ENDROOT
BRANCH   6  10
ATOM     10  N   UNL     1       8.190  -5.628  -5.676  0.00  0.00    -0.251 N 
ATOM     11  C   UNL     1       8.252  -6.816  -5.043  0.00  0.00    +0.405 C 
ATOM     12  O   UNL     1       7.972  -6.891  -3.863  0.00  0.00    -0.226 OA
ATOM     13  H   UNL     1       8.338  -5.580  -6.633  0.00  0.00    +0.158 HD
BRANCH  11  14
ATOM     14  O   UNL     1       8.623  -7.920  -5.718  0.00  0.00    -0.449 OA
BRANCH  14  15
ATOM     15  C   UNL     1       8.667  -9.145  -4.985  0.00  0.00    +0.246 C 
BRANCH  15  16
ATOM     16  C   UNL     1       9.106 -10.280  -5.912  0.00  0.00    +0.088 C 
ATOM     17  C   UNL     1       8.034 -10.559  -6.936  0.00  0.00    -0.029 A 
ATOM     18  C   UNL     1       7.465  -9.776  -7.918  0.00  0.00    +0.005 A 
ATOM     19  C   UNL     1       6.478 -10.298  -8.736  0.00  0.00    +0.000 A 
ATOM     20  C   UNL     1       6.059 -11.606  -8.569  0.00  0.00    +0.001 A 
ATOM     21  C   UNL     1       6.623 -12.396  -7.589  0.00  0.00    +0.009 A 
ATOM     22  C   UNL     1       7.619 -11.877  -6.761  0.00  0.00    -0.014 A 
ATOM     23  C   UNL     1       8.384 -12.491  -5.647  0.00  0.00    -0.014 A 
ATOM     24  C   UNL     1       9.276 -11.557  -5.127  0.00  0.00    -0.029 A 
ATOM     25  C   UNL     1      10.102 -11.895  -4.077  0.00  0.00    +0.005 A 
ATOM     26  C   UNL     1      10.049 -13.167  -3.534  0.00  0.00    +0.000 A 
ATOM     27  C   UNL     1       9.166 -14.102  -4.045  0.00  0.00    +0.001 A 
ATOM     28  C   UNL     1       8.335 -13.772  -5.096  0.00  0.00    +0.009 A 
ENDBRANCH  15  16
ENDBRANCH  14  15
ENDBRANCH  11  14
ENDBRANCH   6  10
BRANCH   1  29
ATOM     29  C   UNL     1       4.463  -0.752  -3.402  0.00  0.00    +0.334 C 
ATOM     30  O   UNL     1       3.789  -1.517  -4.058  0.00  0.00    -0.248 OA
BRANCH  29  31
ATOM     31  O   UNL     1       4.005  -0.291  -2.232  0.00  0.00    -0.344 OA
BRANCH  31  34
ATOM     32  C   UNL     1       2.144  -0.390  -0.730  0.00  0.00    +0.433 C 
ATOM     33  O   UNL     1       2.725   0.377   0.013  0.00  0.00    -0.223 OA
ATOM     34  N   UNL     1       2.721  -0.777  -1.884  0.00  0.00    -0.110 N 
ATOM     35  H   UNL     1       2.257  -1.389  -2.477  0.00  0.00    +0.199 HD
BRANCH  32  36
ATOM     36  O   UNL     1       0.923  -0.853  -0.399  0.00  0.00    -0.443 OA
BRANCH  36  38
ATOM     37  C   UNL     1       0.240   1.123   0.813  0.00  0.00    +0.055 C 
ATOM     38  C   UNL     1       0.371  -0.401   0.840  0.00  0.00    +0.107 C 
ATOM     39  C   UNL     1       1.293  -0.814   1.989  0.00  0.00    +0.055 C 
ATOM     40  C   UNL     1      -1.010  -1.028   1.042  0.00  0.00    +0.055 C 
ENDBRANCH  36  38
ENDBRANCH  32  36
ENDBRANCH  31  34
ENDBRANCH  29  31
ENDBRANCH   1  29
TORSDOF 9
