REMARK  Name = ZINC63282090
REMARK  8 active torsions:
REMARK  status: ('A' for Active; 'I' for Inactive)
REMARK    1  A    between atoms: C_1  and  C_2
REMARK    2  A    between atoms: C_2  and  C_4
REMARK    3  A    between atoms: C_2  and  N_14
REMARK    4  A    between atoms: C_4  and  C_5
REMARK    5  A    between atoms: C_15  and  C_17
REMARK    6  A    between atoms: C_21  and  C_24
REMARK    7  A    between atoms: C_27  and  O_30
REMARK    8  A    between atoms: O_30  and  C_31
REMARK                            x       y       z     vdW  Elec       q    Type
REMARK                         _______ _______ _______ _____ _____    ______ ____
ROOT
ATOM      1  N   UNL     1       0.690  -0.695  -1.118  0.00  0.00    -0.309 N 
ATOM      2  C   UNL     1       2.031  -0.827  -1.148  0.00  0.00    +0.239 C 
ATOM      3  O   UNL     1       2.672  -0.760  -0.115  0.00  0.00    -0.271 OA
ATOM      4  H   UNL     1       0.179  -0.748  -1.941  0.00  0.00    +0.149 HD
ENDROOT
BRANCH   2   5
ATOM      5  C   UNL     1       2.693  -1.043  -2.379  0.00  0.00    +0.086 C 
ATOM      6  C   UNL     1       4.041  -1.058  -2.426  0.00  0.00    +0.020 C 
ATOM      7  C   UNL     1       4.807  -1.432  -3.689  0.00  0.00    +0.121 C 
ATOM      8  S   UNL     1       6.349  -2.104  -2.930  0.00  0.00    -0.128 S 
ATOM      9  C   UNL     1       6.185  -1.254  -1.303  0.00  0.00    +0.159 C 
ATOM     10  N   UNL     1       4.803  -0.738  -1.359  0.00  0.00    -0.331 N 
ATOM     11  H   UNL     1       4.449  -0.184  -0.646  0.00  0.00    +0.147 HD
BRANCH   9  12
ATOM     12  C   UNL     1       6.357  -2.229  -0.168  0.00  0.00    -0.017 A 
ATOM     13  C   UNL     1       5.263  -2.918   0.322  0.00  0.00    +0.010 A 
ATOM     14  C   UNL     1       5.418  -3.813   1.363  0.00  0.00    +0.046 A 
ATOM     15  C   UNL     1       6.673  -4.020   1.917  0.00  0.00    +0.120 A 
ATOM     16  C   UNL     1       7.770  -3.328   1.423  0.00  0.00    +0.046 A 
ATOM     17  C   UNL     1       7.610  -2.438   0.378  0.00  0.00    +0.010 A 
BRANCH  15  18
ATOM     18  O   UNL     1       6.829  -4.899   2.941  0.00  0.00    -0.495 OA
ATOM     19  C   UNL     1       8.149  -5.062   3.462  0.00  0.00    +0.277 C 
ENDBRANCH  15  18
ENDBRANCH   9  12
ENDBRANCH   2   5
BRANCH   1  21
ATOM     20  C   UNL     1       0.011   1.023   0.484  0.00  0.00    +0.028 C 
ATOM     21  C   UNL     1       0.004  -0.471   0.157  0.00  0.00    +0.074 C 
BRANCH  21  22
ATOM     22  C   UNL     1      -1.441  -0.963   0.052  0.00  0.00    +0.055 C 
BRANCH  22  23
ATOM     23  C   UNL     1      -1.450  -2.457  -0.149  0.00  0.00    -0.040 C 
ATOM     24  C   UNL     1      -1.583  -3.405   0.806  0.00  0.00    -0.001 A 
ATOM     25  C   UNL     1      -1.752  -3.332   2.263  0.00  0.00    +0.010 A 
ATOM     26  C   UNL     1      -1.860  -4.481   2.969  0.00  0.00    +0.001 A 
ATOM     27  C   UNL     1      -1.814  -5.736   2.346  0.00  0.00    +0.002 A 
ATOM     28  C   UNL     1      -1.661  -5.883   1.013  0.00  0.00    +0.026 A 
ATOM     29  C   UNL     1      -1.538  -4.742   0.173  0.00  0.00    +0.043 A 
ATOM     30  N   UNL     1      -1.383  -4.625  -1.124  0.00  0.00    -0.380 N 
ATOM     31  C   UNL     1      -1.319  -3.199  -1.460  0.00  0.00    +0.144 C 
ATOM     32  H   UNL     1      -1.325  -5.359  -1.755  0.00  0.00    +0.160 HD
ENDBRANCH  22  23
ENDBRANCH  21  22
ENDBRANCH   1  21
TORSDOF 6
