REMARK  Name = ZINC37643655
REMARK  7 active torsions:
REMARK  status: ('A' for Active; 'I' for Inactive)
REMARK    1  A    between atoms: C_1  and  C_2
REMARK    2  A    between atoms: C_2  and  N_3
REMARK    3  A    between atoms: C_6  and  C_9
REMARK    4  A    between atoms: C_9  and  N_10
REMARK    5  A    between atoms: N_10  and  S_11
REMARK    6  A    between atoms: S_11  and  C_14
REMARK    7  A    between atoms: C_17  and  N_21
REMARK                            x       y       z     vdW  Elec       q    Type
REMARK                         _______ _______ _______ _____ _____    ______ ____
ROOT
ATOM      1  S   UNL     1      -4.155  -5.703   2.268  0.00  0.00    +0.061 S 
ATOM      2  O   UNL     1      -5.507  -5.788   2.697  0.00  0.00    -0.153 OA
ATOM      3  O   UNL     1      -3.615  -6.565   1.276  0.00  0.00    -0.153 OA
ENDROOT
BRANCH   1   4
ATOM      4  C   UNL     1      -3.157  -5.902   3.706  0.00  0.00    +0.133 A 
ATOM      5  C   UNL     1      -1.853  -6.349   3.585  0.00  0.00    +0.047 A 
ATOM      6  C   UNL     1      -1.067  -6.507   4.711  0.00  0.00    +0.040 A 
ATOM      7  C   UNL     1      -1.588  -6.216   5.966  0.00  0.00    +0.027 A 
ATOM      8  C   UNL     1      -2.897  -5.767   6.084  0.00  0.00    +0.040 A 
ATOM      9  C   UNL     1      -3.676  -5.606   4.954  0.00  0.00    +0.047 A 
ATOM     10 BR   UNL     1      -5.457  -4.989   5.113  0.00  0.00    -0.048 Br
ATOM     11 BR   UNL     1      -1.145  -6.745   1.877  0.00  0.00    -0.048 Br
BRANCH   7  12
ATOM     12  N   UNL     1      -0.797  -6.375   7.106  0.00  0.00    -0.358 N 
ATOM     13  H   UNL     1       0.117  -6.689   7.022  0.00  0.00    +0.142 HD
ATOM     14  H   UNL     1      -1.162  -6.171   7.981  0.00  0.00    +0.142 HD
ENDBRANCH   7  12
ENDBRANCH   1   4
BRANCH   1  15
ATOM     15  N   UNL     1      -3.927  -4.155   1.725  0.00  0.00    -0.190 NA
ATOM     16  H   UNL     1      -4.665  -3.525   1.733  0.00  0.00    +0.148 HD
BRANCH  15  17
ATOM     17  C   UNL     1      -2.612  -3.738   1.232  0.00  0.00    +0.107 C 
BRANCH  17  21
ATOM     18  N   UNL     1      -1.376  -0.512   0.012  0.00  0.00    +0.380 N 
ATOM     19  C   UNL     1      -2.014  -0.257   1.330  0.00  0.00    -0.079 C 
ATOM     20  C   UNL     1      -3.165  -1.284   1.410  0.00  0.00    -0.016 C 
ATOM     21  C   UNL     1      -2.751  -2.425   0.458  0.00  0.00    -0.014 C 
ATOM     22  C   UNL     1      -1.385  -1.992  -0.117  0.00  0.00    -0.074 C 
ATOM     23  H   UNL     1      -1.914  -0.090  -0.730  0.00  0.00    -0.082 HD
BRANCH  18  25
ATOM     24  C   UNL     1      -0.019   1.526   0.010  0.00  0.00    -0.017 C 
ATOM     25  C   UNL     1       0.002  -0.004   0.002  0.00  0.00    -0.082 C 
ENDBRANCH  18  25
ENDBRANCH  17  21
ENDBRANCH  15  17
ENDBRANCH   1  15
TORSDOF 6
