REMARK  Name = ZINC03336502
REMARK  16 active torsions:
REMARK  status: ('A' for Active; 'I' for Inactive)
REMARK    1  A    between atoms: C_1  and  C_2
REMARK    2  A    between atoms: C_2  and  C_3
REMARK    3  A    between atoms: C_2  and  C_4
REMARK    4  A    between atoms: C_4  and  C_6
REMARK    5  A    between atoms: C_4  and  N_21
REMARK    6  A    between atoms: N_8  and  C_9
REMARK    7  A    between atoms: C_9  and  C_10
REMARK    8  A    between atoms: C_10  and  C_12
REMARK    9  A    between atoms: C_10  and  N_18
REMARK   10  A    between atoms: N_18  and  C_19
REMARK   11  A    between atoms: N_18  and  C_20
REMARK   12  A    between atoms: C_22  and  C_24
REMARK   13  A    between atoms: C_27  and  C_30
REMARK   14  A    between atoms: C_30  and  C_31
REMARK   15  A    between atoms: C_30  and  C_32
REMARK   16  A    between atoms: C_30  and  C_33
REMARK                            x       y       z     vdW  Elec       q    Type
REMARK                         _______ _______ _______ _____ _____    ______ ____
ROOT
ATOM      1  C   UNL     1      -1.141  -0.600   0.079  0.00  0.00    +0.162 C 
ENDROOT
BRANCH   1   2
ATOM      2  C   UNL     1      -2.041   0.002   1.127  0.00  0.00    +0.234 C 
ATOM      3  O   UNL     1      -3.129   0.436   0.815  0.00  0.00    -0.274 OA
ATOM      4  N   UNL     1      -1.636   0.057   2.412  0.00  0.00    -0.315 N 
ATOM      5  H   UNL     1      -0.800  -0.360   2.675  0.00  0.00    +0.149 HD
BRANCH   4   6
ATOM      6  C   UNL     1      -2.458   0.746   3.410  0.00  0.00    +0.093 C 
BRANCH   6   7
ATOM      7  C   UNL     1      -1.715   0.778   4.747  0.00  0.00    -0.021 C 
BRANCH   7   8
ATOM      8  C   UNL     1      -0.457   1.595   4.603  0.00  0.00    -0.059 A 
ATOM      9  C   UNL     1      -0.519   2.975   4.649  0.00  0.00    +0.002 A 
ATOM     10  C   UNL     1       0.635   3.724   4.518  0.00  0.00    +0.000 A 
ATOM     11  C   UNL     1       1.852   3.093   4.340  0.00  0.00    +0.000 A 
ATOM     12  C   UNL     1       1.914   1.712   4.294  0.00  0.00    +0.000 A 
ATOM     13  C   UNL     1       0.761   0.963   4.430  0.00  0.00    +0.002 A 
ENDBRANCH   7   8
BRANCH   7  14
ATOM     14  N   UNL     1      -2.577   1.383   5.771  0.00  0.00    +0.382 N 
ATOM     15  C   UNL     1      -3.781   0.560   5.947  0.00  0.00    -0.096 C 
ATOM     16  C   UNL     1      -1.846   1.461   7.043  0.00  0.00    -0.096 C 
ATOM     17  H   UNL     1      -2.845   2.312   5.480  0.00  0.00    -0.082 HD
ENDBRANCH   7  14
ENDBRANCH   6   7
ENDBRANCH   4   6
ENDBRANCH   1   2
BRANCH   1  18
ATOM     18  N   UNL     1      -1.886  -0.756  -1.173  0.00  0.00    -0.300 N 
ATOM     19  C   UNL     1      -1.508  -1.688  -2.070  0.00  0.00    +0.245 C 
ATOM     20  O   UNL     1      -0.548  -2.399  -1.841  0.00  0.00    -0.270 OA
ATOM     21  H   UNL     1      -2.651  -0.190  -1.356  0.00  0.00    +0.150 HD
BRANCH  19  22
ATOM     22  C   UNL     1      -2.260  -1.847  -3.333  0.00  0.00    +0.037 A 
ATOM     23  C   UNL     1      -3.358  -1.029  -3.602  0.00  0.00    +0.013 A 
ATOM     24  C   UNL     1      -4.056  -1.181  -4.783  0.00  0.00    +0.005 A 
ATOM     25  C   UNL     1      -3.668  -2.143  -5.699  0.00  0.00    -0.042 A 
ATOM     26  C   UNL     1      -2.580  -2.957  -5.439  0.00  0.00    +0.005 A 
ATOM     27  C   UNL     1      -1.871  -2.811  -4.264  0.00  0.00    +0.013 A 
BRANCH  25  28
ATOM     28  C   UNL     1      -4.435  -2.304  -6.987  0.00  0.00    -0.013 C 
ATOM     29  C   UNL     1      -4.385  -0.995  -7.777  0.00  0.00    +0.015 C 
ATOM     30  C   UNL     1      -3.807  -3.426  -7.816  0.00  0.00    +0.015 C 
ATOM     31  C   UNL     1      -5.891  -2.655  -6.673  0.00  0.00    +0.015 C 
ENDBRANCH  25  28
ENDBRANCH  19  22
ENDBRANCH   1  18
BRANCH   1  33
ATOM     32  C   UNL     1       1.051  -0.361  -1.097  0.00  0.00    +0.009 C 
ATOM     33  C   UNL     1       0.058   0.322  -0.154  0.00  0.00    +0.012 C 
ATOM     34  C   UNL     1      -0.420   1.633  -0.780  0.00  0.00    +0.009 C 
ENDBRANCH   1  33
TORSDOF 9
