REMARK  Name = ZINC38685455
REMARK  15 active torsions:
REMARK  status: ('A' for Active; 'I' for Inactive)
REMARK    1  A    between atoms: C_1  and  C_2
REMARK    2  A    between atoms: C_2  and  C_3
REMARK    3  A    between atoms: C_3  and  C_4
REMARK    4  A    between atoms: C_4  and  C_5
REMARK    5  A    between atoms: C_5  and  O_6
REMARK    6  A    between atoms: O_6  and  C_7
REMARK    7  A    between atoms: C_10  and  C_13
REMARK    8  A    between atoms: C_18  and  O_27
REMARK    9  A    between atoms: C_22  and  N_26
REMARK   10  A    between atoms: C_23  and  C_24
REMARK   11  A    between atoms: O_27  and  C_28
REMARK   12  A    between atoms: C_28  and  C_30
REMARK   13  A    between atoms: C_30  and  C_32
REMARK   14  A    between atoms: C_30  and  O_33
REMARK   15  A    between atoms: O_33  and  C_34
REMARK                            x       y       z     vdW  Elec       q    Type
REMARK                         _______ _______ _______ _____ _____    ______ ____
ROOT
ATOM      1  C   UNL     1      -7.799  -6.877  -0.140  0.00  0.00    +0.098 C 
ATOM      2  C   UNL     1      -7.901  -7.674   1.134  0.00  0.00    +0.008 A 
ATOM      3  C   UNL     1      -8.064  -7.013   2.338  0.00  0.00    +0.012 A 
ATOM      4  C   UNL     1      -8.160  -7.727   3.516  0.00  0.00    +0.047 A 
ATOM      5  C   UNL     1      -8.093  -9.113   3.494  0.00  0.00    +0.135 A 
ATOM      6  C   UNL     1      -7.930  -9.778   2.290  0.00  0.00    +0.093 A 
ATOM      7  C   UNL     1      -7.834  -9.058   1.106  0.00  0.00    +0.138 A 
ATOM      8  O   UNL     1      -7.675  -9.723  -0.065  0.00  0.00    -0.441 OA
ATOM      9  C   UNL     1      -7.963  -9.113  -1.226  0.00  0.00    +0.199 C 
ATOM     10  C   UNL     1      -8.035  -7.768  -1.327  0.00  0.00    +0.098 C 
ENDROOT
BRANCH   1  14
ATOM     11  C   UNL     1      -3.900  -5.150  -0.420  0.00  0.00    +0.121 A 
ATOM     12  C   UNL     1      -5.021  -4.334  -0.390  0.00  0.00    +0.046 A 
ATOM     13  C   UNL     1      -6.281  -4.894  -0.300  0.00  0.00    +0.008 A 
ATOM     14  C   UNL     1      -6.424  -6.268  -0.239  0.00  0.00    -0.034 A 
ATOM     15  C   UNL     1      -5.308  -7.084  -0.267  0.00  0.00    +0.008 A 
ATOM     16  C   UNL     1      -4.047  -6.529  -0.364  0.00  0.00    +0.046 A 
BRANCH  11  17
ATOM     17  O   UNL     1      -2.660  -4.601  -0.509  0.00  0.00    -0.492 OA
BRANCH  17  18
ATOM     18  C   UNL     1      -2.585  -3.175  -0.562  0.00  0.00    +0.229 C 
BRANCH  18  19
ATOM     19  C   UNL     1      -1.119  -2.745  -0.660  0.00  0.00    +0.041 C 
BRANCH  19  20
ATOM     20  C   UNL     1      -1.038  -1.219  -0.717  0.00  0.00    +0.003 C 
BRANCH  20  22
ATOM     21  C   UNL     1       0.508   0.738  -0.873  0.00  0.00    +0.004 C 
ATOM     22  C   UNL     1       0.427  -0.789  -0.815  0.00  0.00    -0.003 C 
ENDBRANCH  20  22
ENDBRANCH  19  20
ENDBRANCH  18  19
ENDBRANCH  17  18
ENDBRANCH  11  17
ENDBRANCH   1  14
BRANCH   9  23
ATOM     23  N   UNL     1      -8.189  -9.879  -2.343  0.00  0.00    -0.328 N 
ATOM     24  H   UNL     1      -8.139 -10.846  -2.286  0.00  0.00    +0.145 HD
ATOM     25  H   UNL     1      -8.398  -9.454  -3.189  0.00  0.00    +0.145 HD
ENDBRANCH   9  23
BRANCH  10  26
ATOM     26  C   UNL     1      -8.346  -7.180  -2.595  0.00  0.00    +0.101 C 
ATOM     27  N   UNL     1      -8.592  -6.713  -3.601  0.00  0.00    -0.191 NA
ENDBRANCH  10  26
BRANCH   5  28
ATOM     28  O   UNL     1      -8.187  -9.818   4.653  0.00  0.00    -0.423 OA
BRANCH  28  29
ATOM     29  C   UNL     1      -7.100 -10.484   5.075  0.00  0.00    +0.353 C 
ATOM     30  O   UNL     1      -6.053 -10.368   4.484  0.00  0.00    -0.246 OA
BRANCH  29  31
ATOM     31  C   UNL     1      -7.187 -11.377   6.286  0.00  0.00    +0.279 C 
ATOM     32  C   UNL     1      -8.127 -12.547   5.990  0.00  0.00    +0.064 C 
BRANCH  31  33
ATOM     33  O   UNL     1      -5.887 -11.878   6.603  0.00  0.00    -0.478 OA
BRANCH  33  34
ATOM     34  C   UNL     1      -5.678 -12.289   7.882  0.00  0.00    +0.122 A 
ATOM     35  C   UNL     1      -4.462 -12.851   8.241  0.00  0.00    +0.048 A 
ATOM     36  C   UNL     1      -4.251 -13.268   9.541  0.00  0.00    +0.042 A 
ATOM     37  C   UNL     1      -5.253 -13.124  10.486  0.00  0.00    +0.124 A 
ATOM     38  C   UNL     1      -6.467 -12.562  10.129  0.00  0.00    +0.042 A 
ATOM     39  C   UNL     1      -6.679 -12.139   8.831  0.00  0.00    +0.048 A 
ATOM     40  F   UNL     1      -5.046 -13.532  11.757  0.00  0.00    -0.205 F 
ENDBRANCH  33  34
ENDBRANCH  31  33
ENDBRANCH  29  31
ENDBRANCH  28  29
ENDBRANCH   5  28
TORSDOF 13
