REMARK  Name = ZINC58990118
REMARK  11 active torsions:
REMARK  status: ('A' for Active; 'I' for Inactive)
REMARK    1  A    between atoms: C_1  and  O_2
REMARK    2  A    between atoms: O_2  and  C_3
REMARK    3  A    between atoms: C_7  and  C_10
REMARK    4  A    between atoms: C_8  and  O_9
REMARK    5  A    between atoms: N_11  and  N_12
REMARK    6  A    between atoms: C_13  and  C_15
REMARK    7  A    between atoms: C_15  and  S_16
REMARK    8  A    between atoms: S_16  and  C_17
REMARK    9  A    between atoms: C_20  and  C_23
REMARK   10  A    between atoms: N_21  and  N_22
REMARK   11  A    between atoms: C_28  and  O_29
REMARK                            x       y       z     vdW  Elec       q    Type
REMARK                         _______ _______ _______ _____ _____    ______ ____
ROOT
ATOM      1  C   UNL     1       0.414  -8.473   0.482  0.00  0.00    +0.174 C 
ENDROOT
BRANCH   1   3
ATOM      2  N   UNL     1       0.899  -6.226   1.396  0.00  0.00    -0.206 N 
ATOM      3  C   UNL     1       0.273  -6.973   0.465  0.00  0.00    +0.242 C 
ATOM      4  O   UNL     1      -0.405  -6.437  -0.387  0.00  0.00    -0.273 OA
ATOM      5  H   UNL     1       1.441  -6.654   2.077  0.00  0.00    +0.177 HD
BRANCH   2   7
ATOM      6  C   UNL     1       1.371  -4.112   2.276  0.00  0.00    +0.142 C 
ATOM      7  N   UNL     1       0.768  -4.831   1.379  0.00  0.00    -0.188 NA
BRANCH   6  12
ATOM      8  C   UNL     1       0.329  -0.639   1.269  0.00  0.00    +0.162 A 
ATOM      9  C   UNL     1       0.978   0.119   2.231  0.00  0.00    +0.049 A 
ATOM     10  C   UNL     1       1.749  -0.495   3.202  0.00  0.00    +0.004 A 
ATOM     11  C   UNL     1       1.881  -1.867   3.222  0.00  0.00    +0.013 A 
ATOM     12  C   UNL     1       1.233  -2.645   2.258  0.00  0.00    +0.040 A 
ATOM     13  C   UNL     1       0.448  -2.023   1.280  0.00  0.00    +0.167 A 
BRANCH   8  15
ATOM     14  C   UNL     1      -0.504   1.397   0.367  0.00  0.00    +0.277 C 
ATOM     15  O   UNL     1      -0.427  -0.029   0.318  0.00  0.00    -0.491 OA
ENDBRANCH   8  15
BRANCH  13  16
ATOM     16  O   UNL     1      -0.191  -2.771   0.341  0.00  0.00    -0.503 OA
ATOM     17  H   UNL     1       0.332  -2.930  -0.457  0.00  0.00    +0.292 HD
ENDBRANCH  13  16
ENDBRANCH   6  12
ENDBRANCH   2   7
ENDBRANCH   1   3
BRANCH   1  18
ATOM     18  S   UNL     1      -0.540  -9.186  -0.886  0.00  0.00    -0.075 S 
BRANCH  18  19
ATOM     19  C   UNL     1      -0.276 -10.921  -0.731  0.00  0.00    +0.209 A 
ATOM     20  N   UNL     1       0.448 -11.521   0.187  0.00  0.00    -0.121 NA
ATOM     21  N   UNL     1       0.425 -12.793   0.007  0.00  0.00    -0.127 NA
ATOM     22  C   UNL     1      -0.316 -13.084  -1.037  0.00  0.00    +0.185 A 
ATOM     23  N   UNL     1      -0.792 -11.895  -1.538  0.00  0.00    -0.224 N 
BRANCH  22  24
ATOM     24  C   UNL     1      -0.590 -14.435  -1.569  0.00  0.00    +0.062 A 
ATOM     25  C   UNL     1      -0.476 -14.686  -2.937  0.00  0.00    +0.015 A 
ATOM     26  C   UNL     1      -0.733 -15.949  -3.429  0.00  0.00    +0.001 A 
ATOM     27  C   UNL     1      -1.104 -16.969  -2.570  0.00  0.00    +0.004 A 
ATOM     28  C   UNL     1      -1.220 -16.733  -1.214  0.00  0.00    +0.046 A 
ATOM     29  C   UNL     1      -0.959 -15.472  -0.704  0.00  0.00    +0.128 A 
BRANCH  29  30
ATOM     30  O   UNL     1      -1.067 -15.240   0.630  0.00  0.00    -0.506 OA
ATOM     31  H   UNL     1      -1.949 -14.958   0.911  0.00  0.00    +0.292 HD
ENDBRANCH  29  30
ENDBRANCH  22  24
BRANCH  23  32
ATOM     32  N   UNL     1      -1.608 -11.724  -2.620  0.00  0.00    -0.295 N 
ATOM     33  H   UNL     1      -1.074 -11.699  -3.476  0.00  0.00    +0.163 HD
ATOM     34  H   UNL     1      -2.316 -12.442  -2.656  0.00  0.00    +0.163 HD
ENDBRANCH  23  32
ENDBRANCH  18  19
ENDBRANCH   1  18
TORSDOF 10
