REMARK  Name = ZINC34756496
REMARK  5 active torsions:
REMARK  status: ('A' for Active; 'I' for Inactive)
REMARK    1  A    between atoms: C_9  and  S_13
REMARK    2  A    between atoms: S_13  and  C_14
REMARK    3  A    between atoms: C_14  and  C_15
REMARK    4  A    between atoms: N_21  and  C_24
REMARK    5  A    between atoms: C_24  and  C_25
REMARK                            x       y       z     vdW  Elec       q    Type
REMARK                         _______ _______ _______ _____ _____    ______ ____
ROOT
ATOM      1  C   UNL     1      -4.098  -1.846   3.072  0.00  0.00    +0.005 C 
ATOM      2  C   UNL     1      -3.910  -0.884   4.249  0.00  0.00    +0.005 C 
ATOM      3  C   UNL     1      -2.898  -1.497   5.227  0.00  0.00    +0.043 C 
ATOM      4  C   UNL     1      -1.713  -1.975   4.447  0.00  0.00    -0.004 A 
ATOM      5  C   UNL     1      -1.632  -2.157   3.110  0.00  0.00    -0.025 A 
ATOM      6  C   UNL     1      -0.359  -2.632   2.591  0.00  0.00    +0.051 A 
ATOM      7  C   UNL     1      -0.032  -2.897   1.230  0.00  0.00    +0.134 A 
ATOM      8  N   UNL     1       1.207  -3.327   1.001  0.00  0.00    -0.206 NA
ATOM      9  C   UNL     1       2.112  -3.511   1.951  0.00  0.00    +0.191 A 
ATOM     10  N   UNL     1       1.867  -3.282   3.244  0.00  0.00    -0.214 NA
ATOM     11  C   UNL     1       0.659  -2.853   3.552  0.00  0.00    +0.115 A 
ATOM     12  S   UNL     1      -0.115  -2.424   5.077  0.00  0.00    -0.073 S 
ATOM     13  N   UNL     1      -0.946  -2.719   0.208  0.00  0.00    -0.318 N 
ATOM     14  C   UNL     1      -1.141  -1.399  -0.411  0.00  0.00    +0.088 C 
ATOM     15  C   UNL     1      -1.050  -1.558  -1.933  0.00  0.00    -0.059 C 
ATOM     16  N   UNL     1      -2.005  -2.581  -2.375  0.00  0.00    +0.387 N 
ATOM     17  C   UNL     1      -1.631  -3.888  -1.819  0.00  0.00    -0.059 C 
ATOM     18  C   UNL     1      -1.747  -3.846  -0.296  0.00  0.00    +0.088 C 
ATOM     19  C   UNL     1      -2.834  -1.868   2.214  0.00  0.00    +0.037 C 
ATOM     20  H   UNL     1      -2.930  -2.335  -2.059  0.00  0.00    -0.081 HD
ENDROOT
BRANCH   9  21
ATOM     21  S   UNL     1       3.712  -4.086   1.488  0.00  0.00    -0.077 S 
BRANCH  21  22
ATOM     22  C   UNL     1       4.611  -4.197   3.059  0.00  0.00    +0.172 C 
BRANCH  22  23
ATOM     23  C   UNL     1       6.014  -4.683   2.803  0.00  0.00    +0.221 C 
ATOM     24  O   UNL     1       6.372  -4.931   1.671  0.00  0.00    -0.275 OA
ATOM     25  N   UNL     1       6.870  -4.843   3.830  0.00  0.00    -0.329 N 
ATOM     26  H   UNL     1       6.584  -4.644   4.736  0.00  0.00    +0.145 HD
ATOM     27  H   UNL     1       7.774  -5.156   3.665  0.00  0.00    +0.145 HD
ENDBRANCH  22  23
ENDBRANCH  21  22
ENDBRANCH   9  21
BRANCH  16  28
ATOM     28  C   UNL     1      -1.995  -2.655  -3.842  0.00  0.00    +0.019 C 
BRANCH  28  29
ATOM     29  C   UNL     1      -3.061  -3.616  -4.304  0.00  0.00    +0.199 C 
ATOM     30  O   UNL     1      -3.759  -4.183  -3.490  0.00  0.00    -0.278 OA
ATOM     31  N   UNL     1      -3.238  -3.845  -5.620  0.00  0.00    -0.299 N 
ATOM     32  C   UNL     1      -2.399  -3.173  -6.625  0.00  0.00    +0.136 C 
ATOM     33  C   UNL     1      -1.845  -4.236  -7.581  0.00  0.00    +0.179 C 
ATOM     34  O   UNL     1      -2.925  -5.027  -8.082  0.00  0.00    -0.377 OA
ATOM     35  C   UNL     1      -3.630  -5.759  -7.076  0.00  0.00    +0.179 C 
ATOM     36  C   UNL     1      -4.272  -4.779  -6.094  0.00  0.00    +0.136 C 
ENDBRANCH  28  29
ENDBRANCH  16  28
TORSDOF 5
