REMARK  Name = ZINC09373527
REMARK  11 active torsions:
REMARK  status: ('A' for Active; 'I' for Inactive)
REMARK    1  A    between atoms: C_1  and  C_2
REMARK    2  A    between atoms: C_5  and  C_8
REMARK    3  A    between atoms: C_11  and  S_14
REMARK    4  A    between atoms: N_12  and  N_13
REMARK    5  A    between atoms: S_14  and  C_15
REMARK    6  A    between atoms: C_15  and  C_16
REMARK    7  A    between atoms: N_18  and  C_19
REMARK    8  A    between atoms: C_21  and  S_26
REMARK    9  A    between atoms: S_26  and  N_29
REMARK   10  A    between atoms: N_29  and  C_30
REMARK   11  A    between atoms: N_29  and  C_31
REMARK                            x       y       z     vdW  Elec       q    Type
REMARK                         _______ _______ _______ _____ _____    ______ ____
ROOT
ATOM      1  C   UNL     1       2.377   2.108  -0.046  0.00  0.00    +0.173 C 
ENDROOT
BRANCH   1   2
ATOM      2  C   UNL     1       2.611   3.595   0.010  0.00  0.00    +0.228 C 
ATOM      3  O   UNL     1       1.669   4.358   0.015  0.00  0.00    -0.275 OA
ATOM      4  N   UNL     1       3.869   4.078   0.055  0.00  0.00    -0.284 N 
ATOM      5  H   UNL     1       4.624   3.471  -0.007  0.00  0.00    +0.155 HD
BRANCH   4   6
ATOM      6  C   UNL     1       4.086   5.454   0.191  0.00  0.00    +0.054 A 
ATOM      7  C   UNL     1       3.212   6.358  -0.399  0.00  0.00    +0.053 A 
ATOM      8  C   UNL     1       3.427   7.715  -0.261  0.00  0.00    +0.107 A 
ATOM      9  C   UNL     1       4.516   8.175   0.457  0.00  0.00    +0.030 A 
ATOM     10  C   UNL     1       5.391   7.279   1.042  0.00  0.00    +0.024 A 
ATOM     11  C   UNL     1       5.180   5.919   0.911  0.00  0.00    +0.062 A 
ATOM     12 CL   UNL     1       6.278   4.793   1.646  0.00  0.00    -0.082 Cl
BRANCH   8  13
ATOM     13  S   UNL     1       2.316   8.862  -1.004  0.00  0.00    +0.060 S 
ATOM     14  O   UNL     1       1.076   8.184  -1.160  0.00  0.00    -0.153 OA
ATOM     15  O   UNL     1       2.434  10.075  -0.274  0.00  0.00    -0.153 OA
BRANCH  13  16
ATOM     16  N   UNL     1       2.880   9.172  -2.530  0.00  0.00    -0.183 NA
ATOM     17  C   UNL     1       2.438   8.346  -3.656  0.00  0.00    +0.131 C 
ATOM     18  C   UNL     1       3.822  10.272  -2.753  0.00  0.00    +0.131 C 
ENDBRANCH  13  16
ENDBRANCH   8  13
ENDBRANCH   4   6
ENDBRANCH   1   2
BRANCH   1  19
ATOM     19  S   UNL     1       0.598   1.779  -0.097  0.00  0.00    -0.075 S 
BRANCH  19  23
ATOM     20  C   UNL     1       0.020  -2.083  -0.243  0.00  0.00    +0.182 A 
ATOM     21  N   UNL     1       1.329  -1.988  -0.210  0.00  0.00    -0.127 NA
ATOM     22  N   UNL     1       1.678  -0.752  -0.165  0.00  0.00    -0.121 NA
ATOM     23  C   UNL     1       0.613   0.018  -0.157  0.00  0.00    +0.209 A 
ATOM     24  N   UNL     1      -0.478  -0.800  -0.209  0.00  0.00    -0.224 N 
BRANCH  20  29
ATOM     25  C   UNL     1      -3.054  -6.942  -0.480  0.00  0.00    +0.044 C 
ATOM     26  C   UNL     1      -2.249  -5.669  -0.418  0.00  0.00    -0.050 A 
ATOM     27  C   UNL     1      -2.835  -4.466  -0.769  0.00  0.00    +0.004 A 
ATOM     28  C   UNL     1      -2.103  -3.297  -0.714  0.00  0.00    +0.012 A 
ATOM     29  C   UNL     1      -0.770  -3.331  -0.304  0.00  0.00    +0.021 A 
ATOM     30  C   UNL     1      -0.183  -4.549   0.044  0.00  0.00    +0.012 A 
ATOM     31  C   UNL     1      -0.927  -5.709  -0.011  0.00  0.00    +0.004 A 
ENDBRANCH  20  29
BRANCH  24  32
ATOM     32  N   UNL     1      -1.792  -0.425  -0.226  0.00  0.00    -0.295 N 
ATOM     33  H   UNL     1      -2.100  -0.229  -1.166  0.00  0.00    +0.163 HD
ATOM     34  H   UNL     1      -2.374  -1.126   0.208  0.00  0.00    +0.163 HD
ENDBRANCH  24  32
ENDBRANCH  19  23
ENDBRANCH   1  19
TORSDOF 8
