REMARK  Name = ZINC32815090
REMARK  7 active torsions:
REMARK  status: ('A' for Active; 'I' for Inactive)
REMARK    1  A    between atoms: C_1  and  C_2
REMARK    2  A    between atoms: C_2  and  C_4
REMARK    3  A    between atoms: C_2  and  N_15
REMARK    4  A    between atoms: C_16  and  C_18
REMARK    5  A    between atoms: C_18  and  N_19
REMARK    6  A    between atoms: C_22  and  C_26
REMARK    7  A    between atoms: C_22  and  C_27
REMARK                            x       y       z     vdW  Elec       q    Type
REMARK                         _______ _______ _______ _____ _____    ______ ____
ROOT
ATOM      1  C   UNL     1       2.663   9.395   2.745  0.00  0.00    +0.213 C 
ENDROOT
BRANCH   1   2
ATOM      2  N   UNL     1       1.809   8.691   1.786  0.00  0.00    -0.215 N 
ATOM      3  C   UNL     1       2.272   7.994   0.729  0.00  0.00    +0.251 C 
ATOM      4  O   UNL     1       3.430   7.837   0.406  0.00  0.00    -0.272 OA
ATOM      5  C   UNL     1       1.044   7.447   0.029  0.00  0.00    +0.135 C 
ATOM      6  N   UNL     1      -0.074   7.946   0.849  0.00  0.00    -0.281 N 
ATOM      7  C   UNL     1       0.473   8.660   1.850  0.00  0.00    +0.310 C 
ATOM      8  O   UNL     1      -0.175   9.216   2.715  0.00  0.00    -0.252 OA
ATOM      9  C   UNL     1       0.952   7.989  -1.399  0.00  0.00    +0.047 C 
ATOM     10  H   UNL     1      -1.110   7.701   0.575  0.00  0.00    +0.152 HD
BRANCH   5  11
ATOM     11  C   UNL     1       1.064   5.940   0.022  0.00  0.00    -0.015 A 
ATOM     12  C   UNL     1       2.286   5.270   0.007  0.00  0.00    +0.007 A 
ATOM     13  C   UNL     1       2.340   3.910  -0.000  0.00  0.00    +0.009 A 
ATOM     14  C   UNL     1       1.147   3.167   0.008  0.00  0.00    -0.018 A 
ATOM     15  C   UNL     1       1.163   1.762   0.000  0.00  0.00    +0.008 A 
ATOM     16  C   UNL     1      -0.013   1.076   0.008  0.00  0.00    +0.001 A 
ATOM     17  C   UNL     1      -1.235   1.746   0.017  0.00  0.00    +0.001 A 
ATOM     18  C   UNL     1      -1.288   3.106   0.031  0.00  0.00    +0.008 A 
ATOM     19  C   UNL     1      -0.096   3.849   0.023  0.00  0.00    -0.018 A 
ATOM     20  C   UNL     1      -0.111   5.254   0.030  0.00  0.00    +0.014 A 
ENDBRANCH   5  11
ENDBRANCH   1   2
BRANCH   1  22
ATOM     21  N   UNL     1       3.652  11.648   3.002  0.00  0.00    -0.307 N 
ATOM     22  C   UNL     1       2.890  10.808   2.273  0.00  0.00    +0.231 C 
ATOM     23  O   UNL     1       2.388  11.189   1.237  0.00  0.00    -0.274 OA
ATOM     24  H   UNL     1       4.107  11.302   3.942  0.00  0.00    +0.149 HD
BRANCH  21  26
ATOM     25  C   UNL     1       5.044  13.048   1.559  0.00  0.00    +0.033 C 
ATOM     26  C   UNL     1       3.873  13.021   2.543  0.00  0.00    +0.100 C 
BRANCH  26  27
ATOM     27  C   UNL     1       4.189  13.901   3.725  0.00  0.00    -0.026 A 
ATOM     28  C   UNL     1       5.005  13.429   4.736  0.00  0.00    +0.009 A 
ATOM     29  C   UNL     1       5.301  14.231   5.824  0.00  0.00    +0.048 A 
ATOM     30  C   UNL     1       4.779  15.510   5.900  0.00  0.00    +0.142 A 
ATOM     31  C   UNL     1       3.955  15.985   4.881  0.00  0.00    +0.076 A 
ATOM     32  C   UNL     1       3.667  15.180   3.792  0.00  0.00    +0.032 A 
ATOM     33  N   UNL     1       3.430  17.282   4.972  0.00  0.00    -0.280 N 
ATOM     34  C   UNL     1       3.971  18.147   5.858  0.00  0.00    +0.255 C 
ATOM     35  O   UNL     1       3.515  19.264   5.975  0.00  0.00    -0.272 OA
ATOM     36  C   UNL     1       5.145  17.716   6.700  0.00  0.00    +0.325 C 
ATOM     37  O   UNL     1       5.061  16.313   6.961  0.00  0.00    -0.481 OA
ATOM     38  H   UNL     1       2.591  17.583   4.327  0.00  0.00    +0.155 HD
ENDBRANCH  26  27
ENDBRANCH  21  26
ENDBRANCH   1  22
TORSDOF 5
