REMARK  Name = ZINC39602546
REMARK  6 active torsions:
REMARK  status: ('A' for Active; 'I' for Inactive)
REMARK    1  A    between atoms: C_1  and  C_2
REMARK    2  A    between atoms: C_3  and  C_13
REMARK    3  A    between atoms: C_4  and  C_7
REMARK    4  A    between atoms: C_17  and  C_26
REMARK    5  A    between atoms: N_28  and  C_29
REMARK    6  A    between atoms: C_32  and  C_34
REMARK                            x       y       z     vdW  Elec       q    Type
REMARK                         _______ _______ _______ _____ _____    ______ ____
ROOT
ATOM      1  C   UNL     1      -2.664  -0.382  -0.023  0.00  0.00    +0.252 C 
ATOM      2  O   UNL     1      -3.260  -0.141  -1.056  0.00  0.00    -0.270 OA
ATOM      3  N   UNL     1      -3.262  -0.169   1.166  0.00  0.00    -0.296 N 
ATOM      4  C   UNL     1      -2.701  -0.394   2.519  0.00  0.00    +0.121 C 
ATOM      5  C   UNL     1      -3.210   0.801   3.356  0.00  0.00    +0.100 C 
ATOM      6  C   UNL     1      -4.478   1.278   2.628  0.00  0.00    -0.004 C 
ATOM      7  C   UNL     1      -4.629   0.348   1.415  0.00  0.00    +0.115 C 
ATOM      8  C   UNL     1      -5.692   1.155   3.544  0.00  0.00    -0.010 C 
ATOM      9  C   UNL     1      -6.930   1.689   2.818  0.00  0.00    -0.082 C 
ATOM     10  N   UNL     1      -6.714   3.092   2.446  0.00  0.00    +0.379 N 
ATOM     11  C   UNL     1      -5.603   3.191   1.492  0.00  0.00    -0.082 C 
ATOM     12  C   UNL     1      -4.309   2.721   2.162  0.00  0.00    -0.010 C 
ATOM     13  H   UNL     1      -7.553   3.459   2.023  0.00  0.00    -0.086 HD
ATOM     14  H   UNL     1      -6.495   3.628   3.272  0.00  0.00    -0.086 HD
ENDROOT
BRANCH   1  17
ATOM     15  C   UNL     1      -0.051   1.333  -0.051  0.00  0.00    +0.090 C 
ATOM     16  C   UNL     1      -0.138  -0.171  -0.084  0.00  0.00    +0.147 A 
ATOM     17  C   UNL     1      -1.288  -0.905  -0.071  0.00  0.00    +0.106 A 
ATOM     18  C   UNL     1      -0.888  -2.320  -0.115  0.00  0.00    +0.126 A 
ATOM     19  N   UNL     1       0.420  -2.344  -0.150  0.00  0.00    -0.077 NA
ATOM     20  O   UNL     1       0.896  -1.014  -0.137  0.00  0.00    -0.359 OA
BRANCH  18  21
ATOM     21  C   UNL     1      -1.794  -3.494  -0.119  0.00  0.00    +0.004 A 
ATOM     22  C   UNL     1      -2.988  -3.458   0.601  0.00  0.00    +0.010 A 
ATOM     23  C   UNL     1      -3.827  -4.554   0.593  0.00  0.00    +0.001 A 
ATOM     24  C   UNL     1      -3.486  -5.685  -0.126  0.00  0.00    +0.000 A 
ATOM     25  C   UNL     1      -2.303  -5.726  -0.841  0.00  0.00    +0.001 A 
ATOM     26  C   UNL     1      -1.459  -4.634  -0.846  0.00  0.00    +0.010 A 
ENDBRANCH  18  21
ENDBRANCH   1  17
BRANCH   5  27
ATOM     27  C   UNL     1      -3.543   0.356   4.757  0.00  0.00    +0.218 C 
ATOM     28  O   UNL     1      -3.934  -0.774   4.957  0.00  0.00    -0.275 OA
ATOM     29  N   UNL     1      -3.406   1.214   5.787  0.00  0.00    -0.312 N 
ATOM     30  H   UNL     1      -3.093   2.118   5.627  0.00  0.00    +0.149 HD
BRANCH  29  31
ATOM     31  C   UNL     1      -3.729   0.782   7.149  0.00  0.00    +0.081 C 
ATOM     32  C   UNL     1      -2.759   1.176   8.264  0.00  0.00    +0.033 C 
ATOM     33  C   UNL     1      -4.123   1.862   8.158  0.00  0.00    +0.041 C 
BRANCH  33  34
ATOM     34  C   UNL     1      -5.163   1.505   9.189  0.00  0.00    -0.042 A 
ATOM     35  C   UNL     1      -4.932   0.468  10.074  0.00  0.00    +0.004 A 
ATOM     36  C   UNL     1      -5.886   0.141  11.019  0.00  0.00    +0.000 A 
ATOM     37  C   UNL     1      -7.071   0.850  11.080  0.00  0.00    +0.000 A 
ATOM     38  C   UNL     1      -7.301   1.887  10.195  0.00  0.00    +0.000 A 
ATOM     39  C   UNL     1      -6.346   2.217   9.253  0.00  0.00    +0.004 A 
ENDBRANCH  33  34
ENDBRANCH  29  31
ENDBRANCH   5  27
TORSDOF 5
