REMARK  Name = ZINC12531703
REMARK  11 active torsions:
REMARK  status: ('A' for Active; 'I' for Inactive)
REMARK    1  A    between atoms: C_1  and  C_2
REMARK    2  A    between atoms: C_2  and  O_33
REMARK    3  A    between atoms: C_5  and  C_22
REMARK    4  A    between atoms: C_9  and  C_20
REMARK    5  A    between atoms: C_9  and  C_21
REMARK    6  A    between atoms: C_11  and  N_13
REMARK    7  A    between atoms: N_13  and  C_14
REMARK    8  A    between atoms: C_22  and  C_23
REMARK    9  A    between atoms: C_23  and  C_24
REMARK   10  A    between atoms: N_26  and  C_27
REMARK   11  A    between atoms: C_27  and  C_28
REMARK                            x       y       z     vdW  Elec       q    Type
REMARK                         _______ _______ _______ _____ _____    ______ ____
ROOT
ATOM      1  C   UNL     1      -0.305   2.130   1.066  0.00  0.00    +0.041 C 
ATOM      2  C   UNL     1      -0.044   0.677   0.664  0.00  0.00    +0.064 C 
ATOM      3  C   UNL     1      -1.378  -0.047   0.459  0.00  0.00    +0.035 C 
ATOM      4  C   UNL     1      -1.085  -1.471  -0.016  0.00  0.00    +0.008 C 
ATOM      5  C   UNL     1      -0.244  -2.223   0.990  0.00  0.00    -0.038 C 
ATOM      6  C   UNL     1       1.044  -1.475   1.380  0.00  0.00    +0.002 C 
ATOM      7  C   UNL     1       0.729  -0.030   1.774  0.00  0.00    +0.039 C 
ATOM      8  C   UNL     1       1.452  -2.214   2.689  0.00  0.00    -0.033 C 
ATOM      9  C   UNL     1       0.108  -2.462   3.408  0.00  0.00    -0.009 C 
ATOM     10  C   UNL     1      -0.980  -2.461   2.315  0.00  0.00    -0.064 C 
ATOM     11  C   UNL     1       2.363  -1.330   3.543  0.00  0.00    +0.011 C 
ATOM     12  C   UNL     1       2.139  -3.541   2.364  0.00  0.00    +0.011 C 
ENDROOT
BRANCH  10  13
ATOM     13  N   UNL     1      -1.670  -3.757   2.286  0.00  0.00    +0.383 N 
ATOM     14  H   UNL     1      -1.010  -4.484   2.050  0.00  0.00    -0.085 HD
ATOM     15  H   UNL     1      -2.068  -3.947   3.193  0.00  0.00    -0.085 HD
BRANCH  13  16
ATOM     16  C   UNL     1      -2.739  -3.721   1.279  0.00  0.00    -0.067 C 
ATOM     17  C   UNL     1      -3.759  -2.642   1.654  0.00  0.00    +0.012 C 
ATOM     18  C   UNL     1      -4.909  -2.664   0.643  0.00  0.00    +0.158 C 
ATOM     19  O   UNL     1      -5.501  -3.965   0.626  0.00  0.00    -0.380 OA
ATOM     20  C   UNL     1      -4.605  -5.008   0.236  0.00  0.00    +0.158 C 
ATOM     21  C   UNL     1      -3.444  -5.080   1.230  0.00  0.00    +0.012 C 
ENDBRANCH  13  16
ENDBRANCH  10  13
BRANCH   2  22
ATOM     22  O   UNL     1       0.716   0.644  -0.545  0.00  0.00    -0.389 OA
ATOM     23  H   UNL     1       0.280   1.072  -1.295  0.00  0.00    +0.210 HD
ENDBRANCH   2  22
BRANCH   5  24
ATOM     24  C   UNL     1       0.154  -3.575   0.394  0.00  0.00    +0.015 C 
BRANCH  24  25
ATOM     25  C   UNL     1       1.085  -3.352  -0.799  0.00  0.00    +0.096 C 
BRANCH  25  26
ATOM     26  C   UNL     1       1.436  -4.680  -1.417  0.00  0.00    +0.213 C 
ATOM     27  O   UNL     1       0.986  -5.705  -0.950  0.00  0.00    -0.276 OA
ATOM     28  N   UNL     1       2.251  -4.730  -2.490  0.00  0.00    -0.308 N 
ATOM     29  H   UNL     1       2.611  -3.911  -2.864  0.00  0.00    +0.149 HD
BRANCH  28  30
ATOM     30  C   UNL     1       2.592  -6.022  -3.091  0.00  0.00    +0.178 C 
BRANCH  30  31
ATOM     31  C   UNL     1       3.510  -5.803  -4.266  0.00  0.00    +0.122 A 
ATOM     32  C   UNL     1       4.853  -5.772  -4.220  0.00  0.00    +0.046 A 
ATOM     33  C   UNL     1       5.303  -5.542  -5.540  0.00  0.00    +0.041 A 
ATOM     34  C   UNL     1       4.207  -5.446  -6.314  0.00  0.00    +0.195 A 
ATOM     35  O   UNL     1       3.124  -5.610  -5.538  0.00  0.00    -0.466 OA
ENDBRANCH  30  31
ENDBRANCH  28  30
ENDBRANCH  25  26
ENDBRANCH  24  25
ENDBRANCH   5  24
TORSDOF 8
