REMARK  Name = ZINC08695762
REMARK  13 active torsions:
REMARK  status: ('A' for Active; 'I' for Inactive)
REMARK    1  A    between atoms: C_1  and  N_2
REMARK    2  A    between atoms: N_2  and  C_3
REMARK    3  A    between atoms: N_2  and  C_4
REMARK    4  A    between atoms: C_7  and  N_10
REMARK    5  A    between atoms: C_11  and  C_13
REMARK    6  A    between atoms: C_13  and  C_15
REMARK    7  A    between atoms: C_13  and  N_22
REMARK    8  A    between atoms: N_22  and  C_23
REMARK    9  A    between atoms: C_23  and  C_24
REMARK   10  A    between atoms: C_27  and  O_30
REMARK   11  A    between atoms: O_30  and  C_31
REMARK   12  A    between atoms: C_32  and  C_34
REMARK   13  A    between atoms: C_34  and  N_35
REMARK                            x       y       z     vdW  Elec       q    Type
REMARK                         _______ _______ _______ _____ _____    ______ ____
ROOT
ATOM      1  N   UNL     1       2.655   6.461  -1.771  0.00  0.00    -0.284 N 
ATOM      2  C   UNL     1       1.823   5.409  -1.896  0.00  0.00    +0.234 C 
ATOM      3  O   UNL     1       1.541   4.986  -2.997  0.00  0.00    -0.274 OA
ENDROOT
BRANCH   1   4
ATOM      4  C   UNL     1       3.098   6.891  -0.442  0.00  0.00    +0.166 C 
BRANCH   4   5
ATOM      5  C   UNL     1       1.877   7.174   0.435  0.00  0.00    +0.023 C 
ATOM      6  C   UNL     1       0.949   8.166  -0.277  0.00  0.00    +0.010 C 
ATOM      7  C   UNL     1      -0.341   8.293   0.537  0.00  0.00    +0.027 C 
ATOM      8  C   UNL     1      -0.019   8.539   1.982  0.00  0.00    -0.031 C 
ATOM      9  C   UNL     1       1.141   8.319   2.514  0.00  0.00    -0.031 C 
ATOM     10  C   UNL     1       2.327   7.796   1.758  0.00  0.00    +0.032 C 
ENDBRANCH   4   5
BRANCH   4  12
ATOM     11  N   UNL     1       4.597   6.042   1.333  0.00  0.00    -0.284 N 
ATOM     12  C   UNL     1       3.928   5.802   0.188  0.00  0.00    +0.238 C 
ATOM     13  O   UNL     1       3.993   4.710  -0.336  0.00  0.00    -0.273 OA
ATOM     14  H   UNL     1       4.482   6.888   1.793  0.00  0.00    +0.155 HD
BRANCH  11  18
ATOM     15  C   UNL     1       7.163   3.148   2.894  0.00  0.00    +0.029 A 
ATOM     16  C   UNL     1       7.032   3.291   1.518  0.00  0.00    +0.025 A 
ATOM     17  C   UNL     1       6.183   4.249   1.002  0.00  0.00    +0.025 A 
ATOM     18  C   UNL     1       5.459   5.070   1.857  0.00  0.00    +0.034 A 
ATOM     19  C   UNL     1       5.594   4.931   3.232  0.00  0.00    +0.025 A 
ATOM     20  C   UNL     1       6.439   3.969   3.749  0.00  0.00    +0.025 A 
BRANCH  15  22
ATOM     21  C   UNL     1       8.878   1.395   2.521  0.00  0.00    +0.129 C 
ATOM     22  N   UNL     1       8.023   2.177   3.417  0.00  0.00    -0.336 N 
ATOM     23  C   UNL     1       8.068   1.942   4.863  0.00  0.00    +0.129 C 
ENDBRANCH  15  22
ENDBRANCH  11  18
ENDBRANCH   4  12
ENDBRANCH   1   4
BRANCH   1  24
ATOM     24  C   UNL     1       3.118   7.174  -2.964  0.00  0.00    +0.143 C 
BRANCH  24  25
ATOM     25  C   UNL     1       2.160   8.293  -3.284  0.00  0.00    -0.030 A 
ATOM     26  C   UNL     1       1.088   8.063  -4.126  0.00  0.00    +0.009 A 
ATOM     27  C   UNL     1       0.205   9.085  -4.417  0.00  0.00    +0.046 A 
ATOM     28  C   UNL     1       0.401  10.345  -3.871  0.00  0.00    +0.120 A 
ATOM     29  C   UNL     1       1.480  10.575  -3.030  0.00  0.00    +0.046 A 
ATOM     30  C   UNL     1       2.357   9.548  -2.739  0.00  0.00    +0.009 A 
BRANCH  28  31
ATOM     31  O   UNL     1      -0.464  11.354  -4.159  0.00  0.00    -0.495 OA
ATOM     32  C   UNL     1      -1.553  11.045  -5.032  0.00  0.00    +0.277 C 
ENDBRANCH  28  31
ENDBRANCH  24  25
ENDBRANCH   1  24
BRANCH   2  33
ATOM     33  C   UNL     1       1.241   4.757  -0.668  0.00  0.00    +0.210 C 
BRANCH  33  34
ATOM     34  N   UNL     1       0.635   3.475  -1.035  0.00  0.00    -0.255 N 
ATOM     35  C   UNL     1      -0.693   3.319  -1.425  0.00  0.00    +0.048 A 
ATOM     36  C   UNL     1      -1.723   4.239  -1.565  0.00  0.00    +0.024 A 
ATOM     37  C   UNL     1      -2.976   3.824  -1.976  0.00  0.00    +0.002 A 
ATOM     38  C   UNL     1      -3.223   2.489  -2.253  0.00  0.00    +0.001 A 
ATOM     39  C   UNL     1      -2.213   1.557  -2.121  0.00  0.00    +0.014 A 
ATOM     40  C   UNL     1      -0.944   1.967  -1.713  0.00  0.00    +0.048 A 
ATOM     41  C   UNL     1       0.319   1.244  -1.472  0.00  0.00    +0.250 C 
ATOM     42  O   UNL     1       0.527   0.055  -1.600  0.00  0.00    -0.282 OA
ATOM     43  C   UNL     1       1.290   2.301  -1.038  0.00  0.00    +0.292 C 
ATOM     44  O   UNL     1       2.454   2.129  -0.745  0.00  0.00    -0.266 OA
ENDBRANCH  33  34
ENDBRANCH   2  33
TORSDOF 10
