REMARK  Name = ZINC13500009
REMARK  10 active torsions:
REMARK  status: ('A' for Active; 'I' for Inactive)
REMARK    1  A    between atoms: C_1  and  C_2
REMARK    2  A    between atoms: C_3  and  C_31
REMARK    3  A    between atoms: C_10  and  S_17
REMARK    4  A    between atoms: C_12  and  C_14
REMARK    5  A    between atoms: C_14  and  C_15
REMARK    6  A    between atoms: C_14  and  C_16
REMARK    7  A    between atoms: S_17  and  C_18
REMARK    8  A    between atoms: C_18  and  C_19
REMARK    9  A    between atoms: N_21  and  N_22
REMARK   10  A    between atoms: C_23  and  C_25
REMARK                            x       y       z     vdW  Elec       q    Type
REMARK                         _______ _______ _______ _____ _____    ______ ____
ROOT
ATOM      1  C   UNL     1       8.369   8.817  -0.002  0.00  0.00    +0.045 C 
ATOM      2  C   UNL     1       7.299   9.878  -0.027  0.00  0.00    -0.028 A 
ATOM      3  C   UNL     1       7.643  11.178  -0.067  0.00  0.00    -0.008 A 
ATOM      4  S   UNL     1       6.061  12.005  -0.082  0.00  0.00    -0.073 S 
ATOM      5  C   UNL     1       5.021  10.566  -0.032  0.00  0.00    +0.114 A 
ATOM      6  C   UNL     1       5.944   9.507  -0.007  0.00  0.00    +0.055 A 
ATOM      7  C   UNL     1       5.338   8.158   0.037  0.00  0.00    +0.173 A 
ATOM      8  N   UNL     1       5.824   6.941   0.070  0.00  0.00    -0.128 NA
ATOM      9  N   UNL     1       4.858   6.090   0.102  0.00  0.00    -0.122 NA
ATOM     10  C   UNL     1       3.702   6.712   0.091  0.00  0.00    +0.198 A 
ATOM     11  N   UNL     1       3.964   8.053   0.044  0.00  0.00    -0.257 N 
ATOM     12  C   UNL     1       3.184   9.172   0.021  0.00  0.00    +0.121 A 
ATOM     13  N   UNL     1       3.707  10.364  -0.018  0.00  0.00    -0.226 NA
ATOM     14  C   UNL     1       9.022  11.786  -0.094  0.00  0.00    +0.052 C 
ENDROOT
BRANCH  12  15
ATOM     15  C   UNL     1       1.684   9.026   0.034  0.00  0.00    +0.049 C 
ATOM     16  C   UNL     1       1.130   9.575   1.350  0.00  0.00    +0.015 C 
ATOM     17  C   UNL     1       1.084   9.806  -1.137  0.00  0.00    +0.015 C 
ENDBRANCH  12  15
BRANCH  10  18
ATOM     18  S   UNL     1       2.109   5.959   0.123  0.00  0.00    -0.076 S 
BRANCH  18  19
ATOM     19  C   UNL     1       2.465   4.181   0.174  0.00  0.00    +0.174 C 
BRANCH  19  20
ATOM     20  C   UNL     1       1.171   3.410   0.204  0.00  0.00    +0.239 C 
ATOM     21  O   UNL     1       0.112   4.002   0.193  0.00  0.00    -0.273 OA
ATOM     22  N   UNL     1       1.189   2.063   0.244  0.00  0.00    -0.234 N 
ATOM     23  H   UNL     1       2.036   1.590   0.253  0.00  0.00    +0.173 HD
BRANCH  22  24
ATOM     24  N   UNL     1      -0.014   1.347   0.273  0.00  0.00    -0.234 N 
ATOM     25  C   UNL     1       0.004  -0.000   0.313  0.00  0.00    +0.232 C 
ATOM     26  O   UNL     1       1.063  -0.592   0.324  0.00  0.00    -0.274 OA
ATOM     27  H   UNL     1      -0.861   1.820   0.260  0.00  0.00    +0.173 HD
BRANCH  25  28
ATOM     28  C   UNL     1      -1.290  -0.771   0.344  0.00  0.00    +0.076 C 
ATOM     29  C   UNL     1      -2.090  -0.376   1.587  0.00  0.00    +0.013 C 
ATOM     30  C   UNL     1      -3.404  -1.158   1.618  0.00  0.00    +0.001 C 
ATOM     31  C   UNL     1      -3.104  -2.658   1.661  0.00  0.00    +0.000 C 
ATOM     32  C   UNL     1      -2.304  -3.054   0.418  0.00  0.00    +0.001 C 
ATOM     33  C   UNL     1      -0.990  -2.271   0.387  0.00  0.00    +0.013 C 
ENDBRANCH  25  28
ENDBRANCH  22  24
ENDBRANCH  19  20
ENDBRANCH  18  19
ENDBRANCH  10  18
TORSDOF 6
