REMARK  Name = ZINC39676386
REMARK  7 active torsions:
REMARK  status: ('A' for Active; 'I' for Inactive)
REMARK    1  A    between atoms: C_1  and  O_2
REMARK    2  A    between atoms: O_2  and  C_3
REMARK    3  A    between atoms: C_7  and  C_9
REMARK    4  A    between atoms: C_13  and  C_22
REMARK    5  A    between atoms: N_24  and  C_25
REMARK    6  A    between atoms: C_25  and  C_26
REMARK    7  A    between atoms: C_26  and  C_27
REMARK                            x       y       z     vdW  Elec       q    Type
REMARK                         _______ _______ _______ _____ _____    ______ ____
ROOT
ATOM      1  C   UNL     1       1.332  -4.076  -2.303  0.00  0.00    +0.247 C 
ATOM      2  O   UNL     1       0.934  -4.754  -1.376  0.00  0.00    -0.270 OA
ATOM      3  N   UNL     1       1.840  -4.669  -3.401  0.00  0.00    -0.296 N 
ATOM      4  C   UNL     1       2.486  -4.021  -4.567  0.00  0.00    +0.121 C 
ATOM      5  C   UNL     1       3.659  -4.957  -4.934  0.00  0.00    +0.100 C 
ATOM      6  C   UNL     1       3.255  -6.331  -4.375  0.00  0.00    -0.004 C 
ATOM      7  C   UNL     1       1.885  -6.118  -3.714  0.00  0.00    +0.115 C 
ATOM      8  C   UNL     1       4.269  -6.798  -3.336  0.00  0.00    -0.010 C 
ATOM      9  C   UNL     1       3.876  -8.191  -2.836  0.00  0.00    -0.082 C 
ATOM     10  N   UNL     1       3.839  -9.126  -3.968  0.00  0.00    +0.379 N 
ATOM     11  C   UNL     1       2.796  -8.721  -4.918  0.00  0.00    -0.082 C 
ATOM     12  C   UNL     1       3.143  -7.350  -5.506  0.00  0.00    -0.010 C 
ATOM     13  H   UNL     1       4.734  -9.126  -4.432  0.00  0.00    -0.086 HD
ATOM     14  H   UNL     1       3.639 -10.055  -3.628  0.00  0.00    -0.086 HD
ENDROOT
BRANCH   1  19
ATOM     15  C   UNL     1       1.147  -0.460  -3.314  0.00  0.00    +0.121 A 
ATOM     16  C   UNL     1       1.123   0.164  -2.074  0.00  0.00    +0.045 A 
ATOM     17  C   UNL     1       1.166  -0.589  -0.915  0.00  0.00    +0.004 A 
ATOM     18  C   UNL     1       1.234  -1.966  -0.983  0.00  0.00    +0.013 A 
ATOM     19  C   UNL     1       1.259  -2.602  -2.226  0.00  0.00    +0.040 A 
ATOM     20  C   UNL     1       1.209  -1.841  -3.394  0.00  0.00    +0.058 A 
BRANCH  15  22
ATOM     21  C   UNL     1       1.040   1.704  -4.293  0.00  0.00    +0.277 C 
ATOM     22  O   UNL     1       1.104   0.285  -4.450  0.00  0.00    -0.495 OA
ENDBRANCH  15  22
ENDBRANCH   1  19
BRANCH   5  23
ATOM     23  C   UNL     1       3.828  -5.025  -6.430  0.00  0.00    +0.218 C 
ATOM     24  O   UNL     1       2.884  -4.799  -7.158  0.00  0.00    -0.275 OA
ATOM     25  N   UNL     1       5.027  -5.337  -6.960  0.00  0.00    -0.315 N 
ATOM     26  H   UNL     1       5.782  -5.518  -6.378  0.00  0.00    +0.149 HD
BRANCH  25  27
ATOM     27  C   UNL     1       5.191  -5.403  -8.414  0.00  0.00    +0.109 C 
BRANCH  27  28
ATOM     28  C   UNL     1       6.637  -5.775  -8.748  0.00  0.00    +0.056 C 
BRANCH  28  29
ATOM     29  C   UNL     1       6.806  -5.843 -10.244  0.00  0.00    -0.021 A 
ATOM     30  C   UNL     1       7.092  -4.721 -11.141  0.00  0.00    +0.004 A 
ATOM     31  C   UNL     1       7.287  -3.351 -10.949  0.00  0.00    +0.030 A 
ATOM     32  C   UNL     1       7.546  -2.542 -12.033  0.00  0.00    +0.042 A 
ATOM     33  C   UNL     1       7.613  -3.080 -13.311  0.00  0.00    +0.022 A 
ATOM     34  C   UNL     1       7.423  -4.429 -13.516  0.00  0.00    +0.027 A 
ATOM     35  C   UNL     1       7.160  -5.265 -12.436  0.00  0.00    +0.047 A 
ATOM     36  N   UNL     1       6.931  -6.619 -12.320  0.00  0.00    -0.360 N 
ATOM     37  C   UNL     1       6.728  -6.945 -11.007  0.00  0.00    +0.087 A 
ATOM     38 CL   UNL     1       7.790  -0.839 -11.799  0.00  0.00    -0.084 Cl
ATOM     39  H   UNL     1       6.919  -7.247 -13.059  0.00  0.00    +0.165 HD
ENDBRANCH  28  29
ENDBRANCH  27  28
ENDBRANCH  25  27
ENDBRANCH   5  23
TORSDOF 6
