REMARK  Name = ZINC15675860
REMARK  3 active torsions:
REMARK  status: ('A' for Active; 'I' for Inactive)
REMARK    1  A    between atoms: C_6  and  C_7
REMARK    2  A    between atoms: C_9  and  C_12
REMARK    3  A    between atoms: N_25  and  C_26
REMARK                            x       y       z     vdW  Elec       q    Type
REMARK                         _______ _______ _______ _____ _____    ______ ____
ROOT
ATOM      1  C   UNL     1      -3.906  -4.601  -0.515  0.00  0.00    +0.172 C 
ATOM      2  C   UNL     1      -4.932  -4.691  -1.652  0.00  0.00    +0.087 C 
ATOM      3  C   UNL     1      -5.908  -3.552  -1.516  0.00  0.00    +0.040 A 
ATOM      4  C   UNL     1      -6.094  -2.825  -0.394  0.00  0.00    +0.054 A 
ATOM      5  N   UNL     1      -7.035  -1.911  -0.642  0.00  0.00    -0.348 N 
ATOM      6  C   UNL     1      -7.440  -2.039  -1.879  0.00  0.00    +0.171 A 
ATOM      7  N   UNL     1      -6.757  -3.054  -2.458  0.00  0.00    -0.349 N 
ATOM      8  H   UNL     1      -6.854  -3.366  -3.371  0.00  0.00    +0.166 HD
ATOM      9  C   UNL     1      -5.331  -3.054   0.889  0.00  0.00    +0.165 C 
ATOM     10  N   UNL     1      -4.609  -4.333   0.749  0.00  0.00    -0.267 N 
ATOM     11  C   UNL     1      -4.594  -5.234   1.751  0.00  0.00    +0.307 C 
ATOM     12  O   UNL     1      -4.077  -6.321   1.583  0.00  0.00    -0.252 OA
ATOM     13  N   UNL     1      -5.153  -4.929   2.939  0.00  0.00    -0.269 N 
ATOM     14  H   UNL     1      -5.632  -4.093   3.049  0.00  0.00    +0.156 HD
ATOM     15  H   UNL     1      -7.365  -1.257  -0.006  0.00  0.00    +0.166 HD
ENDROOT
BRANCH  13  16
ATOM     16  C   UNL     1      -5.041  -5.819   4.014  0.00  0.00    +0.035 A 
ATOM     17  C   UNL     1      -3.899  -6.595   4.158  0.00  0.00    +0.025 A 
ATOM     18  C   UNL     1      -3.791  -7.473   5.220  0.00  0.00    +0.022 A 
ATOM     19  C   UNL     1      -4.821  -7.578   6.138  0.00  0.00    +0.041 A 
ATOM     20  C   UNL     1      -5.960  -6.806   5.996  0.00  0.00    +0.022 A 
ATOM     21  C   UNL     1      -6.070  -5.923   4.940  0.00  0.00    +0.025 A 
ATOM     22 CL   UNL     1      -4.682  -8.682   7.471  0.00  0.00    -0.084 Cl
ENDBRANCH  13  16
BRANCH   1  25
ATOM     23  C   UNL     1      -1.127  -2.424  -1.358  0.00  0.00    +0.202 A 
ATOM     24  N   UNL     1      -1.706  -3.628  -1.203  0.00  0.00    -0.190 NA
ATOM     25  C   UNL     1      -2.936  -3.484  -0.799  0.00  0.00    +0.249 A 
ATOM     26  O   UNL     1      -3.192  -2.175  -0.680  0.00  0.00    -0.336 OA
ATOM     27  N   UNL     1      -1.999  -1.498  -1.043  0.00  0.00    -0.056 NA
BRANCH  23  33
ATOM     28  C   UNL     1       0.751  -0.882  -1.919  0.00  0.00    +0.013 A 
ATOM     29  C   UNL     1       2.049  -0.665  -2.335  0.00  0.00    +0.021 A 
ATOM     30  C   UNL     1       2.870  -1.738  -2.637  0.00  0.00    +0.041 A 
ATOM     31  C   UNL     1       2.394  -3.033  -2.525  0.00  0.00    +0.021 A 
ATOM     32  C   UNL     1       1.098  -3.261  -2.110  0.00  0.00    +0.013 A 
ATOM     33  C   UNL     1       0.268  -2.184  -1.804  0.00  0.00    +0.023 A 
ATOM     34 CL   UNL     1       4.502  -1.457  -3.160  0.00  0.00    -0.084 Cl
ENDBRANCH  23  33
ENDBRANCH   1  25
TORSDOF 3
