REMARK  Name = ZINC08876659
REMARK  3 active torsions:
REMARK  status: ('A' for Active; 'I' for Inactive)
REMARK    1  A    between atoms: C_4  and  N_7
REMARK    2  A    between atoms: C_12  and  C_28
REMARK    3  A    between atoms: C_28  and  C_29
REMARK                            x       y       z     vdW  Elec       q    Type
REMARK                         _______ _______ _______ _____ _____    ______ ____
ROOT
ATOM      1  N   UNL     1       1.067   1.996   0.003  0.00  0.00    -0.210 N 
ATOM      2  C   UNL     1       0.789   3.283  -0.233  0.00  0.00    +0.228 C 
ATOM      3  O   UNL     1       1.607   4.144  -0.473  0.00  0.00    -0.275 OA
ATOM      4  C   UNL     1      -0.706   3.497  -0.152  0.00  0.00    +0.074 C 
ATOM      5  C   UNL     1      -1.030   4.372   1.077  0.00  0.00    -0.053 C 
ATOM      6  C   UNL     1      -1.839   2.248   1.614  0.00  0.00    +0.050 C 
ATOM      7  C   UNL     1      -1.253   2.081   0.184  0.00  0.00    +0.088 C 
ATOM      8  C   UNL     1      -0.004   1.232   0.248  0.00  0.00    +0.229 C 
ATOM      9  O   UNL     1       0.024   0.043   0.481  0.00  0.00    -0.275 OA
ATOM     10  C   UNL     1      -1.639   1.011   2.443  0.00  0.00    -0.028 A 
ATOM     11  C   UNL     1      -0.525   0.312   2.850  0.00  0.00    +0.004 A 
ATOM     12  C   UNL     1      -0.665  -0.822   3.631  0.00  0.00    +0.000 A 
ATOM     13  C   UNL     1      -1.927  -1.249   4.003  0.00  0.00    +0.002 A 
ATOM     14  C   UNL     1      -3.046  -0.552   3.597  0.00  0.00    +0.023 A 
ATOM     15  C   UNL     1      -2.914   0.589   2.810  0.00  0.00    +0.036 A 
ATOM     16  N   UNL     1      -3.878   1.451   2.283  0.00  0.00    -0.286 N 
ATOM     17  C   UNL     1      -3.329   2.451   1.567  0.00  0.00    +0.211 C 
ATOM     18  O   UNL     1      -3.920   3.343   0.996  0.00  0.00    -0.277 OA
ATOM     19  H   UNL     1      -4.832   1.342   2.417  0.00  0.00    +0.155 HD
ATOM     20  N   UNL     1      -1.167   3.409   2.171  0.00  0.00    +0.394 N 
ATOM     21  H   UNL     1      -1.728   3.813   2.931  0.00  0.00    -0.083 HD
ATOM     22  H   UNL     1      -0.242   3.146   2.531  0.00  0.00    -0.083 HD
ENDROOT
BRANCH   1  26
ATOM     23  C   UNL     1       4.954   0.489  -0.025  0.00  0.00    +0.000 A 
ATOM     24  C   UNL     1       4.056   0.099  -1.001  0.00  0.00    +0.002 A 
ATOM     25  C   UNL     1       2.767   0.596  -0.994  0.00  0.00    +0.024 A 
ATOM     26  C   UNL     1       2.374   1.489  -0.006  0.00  0.00    +0.044 A 
ATOM     27  C   UNL     1       3.280   1.883   0.969  0.00  0.00    +0.024 A 
ATOM     28  C   UNL     1       4.566   1.378   0.960  0.00  0.00    +0.002 A 
ENDBRANCH   1  26
BRANCH   5  29
ATOM     29  C   UNL     1       0.107   5.362   1.340  0.00  0.00    +0.022 C 
BRANCH  29  30
ATOM     30  C   UNL     1      -0.282   6.287   2.465  0.00  0.00    -0.024 A 
ATOM     31  C   UNL     1      -0.836   7.503   2.342  0.00  0.00    +0.087 A 
ATOM     32  N   UNL     1      -1.050   8.045   3.581  0.00  0.00    -0.360 N 
ATOM     33  H   UNL     1      -1.440   8.917   3.748  0.00  0.00    +0.165 HD
ATOM     34  C   UNL     1      -0.628   7.168   4.555  0.00  0.00    +0.047 A 
ATOM     35  C   UNL     1      -0.134   6.025   3.898  0.00  0.00    +0.003 A 
ATOM     36  C   UNL     1       0.374   4.959   4.643  0.00  0.00    +0.010 A 
ATOM     37  C   UNL     1       0.377   5.026   6.008  0.00  0.00    +0.001 A 
ATOM     38  C   UNL     1      -0.114   6.149   6.660  0.00  0.00    +0.002 A 
ATOM     39  C   UNL     1      -0.614   7.215   5.945  0.00  0.00    +0.026 A 
ENDBRANCH  29  30
ENDBRANCH   5  29
TORSDOF 3
