REMARK  Name = ZINC38975456
REMARK  7 active torsions:
REMARK  status: ('A' for Active; 'I' for Inactive)
REMARK    1  A    between atoms: C_1  and  C_2
REMARK    2  A    between atoms: C_2  and  O_3
REMARK    3  A    between atoms: O_3  and  C_4
REMARK    4  A    between atoms: C_7  and  C_10
REMARK    5  A    between atoms: N_16  and  N_17
REMARK    6  A    between atoms: C_18  and  C_19
REMARK    7  A    between atoms: C_24  and  O_25
REMARK                            x       y       z     vdW  Elec       q    Type
REMARK                         _______ _______ _______ _____ _____    ______ ____
ROOT
ATOM      1  C   UNL     1       1.054  -6.179  -1.901  0.00  0.00    +0.264 C 
ATOM      2  N   UNL     1       1.250  -6.697  -0.539  0.00  0.00    -0.189 NA
ATOM      3  N   UNL     1       2.424  -7.062  -0.432  0.00  0.00    -0.219 N 
ATOM      4  C   UNL     1       3.151  -6.879  -1.567  0.00  0.00    +0.174 C 
ATOM      5  S   UNL     1       4.806  -7.282  -1.747  0.00  0.00    -0.015 S 
ATOM      6  N   UNL     1       2.376  -6.335  -2.536  0.00  0.00    -0.172 N 
ATOM      7  H   UNL     1       2.792  -7.441   0.381  0.00  0.00    +0.176 HD
ENDROOT
BRANCH   1  11
ATOM      8  C   UNL     1      -0.078  -2.059  -1.790  0.00  0.00    +0.121 A 
ATOM      9  C   UNL     1      -0.488  -2.920  -0.782  0.00  0.00    +0.046 A 
ATOM     10  C   UNL     1      -0.121  -4.251  -0.821  0.00  0.00    +0.011 A 
ATOM     11  C   UNL     1       0.655  -4.726  -1.862  0.00  0.00    -0.002 A 
ATOM     12  C   UNL     1       1.065  -3.870  -2.868  0.00  0.00    +0.011 A 
ATOM     13  C   UNL     1       0.695  -2.539  -2.837  0.00  0.00    +0.046 A 
BRANCH   8  14
ATOM     14  O   UNL     1      -0.439  -0.750  -1.755  0.00  0.00    -0.492 OA
BRANCH  14  16
ATOM     15  C   UNL     1      -1.539   1.168  -0.780  0.00  0.00    +0.048 C 
ATOM     16  C   UNL     1      -1.235  -0.325  -0.647  0.00  0.00    +0.225 C 
ENDBRANCH  14  16
ENDBRANCH   8  14
ENDBRANCH   1  11
BRANCH   6  17
ATOM     17  N   UNL     1       2.745  -5.996  -3.844  0.00  0.00    -0.183 NA
ATOM     18  C   UNL     1       3.928  -6.301  -4.285  0.00  0.00    +0.142 C 
BRANCH  18  19
ATOM     19  C   UNL     1       4.376  -5.804  -5.598  0.00  0.00    +0.038 A 
ATOM     20  C   UNL     1       5.646  -6.135  -6.079  0.00  0.00    +0.028 A 
ATOM     21  C   UNL     1       6.059  -5.667  -7.309  0.00  0.00    +0.020 A 
ATOM     22  C   UNL     1       5.220  -4.870  -8.070  0.00  0.00    +0.034 A 
ATOM     23  C   UNL     1       3.962  -4.535  -7.605  0.00  0.00    +0.061 A 
ATOM     24  C   UNL     1       3.529  -5.002  -6.374  0.00  0.00    +0.139 A 
ATOM     25 BR   UNL     1       2.827  -3.445  -8.654  0.00  0.00    -0.046 Br
ATOM     26 BR   UNL     1       7.777  -6.115  -7.958  0.00  0.00    -0.050 Br
BRANCH  24  27
ATOM     27  O   UNL     1       2.291  -4.678  -5.919  0.00  0.00    -0.505 OA
ATOM     28  H   UNL     1       2.263  -3.862  -5.401  0.00  0.00    +0.292 HD
ENDBRANCH  24  27
ENDBRANCH  18  19
ENDBRANCH   6  17
TORSDOF 6
