REMARK  Name = ZINC28294634
REMARK  7 active torsions:
REMARK  status: ('A' for Active; 'I' for Inactive)
REMARK    1  A    between atoms: C_1  and  C_2
REMARK    2  A    between atoms: C_2  and  C_3
REMARK    3  A    between atoms: C_3  and  C_4
REMARK    4  A    between atoms: C_4  and  O_5
REMARK    5  A    between atoms: O_5  and  C_6
REMARK    6  A    between atoms: C_12  and  C_29
REMARK    7  A    between atoms: C_23  and  C_28
REMARK                            x       y       z     vdW  Elec       q    Type
REMARK                         _______ _______ _______ _____ _____    ______ ____
ROOT
ATOM      1  C   UNL     1      -1.064   3.612   0.218  0.00  0.00    +0.159 C 
ATOM      2  C   UNL     1       0.157   4.078  -0.701  0.00  0.00    +0.107 C 
ATOM      3  C   UNL     1       0.225   5.517  -0.364  0.00  0.00    +0.024 C 
ATOM      4  C   UNL     1      -1.299   5.928  -0.446  0.00  0.00    +0.004 C 
ATOM      5  C   UNL     1      -2.077   4.616  -0.308  0.00  0.00    +0.020 C 
ATOM      6  C   UNL     1      -3.370   4.640   0.440  0.00  0.00    +0.012 C 
ATOM      7  C   UNL     1      -3.333   5.571   1.648  0.00  0.00    +0.005 C 
ATOM      8  C   UNL     1      -2.970   6.967   1.162  0.00  0.00    -0.001 C 
ATOM      9  C   UNL     1      -1.532   6.947   0.649  0.00  0.00    -0.004 C 
ATOM     10  C   UNL     1      -0.592   6.688   1.832  0.00  0.00    +0.004 C 
ATOM     11  C   UNL     1      -0.698   7.867   2.799  0.00  0.00    +0.004 C 
ATOM     12  C   UNL     1      -2.122   7.976   3.349  0.00  0.00    -0.005 C 
ATOM     13  C   UNL     1      -3.140   8.045   2.209  0.00  0.00    -0.026 C 
ATOM     14  C   UNL     1      -4.560   8.083   2.773  0.00  0.00    +0.007 C 
ATOM     15  C   UNL     1      -4.835   6.978   3.779  0.00  0.00    +0.001 C 
ATOM     16  C   UNL     1      -3.796   6.994   4.901  0.00  0.00    +0.000 C 
ATOM     17  C   UNL     1      -2.409   6.796   4.276  0.00  0.00    +0.004 C 
ATOM     18  C   UNL     1      -2.919   9.374   1.484  0.00  0.00    +0.012 C 
ATOM     19  C   UNL     1      -2.396   4.149  -1.729  0.00  0.00    +0.016 C 
ATOM     20  S   UNL     1       1.254   2.767  -0.153  0.00  0.00    -0.085 S 
ATOM     21  C   UNL     1      -0.032   1.504  -0.081  0.00  0.00    +0.128 C 
ATOM     22  N   UNL     1      -1.173   2.186   0.004  0.00  0.00    -0.339 N 
ATOM     23  N   UNL     1       0.130   0.138  -0.114  0.00  0.00    -0.339 N 
ATOM     24  H   UNL     1      -0.750  -0.521  -0.061  0.00  0.00    +0.144 HD
ATOM     25  H   UNL     1       1.138  -0.295  -0.192  0.00  0.00    +0.144 HD
ATOM     26  H   UNL     1      -2.135   1.661  -0.087  0.00  0.00    +0.164 HD
ENDROOT
BRANCH   1  27
ATOM     27  O   UNL     1      -0.784   3.892   1.591  0.00  0.00    -0.353 OA
BRANCH  27  28
ATOM     28  C   UNL     1       0.295   3.128   2.131  0.00  0.00    +0.163 C 
BRANCH  28  29
ATOM     29  C   UNL     1       0.405   3.392   3.635  0.00  0.00    +0.028 C 
BRANCH  29  31
ATOM     30  C   UNL     1       1.670   2.837   5.716  0.00  0.00    +0.004 C 
ATOM     31  C   UNL     1       1.560   2.573   4.213  0.00  0.00    -0.001 C 
ENDBRANCH  29  31
ENDBRANCH  28  29
ENDBRANCH  27  28
ENDBRANCH   1  27
TORSDOF 4
