REMARK  Name = ZINC14536342
REMARK  13 active torsions:
REMARK  status: ('A' for Active; 'I' for Inactive)
REMARK    1  A    between atoms: C_1  and  C_2
REMARK    2  A    between atoms: C_2  and  C_3
REMARK    3  A    between atoms: C_2  and  C_4
REMARK    4  A    between atoms: C_4  and  N_5
REMARK    5  A    between atoms: N_8  and  C_29
REMARK    6  A    between atoms: C_16  and  C_17
REMARK    7  A    between atoms: C_16  and  N_72
REMARK    8  A    between atoms: C_20  and  C_23
REMARK    9  A    between atoms: C_24  and  C_25
REMARK   10  A    between atoms: C_25  and  C_26
REMARK   11  A    between atoms: C_25  and  C_27
REMARK   12  A    between atoms: C_25  and  O_28
REMARK   13  A    between atoms: C_29  and  C_30
REMARK                            x       y       z     vdW  Elec       q    Type
REMARK                         _______ _______ _______ _____ _____    ______ ____
ROOT
ATOM      1  N   UNL     1      -2.111   0.532   1.674  0.00  0.00    -0.271 N 
ATOM      2  C   UNL     1      -2.282  -0.392   2.639  0.00  0.00    +0.312 C 
ATOM      3  O   UNL     1      -3.306  -1.028   2.792  0.00  0.00    -0.252 OA
ATOM      4  N   UNL     1      -1.197  -0.531   3.410  0.00  0.00    -0.218 N 
ATOM      5  C   UNL     1      -0.202   0.294   3.023  0.00  0.00    +0.247 C 
ATOM      6  O   UNL     1       0.899   0.401   3.519  0.00  0.00    -0.273 OA
ATOM      7  C   UNL     1      -0.749   1.056   1.839  0.00  0.00    +0.112 C 
ATOM      8  C   UNL     1       0.086   0.778   0.593  0.00  0.00    +0.017 C 
ATOM      9  C   UNL     1      -0.474   1.584  -0.583  0.00  0.00    -0.076 C 
ATOM     10  C   UNL     1      -1.315   3.300   0.909  0.00  0.00    -0.076 C 
ATOM     11  C   UNL     1      -0.784   2.552   2.135  0.00  0.00    +0.017 C 
ATOM     12  N   UNL     1      -0.429   3.022  -0.242  0.00  0.00    +0.382 N 
ATOM     13  H   UNL     1       0.534   3.275   0.011  0.00  0.00    -0.081 HD
ENDROOT
BRANCH   1  14
ATOM     14  C   UNL     1      -3.089   0.934   0.660  0.00  0.00    +0.113 C 
BRANCH  14  16
ATOM     15  C   UNL     1      -4.525   0.129  -1.219  0.00  0.00    +0.009 C 
ATOM     16  C   UNL     1      -3.461  -0.277  -0.198  0.00  0.00    +0.000 C 
ATOM     17  C   UNL     1      -2.217  -0.783  -0.932  0.00  0.00    +0.009 C 
ENDBRANCH  14  16
ENDBRANCH   1  14
BRANCH  12  18
ATOM     18  C   UNL     1      -0.846   3.831  -1.406  0.00  0.00    -0.043 C 
BRANCH  18  19
ATOM     19  C   UNL     1      -0.585   5.284  -1.106  0.00  0.00    -0.064 A 
ATOM     20  C   UNL     1      -1.575   6.057  -0.526  0.00  0.00    +0.003 A 
ATOM     21  C   UNL     1      -1.339   7.387  -0.244  0.00  0.00    +0.017 A 
ATOM     22  C   UNL     1      -0.103   7.955  -0.555  0.00  0.00    +0.025 A 
ATOM     23  C   UNL     1       0.889   7.171  -1.145  0.00  0.00    +0.017 A 
ATOM     24  C   UNL     1       0.643   5.841  -1.417  0.00  0.00    +0.003 A 
BRANCH  22  25
ATOM     25  C   UNL     1       0.146   9.336  -0.270  0.00  0.00    -0.063 C 
ATOM     26  C   UNL     1       0.350  10.468  -0.036  0.00  0.00    -0.063 C 
BRANCH  26  27
ATOM     27  C   UNL     1       0.606  11.888   0.257  0.00  0.00    +0.121 C 
ATOM     28  C   UNL     1      -0.638  12.509   0.897  0.00  0.00    +0.055 C 
ATOM     29  C   UNL     1       1.788  12.004   1.222  0.00  0.00    +0.055 C 
BRANCH  27  30
ATOM     30  O   UNL     1       0.912  12.577  -0.956  0.00  0.00    -0.377 OA
ATOM     31  H   UNL     1       1.092  13.520  -0.839  0.00  0.00    +0.211 HD
ENDBRANCH  27  30
ENDBRANCH  26  27
ENDBRANCH  22  25
ENDBRANCH  18  19
ENDBRANCH  12  18
BRANCH   4  32
ATOM     32  C   UNL     1      -1.101  -1.464   4.536  0.00  0.00    +0.173 C 
BRANCH  32  33
ATOM     33  C   UNL     1      -0.576  -2.789   4.048  0.00  0.00    +0.059 A 
ATOM     34  C   UNL     1       0.777  -3.061   4.133  0.00  0.00    +0.025 A 
ATOM     35  C   UNL     1       1.250  -4.283   3.681  0.00  0.00    +0.003 A 
ATOM     36  C   UNL     1       0.342  -5.190   3.158  0.00  0.00    +0.020 A 
ATOM     37  C   UNL     1      -0.996  -4.848   3.105  0.00  0.00    +0.111 A 
ATOM     38  N   UNL     1      -1.412  -3.678   3.549  0.00  0.00    -0.258 NA
ENDBRANCH  32  33
ENDBRANCH   4  32
TORSDOF 9
