REMARK  Name = ZINC13069657
REMARK  10 active torsions:
REMARK  status: ('A' for Active; 'I' for Inactive)
REMARK    1  A    between atoms: C_1  and  C_2
REMARK    2  A    between atoms: C_2  and  C_3
REMARK    3  A    between atoms: C_3  and  C_4
REMARK    4  A    between atoms: C_3  and  C_5
REMARK    5  A    between atoms: C_3  and  C_6
REMARK    6  A    between atoms: C_13  and  N_17
REMARK    7  A    between atoms: C_14  and  C_15
REMARK    8  A    between atoms: C_18  and  C_20
REMARK    9  A    between atoms: C_20  and  N_21
REMARK   10  A    between atoms: C_29  and  C_31
REMARK                            x       y       z     vdW  Elec       q    Type
REMARK                         _______ _______ _______ _____ _____    ______ ____
ROOT
ATOM      1  N   UNL     1       1.813  -3.144   6.962  0.00  0.00    -0.278 N 
ATOM      2  C   UNL     1       2.072  -4.422   6.622  0.00  0.00    +0.236 C 
ATOM      3  O   UNL     1       1.894  -4.794   5.482  0.00  0.00    -0.274 OA
ATOM      4  H   UNL     1       1.955  -2.846   7.874  0.00  0.00    +0.155 HD
ENDROOT
BRANCH   1  11
ATOM      5  C   UNL     1       0.011   1.072   2.506  0.00  0.00    -0.000 C 
ATOM      6  C   UNL     1      -0.704   1.565   3.768  0.00  0.00    +0.009 C 
ATOM      7  C   UNL     1       0.157   1.277   5.000  0.00  0.00    +0.037 C 
ATOM      8  C   UNL     1       0.548  -0.196   4.991  0.00  0.00    -0.018 A 
ATOM      9  C   UNL     1       0.469  -0.930   3.859  0.00  0.00    -0.004 A 
ATOM     10  S   UNL     1       1.015  -2.547   4.331  0.00  0.00    -0.077 S 
ATOM     11  C   UNL     1       1.344  -2.253   6.006  0.00  0.00    +0.090 A 
ATOM     12  C   UNL     1       1.024  -0.913   6.161  0.00  0.00    +0.084 A 
ATOM     13  C   UNL     1       0.018  -0.463   2.509  0.00  0.00    +0.047 C 
BRANCH   5  14
ATOM     14  C   UNL     1      -0.729   1.579   1.267  0.00  0.00    -0.032 C 
ATOM     15  C   UNL     1      -0.750   3.109   1.275  0.00  0.00    +0.011 C 
ATOM     16  C   UNL     1      -2.164   1.050   1.278  0.00  0.00    +0.011 C 
BRANCH  14  18
ATOM     17  C   UNL     1      -0.753   1.593  -1.232  0.00  0.00    +0.004 C 
ATOM     18  C   UNL     1      -0.013   1.086   0.008  0.00  0.00    +0.003 C 
ENDBRANCH  14  18
ENDBRANCH   5  14
BRANCH  12  19
ATOM     19  C   UNL     1       1.158  -0.259   7.428  0.00  0.00    +0.102 C 
ATOM     20  N   UNL     1       1.265   0.260   8.433  0.00  0.00    -0.191 NA
ENDBRANCH  12  19
ENDBRANCH   1  11
BRANCH   2  21
ATOM     21  C   UNL     1       2.581  -5.389   7.660  0.00  0.00    +0.214 C 
BRANCH  21  22
ATOM     22  N   UNL     1       2.783  -6.703   7.045  0.00  0.00    -0.215 N 
ATOM     23  C   UNL     1       3.937  -7.104   6.472  0.00  0.00    +0.247 C 
ATOM     24  O   UNL     1       4.965  -6.469   6.371  0.00  0.00    -0.273 OA
ATOM     25  C   UNL     1       3.677  -8.510   5.983  0.00  0.00    +0.115 C 
ATOM     26  C   UNL     1       4.616  -9.494   6.673  0.00  0.00    +0.035 C 
ATOM     27  C   UNL     1       6.063  -9.176   6.288  0.00  0.00    +0.003 C 
ATOM     28  C   UNL     1       6.219  -9.276   4.770  0.00  0.00    +0.000 C 
ATOM     29  C   UNL     1       5.287  -8.269   4.092  0.00  0.00    +0.006 C 
ATOM     30  C   UNL     1       3.837  -8.584   4.469  0.00  0.00    +0.018 C 
ATOM     31  C   UNL     1       2.906  -7.565   3.808  0.00  0.00    +0.010 C 
ATOM     32  N   UNL     1       2.284  -8.771   6.367  0.00  0.00    -0.285 N 
ATOM     33  C   UNL     1       1.846  -7.658   6.988  0.00  0.00    +0.310 C 
ATOM     34  O   UNL     1       0.725  -7.534   7.441  0.00  0.00    -0.252 OA
ATOM     35  H   UNL     1       1.781  -9.584   6.210  0.00  0.00    +0.151 HD
ENDBRANCH  21  22
ENDBRANCH   2  21
TORSDOF 6
