REMARK  Name = ZINC39608653
REMARK  8 active torsions:
REMARK  status: ('A' for Active; 'I' for Inactive)
REMARK    1  A    between atoms: C_1  and  C_2
REMARK    2  A    between atoms: C_2  and  C_3
REMARK    3  A    between atoms: C_3  and  C_5
REMARK    4  A    between atoms: C_3  and  C_11
REMARK    5  A    between atoms: C_15  and  C_24
REMARK    6  A    between atoms: N_26  and  C_27
REMARK    7  A    between atoms: N_31  and  C_33
REMARK    8  A    between atoms: C_33  and  C_34
REMARK                            x       y       z     vdW  Elec       q    Type
REMARK                         _______ _______ _______ _____ _____    ______ ____
ROOT
ATOM      1  C   UNL     1       0.515  -1.733  -1.205  0.00  0.00    +0.223 C 
ATOM      2  O   UNL     1       1.578  -2.316  -1.175  0.00  0.00    -0.275 OA
ATOM      3  N   UNL     1      -0.634  -2.432  -1.300  0.00  0.00    -0.300 N 
ATOM      4  C   UNL     1      -2.017  -1.902  -1.357  0.00  0.00    +0.121 C 
ATOM      5  C   UNL     1      -2.738  -2.801  -2.386  0.00  0.00    +0.100 C 
ATOM      6  C   UNL     1      -1.935  -4.114  -2.390  0.00  0.00    -0.004 C 
ATOM      7  C   UNL     1      -0.799  -3.903  -1.379  0.00  0.00    +0.115 C 
ATOM      8  C   UNL     1      -1.357  -4.375  -3.778  0.00  0.00    -0.010 C 
ATOM      9  C   UNL     1      -0.612  -5.712  -3.771  0.00  0.00    -0.082 C 
ATOM     10  N   UNL     1      -1.537  -6.788  -3.395  0.00  0.00    +0.379 N 
ATOM     11  C   UNL     1      -2.018  -6.578  -2.023  0.00  0.00    -0.082 C 
ATOM     12  C   UNL     1      -2.822  -5.277  -1.956  0.00  0.00    -0.010 C 
ATOM     13  H   UNL     1      -2.323  -6.791  -4.028  0.00  0.00    -0.086 HD
ATOM     14  H   UNL     1      -1.060  -7.675  -3.450  0.00  0.00    -0.086 HD
ENDROOT
BRANCH   5  15
ATOM     15  C   UNL     1      -2.711  -2.163  -3.751  0.00  0.00    +0.218 C 
ATOM     16  O   UNL     1      -1.788  -1.442  -4.065  0.00  0.00    -0.275 OA
ATOM     17  N   UNL     1      -3.713  -2.393  -4.622  0.00  0.00    -0.314 N 
ATOM     18  H   UNL     1      -4.452  -2.969  -4.370  0.00  0.00    +0.149 HD
BRANCH  17  19
ATOM     19  C   UNL     1      -3.687  -1.772  -5.949  0.00  0.00    +0.055 C 
ATOM     20  C   UNL     1      -4.346  -0.374  -5.900  0.00  0.00    +0.002 C 
ATOM     21  C   UNL     1      -5.132  -0.315  -7.234  0.00  0.00    -0.077 C 
ATOM     22  N   UNL     1      -5.639  -1.702  -7.391  0.00  0.00    +0.384 N 
ATOM     23  C   UNL     1      -4.542  -2.587  -6.937  0.00  0.00    -0.056 C 
ATOM     24  H   UNL     1      -6.458  -1.840  -6.818  0.00  0.00    -0.081 HD
BRANCH  22  25
ATOM     25  C   UNL     1      -5.954  -1.970  -8.801  0.00  0.00    -0.043 C 
BRANCH  25  26
ATOM     26  C   UNL     1      -7.116  -1.111  -9.228  0.00  0.00    -0.064 A 
ATOM     27  C   UNL     1      -8.409  -1.577  -9.085  0.00  0.00    +0.002 A 
ATOM     28  C   UNL     1      -9.476  -0.789  -9.477  0.00  0.00    +0.000 A 
ATOM     29  C   UNL     1      -9.248   0.465 -10.011  0.00  0.00    +0.000 A 
ATOM     30  C   UNL     1      -7.955   0.932 -10.153  0.00  0.00    +0.000 A 
ATOM     31  C   UNL     1      -6.889   0.146  -9.757  0.00  0.00    +0.002 A 
ENDBRANCH  25  26
ENDBRANCH  22  25
ENDBRANCH  17  19
ENDBRANCH   5  15
BRANCH   1  32
ATOM     32  C   UNL     1       0.478  -0.228  -1.136  0.00  0.00    +0.105 C 
BRANCH  32  33
ATOM     33  C   UNL     1       1.885   0.304  -1.034  0.00  0.00    -0.036 A 
ATOM     34  C   UNL     1       2.688  -0.065   0.029  0.00  0.00    +0.004 A 
ATOM     35  C   UNL     1       3.978   0.424   0.122  0.00  0.00    +0.000 A 
ATOM     36  C   UNL     1       4.464   1.280  -0.848  0.00  0.00    +0.000 A 
ATOM     37  C   UNL     1       3.661   1.648  -1.911  0.00  0.00    +0.000 A 
ATOM     38  C   UNL     1       2.373   1.156  -2.007  0.00  0.00    +0.004 A 
ENDBRANCH  32  33
BRANCH  32  40
ATOM     39  C   UNL     1      -0.465   1.730   0.097  0.00  0.00    +0.005 C 
ATOM     40  C   UNL     1      -0.322   0.206   0.094  0.00  0.00    +0.014 C 
ENDBRANCH  32  40
ENDBRANCH   1  32
TORSDOF 7
