REMARK  Name = ZINC39609677
REMARK  7 active torsions:
REMARK  status: ('A' for Active; 'I' for Inactive)
REMARK    1  A    between atoms: C_1  and  C_2
REMARK    2  A    between atoms: C_2  and  O_3
REMARK    3  A    between atoms: O_3  and  C_4
REMARK    4  A    between atoms: C_7  and  C_10
REMARK    5  A    between atoms: C_14  and  C_23
REMARK    6  A    between atoms: N_25  and  C_26
REMARK    7  A    between atoms: C_26  and  C_27
REMARK                            x       y       z     vdW  Elec       q    Type
REMARK                         _______ _______ _______ _____ _____    ______ ____
ROOT
ATOM      1  C   UNL     1       1.109  -6.018  -1.841  0.00  0.00    +0.247 C 
ATOM      2  O   UNL     1       0.740  -6.770  -0.959  0.00  0.00    -0.270 OA
ATOM      3  N   UNL     1       1.641  -6.518  -2.973  0.00  0.00    -0.296 N 
ATOM      4  C   UNL     1       2.259  -5.770  -4.094  0.00  0.00    +0.121 C 
ATOM      5  C   UNL     1       3.471  -6.630  -4.516  0.00  0.00    +0.100 C 
ATOM      6  C   UNL     1       3.125  -8.053  -4.046  0.00  0.00    -0.004 C 
ATOM      7  C   UNL     1       1.748  -7.941  -3.377  0.00  0.00    +0.115 C 
ATOM      8  C   UNL     1       4.158  -8.542  -3.036  0.00  0.00    -0.010 C 
ATOM      9  C   UNL     1       3.825  -9.979  -2.627  0.00  0.00    -0.082 C 
ATOM     10  N   UNL     1       3.828 -10.841  -3.815  0.00  0.00    +0.379 N 
ATOM     11  C   UNL     1       2.769 -10.421  -4.741  0.00  0.00    -0.082 C 
ATOM     12  C   UNL     1       3.058  -9.002  -5.239  0.00  0.00    -0.010 C 
ATOM     13  H   UNL     1       4.723 -10.773  -4.276  0.00  0.00    -0.086 HD
ATOM     14  H   UNL     1       3.668 -11.798  -3.536  0.00  0.00    -0.086 HD
ENDROOT
BRANCH   1  18
ATOM     15  C   UNL     1       0.717  -1.818  -1.351  0.00  0.00    +0.121 A 
ATOM     16  C   UNL     1       0.767  -2.365  -2.628  0.00  0.00    +0.046 A 
ATOM     17  C   UNL     1       0.894  -3.727  -2.791  0.00  0.00    +0.016 A 
ATOM     18  C   UNL     1       0.973  -4.558  -1.671  0.00  0.00    +0.037 A 
ATOM     19  C   UNL     1       0.922  -4.004  -0.389  0.00  0.00    +0.016 A 
ATOM     20  C   UNL     1       0.800  -2.641  -0.235  0.00  0.00    +0.046 A 
BRANCH  15  21
ATOM     21  O   UNL     1       0.591  -0.476  -1.195  0.00  0.00    -0.492 OA
BRANCH  21  23
ATOM     22  C   UNL     1       0.374   1.788  -2.011  0.00  0.00    +0.048 C 
ATOM     23  C   UNL     1       0.511   0.311  -2.385  0.00  0.00    +0.225 C 
ENDBRANCH  21  23
ENDBRANCH  15  21
ENDBRANCH   1  18
BRANCH   5  24
ATOM     24  C   UNL     1       4.724  -6.141  -3.837  0.00  0.00    +0.218 C 
ATOM     25  O   UNL     1       4.669  -5.701  -2.708  0.00  0.00    -0.275 OA
ATOM     26  N   UNL     1       5.905  -6.193  -4.483  0.00  0.00    -0.311 N 
ATOM     27  H   UNL     1       5.949  -6.545  -5.386  0.00  0.00    +0.149 HD
BRANCH  26  28
ATOM     28  C   UNL     1       7.124  -5.717  -3.823  0.00  0.00    +0.139 C 
BRANCH  28  29
ATOM     29  C   UNL     1       8.297  -5.883  -4.753  0.00  0.00    -0.029 A 
ATOM     30  C   UNL     1       9.024  -7.060  -4.746  0.00  0.00    +0.007 A 
ATOM     31  C   UNL     1      10.100  -7.213  -5.599  0.00  0.00    +0.022 A 
ATOM     32  C   UNL     1      10.452  -6.189  -6.460  0.00  0.00    +0.059 A 
ATOM     33  C   UNL     1       9.725  -5.011  -6.468  0.00  0.00    +0.060 A 
ATOM     34  C   UNL     1       8.644  -4.861  -5.617  0.00  0.00    +0.026 A 
ATOM     35 CL   UNL     1      10.165  -3.725  -7.547  0.00  0.00    -0.082 Cl
ATOM     36 CL   UNL     1      11.805  -6.381  -7.531  0.00  0.00    -0.082 Cl
ENDBRANCH  28  29
ENDBRANCH  26  28
ENDBRANCH   5  24
TORSDOF 6
