REMARK  Name = ZINC08816536
REMARK  7 active torsions:
REMARK  status: ('A' for Active; 'I' for Inactive)
REMARK    1  A    between atoms: C_1  and  N_60
REMARK    2  A    between atoms: C_4  and  N_26
REMARK    3  A    between atoms: C_8  and  N_17
REMARK    4  A    between atoms: C_18  and  C_19
REMARK    5  A    between atoms: C_24  and  O_25
REMARK    6  A    between atoms: C_27  and  C_28
REMARK    7  A    between atoms: C_33  and  O_34
REMARK                            x       y       z     vdW  Elec       q    Type
REMARK                         _______ _______ _______ _____ _____    ______ ____
ROOT
ATOM      1  C   UNL     1      -3.198  -0.867   6.985  0.00  0.00    -0.096 C 
ATOM      2  C   UNL     1      -1.052  -0.156   6.120  0.00  0.00    -0.073 C 
ATOM      3  C   UNL     1      -0.180  -0.094   4.864  0.00  0.00    +0.055 C 
ATOM      4  C   UNL     1      -0.858   0.820   3.833  0.00  0.00    +0.203 C 
ATOM      5  C   UNL     1      -2.244   0.238   3.519  0.00  0.00    +0.068 C 
ATOM      6  C   UNL     1      -3.065   0.181   4.806  0.00  0.00    -0.067 C 
ATOM      7  C   UNL     1      -2.935   1.125   2.487  0.00  0.00    +0.146 C 
ATOM      8  C   UNL     1      -2.808   2.575   2.879  0.00  0.00    +0.019 A 
ATOM      9  C   UNL     1      -3.650   3.502   2.288  0.00  0.00    +0.009 A 
ATOM     10  C   UNL     1      -3.556   4.840   2.621  0.00  0.00    +0.001 A 
ATOM     11  C   UNL     1      -2.618   5.257   3.548  0.00  0.00    +0.004 A 
ATOM     12  C   UNL     1      -1.778   4.337   4.141  0.00  0.00    +0.046 A 
ATOM     13  C   UNL     1      -1.871   2.988   3.810  0.00  0.00    +0.129 A 
ATOM     14  O   UNL     1      -1.036   2.117   4.409  0.00  0.00    -0.464 OA
ATOM     15  N   UNL     1      -2.377  -0.710   5.768  0.00  0.00    +0.378 N 
ATOM     16  H   UNL     1      -2.248  -1.631   5.332  0.00  0.00    -0.082 HD
ENDROOT
BRANCH   7  17
ATOM     17  N   UNL     1      -2.313   0.921   1.176  0.00  0.00    -0.282 NA
ATOM     18  C   UNL     1      -1.774   1.919   0.553  0.00  0.00    +0.117 C 
BRANCH  18  19
ATOM     19  C   UNL     1      -1.293   1.751  -0.830  0.00  0.00    +0.034 A 
ATOM     20  C   UNL     1      -0.611   2.791  -1.468  0.00  0.00    +0.013 A 
ATOM     21  C   UNL     1      -0.159   2.625  -2.759  0.00  0.00    +0.001 A 
ATOM     22  C   UNL     1      -0.388   1.437  -3.433  0.00  0.00    +0.004 A 
ATOM     23  C   UNL     1      -1.065   0.403  -2.816  0.00  0.00    +0.046 A 
ATOM     24  C   UNL     1      -1.522   0.550  -1.515  0.00  0.00    +0.125 A 
BRANCH  24  25
ATOM     25  O   UNL     1      -2.187  -0.465  -0.908  0.00  0.00    -0.506 OA
ATOM     26  H   UNL     1      -3.135  -0.484  -1.099  0.00  0.00    +0.292 HD
ENDBRANCH  24  25
ENDBRANCH  18  19
ENDBRANCH   7  17
BRANCH   4  27
ATOM     27  N   UNL     1      -0.050   0.907   2.615  0.00  0.00    -0.246 NA
ATOM     28  C   UNL     1       1.097   1.506   2.640  0.00  0.00    +0.120 C 
BRANCH  28  29
ATOM     29  C   UNL     1       1.981   1.456   1.462  0.00  0.00    +0.034 A 
ATOM     30  C   UNL     1       3.166   2.196   1.441  0.00  0.00    +0.013 A 
ATOM     31  C   UNL     1       3.986   2.149   0.334  0.00  0.00    +0.001 A 
ATOM     32  C   UNL     1       3.643   1.367  -0.756  0.00  0.00    +0.004 A 
ATOM     33  C   UNL     1       2.478   0.626  -0.746  0.00  0.00    +0.046 A 
ATOM     34  C   UNL     1       1.641   0.662   0.359  0.00  0.00    +0.125 A 
BRANCH  34  35
ATOM     35  O   UNL     1       0.495  -0.065   0.370  0.00  0.00    -0.506 OA
ATOM     36  H   UNL     1       0.614  -0.982   0.654  0.00  0.00    +0.292 HD
ENDBRANCH  34  35
ENDBRANCH  28  29
ENDBRANCH   4  27
TORSDOF 6
