REMARK  Name = ZINC63818159
REMARK  7 active torsions:
REMARK  status: ('A' for Active; 'I' for Inactive)
REMARK    1  A    between atoms: C_1  and  O_2
REMARK    2  A    between atoms: O_2  and  C_3
REMARK    3  A    between atoms: C_6  and  C_9
REMARK    4  A    between atoms: C_11  and  C_16
REMARK    5  A    between atoms: N_18  and  C_19
REMARK    6  A    between atoms: C_19  and  C_20
REMARK    7  A    between atoms: C_20  and  C_21
REMARK                            x       y       z     vdW  Elec       q    Type
REMARK                         _______ _______ _______ _____ _____    ______ ____
ROOT
ATOM      1  C   UNL     1       0.187  -3.162   4.793  0.00  0.00    +0.229 C 
ATOM      2  O   UNL     1       0.093  -3.765   3.745  0.00  0.00    -0.274 OA
ATOM      3  N   UNL     1      -0.922  -2.713   5.413  0.00  0.00    -0.314 N 
ATOM      4  H   UNL     1      -0.848  -2.231   6.252  0.00  0.00    +0.149 HD
ENDROOT
BRANCH   1   6
ATOM      5  C   UNL     1       2.604  -2.630   4.304  0.00  0.00    +0.123 C 
ATOM      6  C   UNL     1       1.543  -2.913   5.400  0.00  0.00    +0.171 C 
ATOM      7  S   UNL     1       2.224  -4.448   6.157  0.00  0.00    -0.051 S 
ATOM      8  N   UNL     1       3.646  -4.672   5.087  0.00  0.00    -0.199 NA
ATOM      9  N   UNL     1       3.232  -3.901   3.897  0.00  0.00    -0.238 NA
ATOM     10  H   UNL     1       4.477  -4.278   5.503  0.00  0.00    +0.154 HD
ATOM     11  H   UNL     1       4.016  -3.738   3.283  0.00  0.00    +0.142 HD
BRANCH   5  15
ATOM     12  C   UNL     1       0.716  -0.824   0.922  0.00  0.00    +0.120 A 
ATOM     13  C   UNL     1       0.968  -2.188   0.931  0.00  0.00    +0.046 A 
ATOM     14  C   UNL     1       1.579  -2.769   2.025  0.00  0.00    +0.009 A 
ATOM     15  C   UNL     1       1.939  -1.993   3.111  0.00  0.00    -0.027 A 
ATOM     16  C   UNL     1       1.688  -0.633   3.105  0.00  0.00    +0.009 A 
ATOM     17  C   UNL     1       1.083  -0.046   2.011  0.00  0.00    +0.046 A 
BRANCH  12  19
ATOM     18  C   UNL     1      -0.234  -1.111  -1.238  0.00  0.00    +0.277 C 
ATOM     19  O   UNL     1       0.116  -0.249  -0.153  0.00  0.00    -0.495 OA
ENDBRANCH  12  19
ENDBRANCH   5  15
ENDBRANCH   1   6
BRANCH   3  20
ATOM     20  C   UNL     1      -2.241  -2.955   4.822  0.00  0.00    +0.108 C 
BRANCH  20  21
ATOM     21  C   UNL     1      -3.321  -2.348   5.720  0.00  0.00    +0.052 C 
BRANCH  21  22
ATOM     22  C   UNL     1      -4.677  -2.596   5.112  0.00  0.00    -0.040 C 
ATOM     23  C   UNL     1      -5.524  -3.611   5.401  0.00  0.00    +0.000 A 
ATOM     24  C   UNL     1      -5.439  -4.743   6.331  0.00  0.00    +0.030 A 
ATOM     25  C   UNL     1      -6.471  -5.615   6.399  0.00  0.00    +0.042 A 
ATOM     26  C   UNL     1      -7.618  -5.465   5.604  0.00  0.00    +0.022 A 
ATOM     27  C   UNL     1      -7.768  -4.450   4.727  0.00  0.00    +0.027 A 
ATOM     28  C   UNL     1      -6.745  -3.474   4.574  0.00  0.00    +0.043 A 
ATOM     29  N   UNL     1      -6.655  -2.417   3.804  0.00  0.00    -0.380 N 
ATOM     30  C   UNL     1      -5.370  -1.759   4.060  0.00  0.00    +0.144 C 
ATOM     31 CL   UNL     1      -6.375  -6.955   7.498  0.00  0.00    -0.084 Cl
ATOM     32  H   UNL     1      -7.329  -2.118   3.173  0.00  0.00    +0.160 HD
ENDBRANCH  21  22
ENDBRANCH  20  21
ENDBRANCH   3  20
TORSDOF 6
