REMARK  Name = ZINC12500872
REMARK  6 active torsions:
REMARK  status: ('A' for Active; 'I' for Inactive)
REMARK    1  A    between atoms: C_4  and  N_23
REMARK    2  A    between atoms: C_5  and  C_7
REMARK    3  A    between atoms: N_9  and  N_10
REMARK    4  A    between atoms: N_10  and  C_11
REMARK    5  A    between atoms: C_11  and  N_13
REMARK    6  A    between atoms: C_14  and  C_16
REMARK                            x       y       z     vdW  Elec       q    Type
REMARK                         _______ _______ _______ _____ _____    ______ ____
ROOT
ATOM      1  N   UNL     1      -4.751   0.306   0.382  0.00  0.00    -0.245 N 
ATOM      2  H   UNL     1      -4.712   1.271   0.294  0.00  0.00    +0.172 HD
ENDROOT
BRANCH   1   5
ATOM      3  C   UNL     1      -2.388   0.159   0.130  0.00  0.00    +0.262 C 
ATOM      4  O   UNL     1      -2.339   1.369   0.020  0.00  0.00    -0.269 OA
ATOM      5  N   UNL     1      -3.575  -0.453   0.316  0.00  0.00    -0.231 N 
ATOM      6  H   UNL     1      -3.615  -1.418   0.404  0.00  0.00    +0.173 HD
BRANCH   3  11
ATOM      7  C   UNL     1       0.344  -2.256   1.028  0.00  0.00    +0.001 A 
ATOM      8  C   UNL     1       1.177  -2.141  -0.071  0.00  0.00    +0.002 A 
ATOM      9  C   UNL     1       0.851  -1.283  -1.107  0.00  0.00    +0.033 A 
ATOM     10  C   UNL     1      -0.303  -0.529  -1.045  0.00  0.00    +0.138 A 
ATOM     11  C   UNL     1      -1.147  -0.641   0.060  0.00  0.00    +0.068 A 
ATOM     12  C   UNL     1      -0.815  -1.512   1.099  0.00  0.00    +0.015 A 
BRANCH  10  13
ATOM     13  N   UNL     1      -0.647   0.391  -2.152  0.00  0.00    +0.057 N 
ATOM     14  O   UNL     1       0.143   0.575  -3.060  0.00  0.00    -0.126 OA
ATOM     15  O   UNL     1      -1.723   0.962  -2.156  0.00  0.00    -0.126 OA
ENDBRANCH  10  13
ENDBRANCH   3  11
ENDBRANCH   1   5
BRANCH   1  16
ATOM     16  C   UNL     1      -5.938  -0.306   0.568  0.00  0.00    +0.153 C 
ATOM     17  S   UNL     1      -7.375   0.621   0.649  0.00  0.00    -0.017 S 
BRANCH  16  18
ATOM     18  N   UNL     1      -5.993  -1.647   0.690  0.00  0.00    -0.263 N 
ATOM     19  C   UNL     1      -7.179  -2.259   0.876  0.00  0.00    +0.251 C 
ATOM     20  O   UNL     1      -8.200  -1.601   0.934  0.00  0.00    -0.270 OA
ATOM     21  H   UNL     1      -5.178  -2.172   0.644  0.00  0.00    +0.157 HD
BRANCH  19  22
ATOM     22  C   UNL     1      -7.240  -3.728   1.010  0.00  0.00    +0.051 A 
ATOM     23  C   UNL     1      -6.070  -4.488   0.939  0.00  0.00    +0.014 A 
ATOM     24  C   UNL     1      -6.133  -5.859   1.069  0.00  0.00    +0.001 A 
ATOM     25  C   UNL     1      -7.353  -6.485   1.261  0.00  0.00    +0.001 A 
ATOM     26  C   UNL     1      -8.516  -5.740   1.327  0.00  0.00    +0.016 A 
ATOM     27  C   UNL     1      -8.468  -4.366   1.203  0.00  0.00    +0.030 A 
ATOM     28 BR   UNL     1     -10.060  -3.349   1.293  0.00  0.00    -0.050 Br
ENDBRANCH  19  22
ENDBRANCH  16  18
ENDBRANCH   1  16
TORSDOF 6
