REMARK  Name = ZINC34702952
REMARK  9 active torsions:
REMARK  status: ('A' for Active; 'I' for Inactive)
REMARK    1  A    between atoms: C_4  and  C_7
REMARK    2  A    between atoms: C_7  and  O_8
REMARK    3  A    between atoms: O_8  and  C_9
REMARK    4  A    between atoms: C_9  and  C_10
REMARK    5  A    between atoms: N_20  and  C_29
REMARK    6  A    between atoms: N_22  and  C_23
REMARK    7  A    between atoms: C_29  and  C_30
REMARK    8  A    between atoms: N_32  and  C_33
REMARK    9  A    between atoms: C_33  and  C_34
REMARK                            x       y       z     vdW  Elec       q    Type
REMARK                         _______ _______ _______ _____ _____    ______ ____
ROOT
ATOM      1  C   UNL     1       5.762  -1.851   2.759  0.00  0.00    +0.241 C 
ATOM      2  O   UNL     1       5.002  -1.435   3.608  0.00  0.00    -0.273 OA
ATOM      3  N   UNL     1       6.895  -2.485   3.120  0.00  0.00    -0.299 N 
ATOM      4  C   UNL     1       7.828  -2.989   2.103  0.00  0.00    +0.110 C 
ATOM      5  C   UNL     1       8.085  -4.476   2.364  0.00  0.00    +0.054 C 
ATOM      6  C   UNL     1       8.557  -4.663   3.806  0.00  0.00    +0.115 C 
ATOM      7  C   UNL     1       7.484  -4.175   4.779  0.00  0.00    +0.054 C 
ATOM      8  C   UNL     1       7.224  -2.679   4.539  0.00  0.00    +0.110 C 
ATOM      9  C   UNL     1       8.867  -6.115   4.064  0.00  0.00    +0.241 C 
ATOM     10  O   UNL     1       8.074  -7.029   3.980  0.00  0.00    -0.273 OA
ATOM     11  N   UNL     1      10.162  -6.234   4.401  0.00  0.00    -0.275 N 
ATOM     12  C   UNL     1      10.809  -4.923   4.399  0.00  0.00    +0.217 C 
ATOM     13  N   UNL     1       9.805  -3.920   4.024  0.00  0.00    -0.300 N 
ENDROOT
BRANCH  13  14
ATOM     14  C   UNL     1       9.996  -2.542   3.899  0.00  0.00    +0.032 A 
ATOM     15  C   UNL     1      11.227  -1.980   4.211  0.00  0.00    +0.023 A 
ATOM     16  C   UNL     1      11.414  -0.617   4.086  0.00  0.00    +0.002 A 
ATOM     17  C   UNL     1      10.376   0.187   3.651  0.00  0.00    +0.000 A 
ATOM     18  C   UNL     1       9.149  -0.370   3.339  0.00  0.00    +0.002 A 
ATOM     19  C   UNL     1       8.958  -1.732   3.456  0.00  0.00    +0.023 A 
ENDBRANCH  13  14
BRANCH   1  20
ATOM     20  C   UNL     1       5.438  -1.659   1.299  0.00  0.00    +0.256 C 
BRANCH  20  21
ATOM     21  O   UNL     1       4.195  -0.966   1.174  0.00  0.00    -0.366 OA
BRANCH  21  22
ATOM     22  C   UNL     1       3.794  -0.731  -0.177  0.00  0.00    +0.195 C 
BRANCH  22  26
ATOM     23  C   UNL     1       0.062   1.347  -0.216  0.00  0.00    +0.000 A 
ATOM     24  C   UNL     1       1.248   2.057  -0.200  0.00  0.00    +0.000 A 
ATOM     25  C   UNL     1       2.455   1.384  -0.187  0.00  0.00    +0.006 A 
ATOM     26  C   UNL     1       2.477   0.002  -0.190  0.00  0.00    -0.022 A 
ATOM     27  C   UNL     1       1.291  -0.708  -0.205  0.00  0.00    +0.006 A 
ATOM     28  C   UNL     1       0.083  -0.035  -0.219  0.00  0.00    +0.000 A 
ENDBRANCH  22  26
ENDBRANCH  21  22
ENDBRANCH  20  21
ENDBRANCH   1  20
BRANCH  11  29
ATOM     29  C   UNL     1      10.829  -7.497   4.726  0.00  0.00    +0.205 C 
BRANCH  29  30
ATOM     30  C   UNL     1      11.399  -8.101   3.468  0.00  0.00    +0.230 C 
ATOM     31  O   UNL     1      11.262  -7.533   2.406  0.00  0.00    -0.274 OA
ATOM     32  N   UNL     1      12.062  -9.274   3.524  0.00  0.00    -0.314 N 
ATOM     33  H   UNL     1      12.173  -9.728   4.374  0.00  0.00    +0.149 HD
BRANCH  32  34
ATOM     34  C   UNL     1      12.617  -9.861   2.302  0.00  0.00    +0.107 C 
BRANCH  34  35
ATOM     35  C   UNL     1      13.314 -11.180   2.640  0.00  0.00    +0.006 C 
ATOM     36  C   UNL     1      14.521 -10.903   3.539  0.00  0.00    +0.005 C 
ATOM     37  C   UNL     1      15.218 -12.222   3.878  0.00  0.00    +0.000 C 
ATOM     38  C   UNL     1      15.688 -12.896   2.588  0.00  0.00    +0.000 C 
ATOM     39  C   UNL     1      14.481 -13.174   1.689  0.00  0.00    +0.000 C 
ATOM     40  C   UNL     1      13.784 -11.854   1.350  0.00  0.00    +0.005 C 
ENDBRANCH  34  35
ENDBRANCH  32  34
ENDBRANCH  29  30
ENDBRANCH  11  29
TORSDOF 9
