REMARK  Name = ZINC63374924
REMARK  15 active torsions:
REMARK  status: ('A' for Active; 'I' for Inactive)
REMARK    1  A    between atoms: C_1  and  C_2
REMARK    2  A    between atoms: C_2  and  C_3
REMARK    3  A    between atoms: C_3  and  O_4
REMARK    4  A    between atoms: O_4  and  C_5
REMARK    5  A    between atoms: C_8  and  C_14
REMARK    6  A    between atoms: C_10  and  O_11
REMARK    7  A    between atoms: O_11  and  C_12
REMARK    8  A    between atoms: C_12  and  C_13
REMARK    9  A    between atoms: N_21  and  C_36
REMARK   10  A    between atoms: C_24  and  C_35
REMARK   11  A    between atoms: C_36  and  C_37
REMARK   12  A    between atoms: C_37  and  C_38
REMARK   13  A    between atoms: C_38  and  C_39
REMARK   14  A    between atoms: C_39  and  C_40
REMARK   15  A    between atoms: C_40  and  O_41
REMARK                            x       y       z     vdW  Elec       q    Type
REMARK                         _______ _______ _______ _____ _____    ______ ____
ROOT
ATOM      1  C   UNL     1       3.302  -4.476   5.579  0.00  0.00    +0.065 C 
ATOM      2  C   UNL     1       2.678  -4.052   6.911  0.00  0.00    +0.121 C 
ATOM      3  N   UNL     1       3.559  -4.242   8.050  0.00  0.00    -0.283 N 
ATOM      4  C   UNL     1       2.986  -4.185   9.298  0.00  0.00    +0.234 C 
ATOM      5  O   UNL     1       1.784  -4.123   9.443  0.00  0.00    -0.274 OA
ATOM      6  C   UNL     1       3.928  -4.205  10.484  0.00  0.00    +0.203 C 
ATOM      7  N   UNL     1       5.059  -3.303  10.200  0.00  0.00    -0.291 N 
ATOM      8  C   UNL     1       5.638  -3.420   8.966  0.00  0.00    +0.242 C 
ATOM      9  O   UNL     1       6.598  -2.758   8.635  0.00  0.00    -0.273 OA
ATOM     10  C   UNL     1       4.999  -4.430   8.048  0.00  0.00    +0.135 C 
ATOM     11  C   UNL     1       5.673  -4.556   6.718  0.00  0.00    +0.139 C 
ATOM     12  C   UNL     1       4.744  -4.036   5.632  0.00  0.00    -0.027 C 
ATOM     13  C   UNL     1       5.460  -3.205   4.890  0.00  0.00    -0.000 A 
ATOM     14  C   UNL     1       5.149  -2.475   3.650  0.00  0.00    +0.010 A 
ATOM     15  C   UNL     1       6.133  -1.673   3.163  0.00  0.00    +0.001 A 
ATOM     16  C   UNL     1       7.380  -1.525   3.778  0.00  0.00    +0.002 A 
ATOM     17  C   UNL     1       7.755  -2.164   4.914  0.00  0.00    +0.026 A 
ATOM     18  C   UNL     1       6.808  -3.042   5.517  0.00  0.00    +0.043 A 
ATOM     19  N   UNL     1       6.899  -3.771   6.577  0.00  0.00    -0.375 N 
ATOM     20  C   UNL     1       5.228  -5.782   8.727  0.00  0.00    +0.044 C 
ATOM     21  H   UNL     1       7.663  -3.798   7.174  0.00  0.00    +0.160 HD
ENDROOT
BRANCH   1  25
ATOM     22  C   UNL     1       1.296  -2.538   2.336  0.00  0.00    +0.162 A 
ATOM     23  C   UNL     1       1.898  -1.785   3.332  0.00  0.00    +0.050 A 
ATOM     24  C   UNL     1       2.545  -2.414   4.379  0.00  0.00    +0.008 A 
ATOM     25  C   UNL     1       2.595  -3.795   4.435  0.00  0.00    -0.035 A 
ATOM     26  C   UNL     1       1.997  -4.552   3.445  0.00  0.00    +0.053 A 
ATOM     27  C   UNL     1       1.341  -3.928   2.396  0.00  0.00    +0.162 A 
BRANCH  22  28
ATOM     28  O   UNL     1       0.658  -1.921   1.306  0.00  0.00    -0.488 OA
BRANCH  28  29
ATOM     29  C   UNL     1       0.652  -0.492   1.310  0.00  0.00    +0.229 C 
BRANCH  29  31
ATOM     30  C   UNL     1      -0.112   1.548   0.086  0.00  0.00    +0.007 C 
ATOM     31  C   UNL     1      -0.106   0.018   0.082  0.00  0.00    +0.038 C 
ENDBRANCH  29  31
ENDBRANCH  28  29
ENDBRANCH  22  28
BRANCH  27  32
ATOM     32  O   UNL     1       0.747  -4.671   1.425  0.00  0.00    -0.489 OA
BRANCH  32  33
ATOM     33  C   UNL     1       0.833  -6.092   1.552  0.00  0.00    +0.226 C 
ATOM     34  C   UNL     1       0.113  -6.754   0.375  0.00  0.00    +0.048 C 
ENDBRANCH  32  33
ENDBRANCH  27  32
ENDBRANCH   1  25
BRANCH   7  35
ATOM     35  C   UNL     1       5.537  -2.332  11.187  0.00  0.00    +0.108 C 
BRANCH  35  36
ATOM     36  C   UNL     1       6.620  -2.977  12.054  0.00  0.00    +0.019 C 
BRANCH  36  37
ATOM     37  C   UNL     1       7.119  -1.963  13.085  0.00  0.00    +0.004 C 
BRANCH  37  38
ATOM     38  C   UNL     1       8.202  -2.608  13.953  0.00  0.00    +0.028 C 
BRANCH  38  39
ATOM     39  C   UNL     1       8.701  -1.594  14.983  0.00  0.00    +0.156 C 
BRANCH  39  40
ATOM     40  O   UNL     1       9.712  -2.197  15.794  0.00  0.00    -0.395 OA
ATOM     41  H   UNL     1      10.075  -1.610  16.471  0.00  0.00    +0.209 HD
ENDBRANCH  39  40
ENDBRANCH  38  39
ENDBRANCH  37  38
ENDBRANCH  36  37
ENDBRANCH  35  36
ENDBRANCH   7  35
TORSDOF 12
