REMARK  Name = ZINC35370201
REMARK  6 active torsions:
REMARK  status: ('A' for Active; 'I' for Inactive)
REMARK    1  A    between atoms: C_1  and  C_2
REMARK    2  A    between atoms: C_2  and  C_3
REMARK    3  A    between atoms: C_12  and  C_16
REMARK    4  A    between atoms: N_18  and  C_19
REMARK    5  A    between atoms: C_19  and  C_20
REMARK    6  A    between atoms: C_20  and  C_21
REMARK                            x       y       z     vdW  Elec       q    Type
REMARK                         _______ _______ _______ _____ _____    ______ ____
ROOT
ATOM      1  C   UNL     1      -1.412  -0.526   0.013  0.00  0.00    +0.215 C 
ATOM      2  O   UNL     1      -2.344   0.250   0.026  0.00  0.00    -0.276 OA
ATOM      3  N   UNL     1      -1.640  -1.854   0.008  0.00  0.00    -0.302 N 
ATOM      4  C   UNL     1      -0.520  -2.805  -0.002  0.00  0.00    +0.107 C 
ATOM      5  C   UNL     1      -0.687  -3.773   1.175  0.00  0.00    +0.017 C 
ATOM      6  C   UNL     1      -2.072  -4.402   1.122  0.00  0.00    -0.016 C 
ATOM      7  C   UNL     1      -3.166  -3.347   1.189  0.00  0.00    +0.017 C 
ATOM      8  C   UNL     1      -3.013  -2.377   0.018  0.00  0.00    +0.107 C 
ATOM      9  N   UNL     1      -2.224  -5.252  -0.070  0.00  0.00    +0.397 N 
ATOM     10  C   UNL     1      -2.599  -6.646   0.185  0.00  0.00    +0.028 C 
ATOM     11  C   UNL     1      -2.021  -7.134   1.547  0.00  0.00    +0.061 C 
ATOM     12  S   UNL     1      -2.266  -5.580   2.521  0.00  0.00    -0.174 S 
ATOM     13  H   UNL     1      -2.929  -4.840  -0.663  0.00  0.00    -0.083 HD
ATOM     14  H   UNL     1      -1.350  -5.248  -0.574  0.00  0.00    -0.083 HD
ENDROOT
BRANCH  10  15
ATOM     15  C   UNL     1      -2.058  -7.516  -0.921  0.00  0.00    +0.200 C 
ATOM     16  O   UNL     1      -1.425  -7.019  -1.828  0.00  0.00    -0.278 OA
ATOM     17  N   UNL     1      -2.278  -8.845  -0.901  0.00  0.00    -0.316 N 
ATOM     18  H   UNL     1      -2.784  -9.243  -0.175  0.00  0.00    +0.149 HD
BRANCH  17  19
ATOM     19  C   UNL     1      -1.753  -9.691  -1.976  0.00  0.00    +0.109 C 
BRANCH  19  20
ATOM     20  C   UNL     1      -2.140 -11.148  -1.715  0.00  0.00    +0.055 C 
BRANCH  20  21
ATOM     21  C   UNL     1      -1.600 -12.017  -2.821  0.00  0.00    -0.027 A 
ATOM     22  C   UNL     1      -2.400 -12.337  -3.902  0.00  0.00    +0.006 A 
ATOM     23  C   UNL     1      -1.905 -13.135  -4.917  0.00  0.00    +0.020 A 
ATOM     24  C   UNL     1      -0.608 -13.613  -4.851  0.00  0.00    +0.042 A 
ATOM     25  C   UNL     1       0.193 -13.292  -3.770  0.00  0.00    +0.040 A 
ATOM     26  C   UNL     1      -0.301 -12.490  -2.757  0.00  0.00    +0.046 A 
ATOM     27 CL   UNL     1       0.705 -12.082  -1.403  0.00  0.00    -0.083 Cl
ATOM     28 CL   UNL     1       0.013 -14.614  -6.125  0.00  0.00    -0.083 Cl
ENDBRANCH  20  21
ENDBRANCH  19  20
ENDBRANCH  17  19
ENDBRANCH  10  15
BRANCH   1  30
ATOM     29  C   UNL     1      -0.019   1.526   0.010  0.00  0.00    +0.013 C 
ATOM     30  C   UNL     1       0.002  -0.004   0.002  0.00  0.00    +0.092 C 
ENDBRANCH   1  30
TORSDOF 5
