REMARK  Name = ZINC08584792
REMARK  12 active torsions:
REMARK  status: ('A' for Active; 'I' for Inactive)
REMARK    1  A    between atoms: C_1  and  C_2
REMARK    2  A    between atoms: C_2  and  N_62
REMARK    3  A    between atoms: C_3  and  C_4
REMARK    4  A    between atoms: C_3  and  N_62
REMARK    5  A    between atoms: C_5  and  C_6
REMARK    6  A    between atoms: C_5  and  N_62
REMARK    7  A    between atoms: C_6  and  N_7
REMARK    8  A    between atoms: C_8  and  C_10
REMARK    9  A    between atoms: C_19  and  C_22
REMARK   10  A    between atoms: C_22  and  S_23
REMARK   11  A    between atoms: S_23  and  C_26
REMARK   12  A    between atoms: C_26  and  C_27
REMARK                            x       y       z     vdW  Elec       q    Type
REMARK                         _______ _______ _______ _____ _____    ______ ____
ROOT
ATOM      1  C   UNL     1      -1.129  -3.940  -5.876  0.00  0.00    +0.039 A 
ATOM      2  C   UNL     1      -1.845  -3.038  -5.085  0.00  0.00    +0.015 A 
ATOM      3  C   UNL     1      -1.353  -1.768  -4.870  0.00  0.00    +0.025 A 
ATOM      4  C   UNL     1      -0.146  -1.388  -5.437  0.00  0.00    +0.049 A 
ATOM      5  C   UNL     1       0.582  -2.287  -6.222  0.00  0.00    +0.055 A 
ATOM      6  C   UNL     1       0.090  -3.558  -6.445  0.00  0.00    +0.038 A 
ATOM      7  N   UNL     1       1.812  -1.896  -6.765  0.00  0.00    -0.282 N 
ATOM      8  C   UNL     1       2.399  -0.744  -6.388  0.00  0.00    +0.239 C 
ATOM      9  O   UNL     1       3.400  -0.362  -6.957  0.00  0.00    -0.273 OA
ATOM     10  C   UNL     1       1.821   0.078  -5.264  0.00  0.00    +0.178 C 
ATOM     11  N   UNL     1       0.363  -0.103  -5.236  0.00  0.00    -0.330 N 
ATOM     12  H   UNL     1       2.248  -2.462  -7.422  0.00  0.00    +0.155 HD
ATOM     13  H   UNL     1      -0.230   0.649  -5.083  0.00  0.00    +0.147 HD
ENDROOT
BRANCH   1  15
ATOM     14  N   UNL     1      -2.833  -5.666  -5.562  0.00  0.00    -0.313 N 
ATOM     15  C   UNL     1      -1.658  -5.297  -6.111  0.00  0.00    +0.244 C 
ATOM     16  O   UNL     1      -1.035  -6.083  -6.798  0.00  0.00    -0.270 OA
ATOM     17  H   UNL     1      -3.330  -5.039  -5.014  0.00  0.00    +0.149 HD
BRANCH  14  18
ATOM     18  C   UNL     1      -3.359  -7.013  -5.795  0.00  0.00    +0.086 C 
BRANCH  18  19
ATOM     19  C   UNL     1      -4.695  -7.172  -5.067  0.00  0.00    -0.060 C 
BRANCH  19  20
ATOM     20  N   UNL     1      -5.202  -8.542  -5.293  0.00  0.00    +0.380 N 
ATOM     21  H   UNL     1      -4.463  -9.214  -5.056  0.00  0.00    -0.082 HD
BRANCH  20  23
ATOM     22  C   UNL     1      -5.890  -9.070  -3.008  0.00  0.00    -0.017 C 
ATOM     23  C   UNL     1      -6.376  -8.795  -4.432  0.00  0.00    -0.082 C 
ENDBRANCH  20  23
BRANCH  20  24
ATOM     24  C   UNL     1      -5.571  -8.715  -6.714  0.00  0.00    -0.082 C 
ATOM     25  C   UNL     1      -5.731 -10.210  -7.002  0.00  0.00    -0.017 C 
ENDBRANCH  20  24
ENDBRANCH  19  20
ENDBRANCH  18  19
ENDBRANCH  14  18
ENDBRANCH   1  15
BRANCH  10  26
ATOM     26  C   UNL     1       2.419  -0.383  -3.933  0.00  0.00    +0.198 C 
BRANCH  26  27
ATOM     27  S   UNL     1       1.719   0.604  -2.582  0.00  0.00    -0.025 S 
ATOM     28  O   UNL     1       0.329   0.321  -2.492  0.00  0.00    -0.174 OA
ATOM     29  O   UNL     1       2.140   1.951  -2.743  0.00  0.00    -0.174 OA
BRANCH  27  30
ATOM     30  C   UNL     1       2.539  -0.083  -1.117  0.00  0.00    +0.202 C 
BRANCH  30  31
ATOM     31  C   UNL     1       2.058   0.640   0.114  0.00  0.00    -0.008 A 
ATOM     32  C   UNL     1       0.952   0.175   0.801  0.00  0.00    +0.009 A 
ATOM     33  C   UNL     1       0.510   0.838   1.930  0.00  0.00    +0.039 A 
ATOM     34  C   UNL     1       1.174   1.969   2.374  0.00  0.00    +0.125 A 
ATOM     35  C   UNL     1       2.282   2.434   1.687  0.00  0.00    +0.058 A 
ATOM     36  C   UNL     1       2.727   1.766   0.560  0.00  0.00    +0.048 A 
ATOM     37 CL   UNL     1       4.120   2.345  -0.299  0.00  0.00    -0.083 Cl
ATOM     38  F   UNL     1       0.742   2.617   3.478  0.00  0.00    -0.205 F 
ENDBRANCH  30  31
ENDBRANCH  27  30
ENDBRANCH  26  27
ENDBRANCH  10  26
TORSDOF 10
