REMARK  Name = ZINC39794245
REMARK  4 active torsions:
REMARK  status: ('A' for Active; 'I' for Inactive)
REMARK    1  A    between atoms: C_1  and  C_2
REMARK    2  A    between atoms: C_3  and  C_15
REMARK    3  A    between atoms: C_5  and  C_7
REMARK    4  A    between atoms: N_17  and  C_18
REMARK                            x       y       z     vdW  Elec       q    Type
REMARK                         _______ _______ _______ _____ _____    ______ ____
ROOT
ATOM      1  C   UNL     1      -0.020   1.504  -0.012  0.00  0.00    +0.087 C 
ATOM      2  C   UNL     1       0.001  -0.003  -0.022  0.00  0.00    +0.115 A 
ATOM      3  C   UNL     1      -1.097  -0.815  -0.015  0.00  0.00    +0.078 A 
ATOM      4  C   UNL     1      -0.579  -2.187  -0.031  0.00  0.00    +0.063 A 
ATOM      5  C   UNL     1       0.772  -2.072  -0.047  0.00  0.00    +0.136 A 
ATOM      6  O   UNL     1       1.098  -0.767  -0.047  0.00  0.00    -0.459 OA
ENDROOT
BRANCH   5   7
ATOM      7  C   UNL     1       1.731  -3.198  -0.067  0.00  0.00    +0.020 A 
ATOM      8  C   UNL     1       1.266  -4.514  -0.075  0.00  0.00    +0.031 A 
ATOM      9  C   UNL     1       2.166  -5.561  -0.094  0.00  0.00    +0.043 A 
ATOM     10  C   UNL     1       3.527  -5.307  -0.103  0.00  0.00    +0.040 A 
ATOM     11  C   UNL     1       3.994  -4.004  -0.094  0.00  0.00    +0.043 A 
ATOM     12  C   UNL     1       3.104  -2.949  -0.082  0.00  0.00    +0.031 A 
ATOM     13 CL   UNL     1       5.703  -3.696  -0.105  0.00  0.00    -0.083 Cl
ATOM     14 CL   UNL     1       1.590  -7.198  -0.104  0.00  0.00    -0.083 Cl
ENDBRANCH   5   7
BRANCH   3  15
ATOM     15  C   UNL     1      -2.511  -0.398   0.006  0.00  0.00    +0.252 C 
ATOM     16  O   UNL     1      -2.796   0.784   0.019  0.00  0.00    -0.270 OA
ATOM     17  N   UNL     1      -3.487  -1.327   0.012  0.00  0.00    -0.280 N 
ATOM     18  H   UNL     1      -3.262  -2.267  -0.064  0.00  0.00    +0.155 HD
BRANCH  17  19
ATOM     19  C   UNL     1      -4.825  -0.935   0.126  0.00  0.00    +0.054 A 
ATOM     20  C   UNL     1      -5.255   0.250  -0.456  0.00  0.00    +0.044 A 
ATOM     21  C   UNL     1      -6.578   0.635  -0.340  0.00  0.00    +0.043 A 
ATOM     22  C   UNL     1      -7.473  -0.160   0.354  0.00  0.00    +0.021 A 
ATOM     23  C   UNL     1      -7.048  -1.340   0.935  0.00  0.00    +0.023 A 
ATOM     24  C   UNL     1      -5.728  -1.734   0.818  0.00  0.00    +0.062 A 
ATOM     25 CL   UNL     1      -5.197  -3.220   1.541  0.00  0.00    -0.082 Cl
ATOM     26 CL   UNL     1      -7.117   2.116  -1.067  0.00  0.00    -0.083 Cl
ENDBRANCH  17  19
ENDBRANCH   3  15
TORSDOF 3
