REMARK  Name = ZINC39694895
REMARK  10 active torsions:
REMARK  status: ('A' for Active; 'I' for Inactive)
REMARK    1  A    between atoms: C_1  and  C_2
REMARK    2  A    between atoms: C_4  and  C_35
REMARK    3  A    between atoms: C_6  and  C_8
REMARK    4  A    between atoms: C_8  and  N_9
REMARK    5  A    between atoms: C_10  and  C_12
REMARK    6  A    between atoms: C_23  and  C_25
REMARK    7  A    between atoms: C_25  and  C_26
REMARK    8  A    between atoms: C_26  and  C_27
REMARK    9  A    between atoms: C_30  and  O_33
REMARK   10  A    between atoms: O_33  and  C_34
REMARK                            x       y       z     vdW  Elec       q    Type
REMARK                         _______ _______ _______ _____ _____    ______ ____
ROOT
ATOM      1  C   UNL     1       3.127  -3.974   4.472  0.00  0.00    +0.100 C 
ATOM      2  C   UNL     1       3.874  -2.629   4.617  0.00  0.00    +0.121 C 
ATOM      3  N   UNL     1       3.762  -2.292   6.056  0.00  0.00    -0.300 N 
ATOM      4  C   UNL     1       3.931  -3.590   6.753  0.00  0.00    +0.115 C 
ATOM      5  C   UNL     1       3.170  -4.603   5.875  0.00  0.00    -0.004 C 
ATOM      6  C   UNL     1       1.754  -4.802   6.408  0.00  0.00    -0.010 C 
ATOM      7  C   UNL     1       1.821  -5.481   7.779  0.00  0.00    -0.082 C 
ATOM      8  N   UNL     1       2.505  -6.773   7.654  0.00  0.00    +0.379 N 
ATOM      9  C   UNL     1       3.895  -6.566   7.230  0.00  0.00    -0.082 C 
ATOM     10  C   UNL     1       3.916  -5.933   5.836  0.00  0.00    -0.010 C 
ATOM     11  C   UNL     1       3.554  -1.080   6.607  0.00  0.00    +0.216 C 
ATOM     12  O   UNL     1       3.486  -0.965   7.813  0.00  0.00    -0.276 OA
ATOM     13  H   UNL     1       2.494  -7.245   8.546  0.00  0.00    -0.086 HD
ATOM     14  H   UNL     1       2.027  -7.341   6.971  0.00  0.00    -0.086 HD
ENDROOT
BRANCH   1  16
ATOM     15  N   UNL     1       1.048  -4.676   3.331  0.00  0.00    -0.311 N 
ATOM     16  C   UNL     1       1.701  -3.739   4.046  0.00  0.00    +0.218 C 
ATOM     17  O   UNL     1       1.141  -2.705   4.346  0.00  0.00    -0.275 OA
ATOM     18  H   UNL     1       1.496  -5.503   3.091  0.00  0.00    +0.149 HD
BRANCH  15  19
ATOM     19  C   UNL     1      -0.339  -4.448   2.917  0.00  0.00    +0.139 C 
BRANCH  19  25
ATOM     20  C   UNL     1      -0.955  -6.818  -1.448  0.00  0.00    +0.044 C 
ATOM     21  C   UNL     1      -1.128  -6.772   0.049  0.00  0.00    -0.050 A 
ATOM     22  C   UNL     1      -1.740  -7.823   0.706  0.00  0.00    +0.006 A 
ATOM     23  C   UNL     1      -1.899  -7.781   2.078  0.00  0.00    -0.050 A 
ATOM     24  C   UNL     1      -1.446  -6.689   2.794  0.00  0.00    +0.008 A 
ATOM     25  C   UNL     1      -0.833  -5.639   2.137  0.00  0.00    -0.030 A 
ATOM     26  C   UNL     1      -0.670  -5.682   0.765  0.00  0.00    +0.008 A 
ATOM     27  C   UNL     1      -2.568  -8.927   2.794  0.00  0.00    +0.044 C 
ENDBRANCH  19  25
ENDBRANCH  15  19
ENDBRANCH   1  16
BRANCH  11  28
ATOM     28  C   UNL     1       3.405   0.133   5.725  0.00  0.00    +0.100 C 
BRANCH  28  29
ATOM     29  C   UNL     1       3.179   1.372   6.595  0.00  0.00    +0.044 C 
BRANCH  29  30
ATOM     30  C   UNL     1       3.031   2.584   5.713  0.00  0.00    -0.047 A 
ATOM     31  C   UNL     1       4.146   3.317   5.353  0.00  0.00    +0.007 A 
ATOM     32  C   UNL     1       4.013   4.430   4.545  0.00  0.00    +0.046 A 
ATOM     33  C   UNL     1       2.757   4.811   4.094  0.00  0.00    +0.120 A 
ATOM     34  C   UNL     1       1.639   4.074   4.456  0.00  0.00    +0.046 A 
ATOM     35  C   UNL     1       1.779   2.959   5.260  0.00  0.00    +0.007 A 
BRANCH  33  36
ATOM     36  O   UNL     1       2.623   5.905   3.300  0.00  0.00    -0.495 OA
ATOM     37  C   UNL     1       1.301   6.239   2.872  0.00  0.00    +0.277 C 
ENDBRANCH  33  36
ENDBRANCH  29  30
ENDBRANCH  28  29
ENDBRANCH  11  28
TORSDOF 7
