REMARK  Name = ZINC02129989
REMARK  6 active torsions:
REMARK  status: ('A' for Active; 'I' for Inactive)
REMARK    1  A    between atoms: C_1  and  C_2
REMARK    2  A    between atoms: C_16  and  C_18
REMARK    3  A    between atoms: C_18  and  C_19
REMARK    4  A    between atoms: C_19  and  C_20
REMARK    5  A    between atoms: N_25  and  C_28
REMARK    6  A    between atoms: C_28  and  C_29
REMARK                            x       y       z     vdW  Elec       q    Type
REMARK                         _______ _______ _______ _____ _____    ______ ____
ROOT
ATOM      1  C   UNL     1      -1.858  -3.308   7.458  0.00  0.00    +0.047 C 
ATOM      2  C   UNL     1      -1.240  -2.712   6.220  0.00  0.00    -0.011 A 
ATOM      3  C   UNL     1      -0.527  -3.514   5.351  0.00  0.00    +0.046 A 
ATOM      4  C   UNL     1       0.044  -2.974   4.212  0.00  0.00    +0.020 A 
ATOM      5  C   UNL     1      -0.102  -1.625   3.941  0.00  0.00    +0.006 A 
ATOM      6  C   UNL     1      -0.814  -0.822   4.805  0.00  0.00    -0.027 A 
ATOM      7  C   UNL     1      -1.391  -1.353   5.955  0.00  0.00    +0.040 A 
ATOM      8  N   UNL     1      -2.054  -0.352   6.668  0.00  0.00    -0.286 N 
ATOM      9  C   UNL     1      -1.964   0.848   6.063  0.00  0.00    +0.211 C 
ATOM     10  O   UNL     1      -2.440   1.893   6.452  0.00  0.00    -0.277 OA
ATOM     11  C   UNL     1      -1.156   0.640   4.811  0.00  0.00    +0.050 C 
ATOM     12  C   UNL     1      -1.951   1.035   3.559  0.00  0.00    +0.088 C 
ATOM     13  C   UNL     1      -1.472   2.472   3.210  0.00  0.00    +0.073 C 
ATOM     14  C   UNL     1      -0.445   2.825   4.306  0.00  0.00    -0.057 C 
ATOM     15  C   UNL     1      -0.765   2.292   1.887  0.00  0.00    +0.224 C 
ATOM     16  O   UNL     1      -0.222   3.174   1.257  0.00  0.00    -0.275 OA
ATOM     17  N   UNL     1      -0.833   1.008   1.516  0.00  0.00    -0.237 N 
ATOM     18  C   UNL     1      -1.477   0.215   2.380  0.00  0.00    +0.225 C 
ATOM     19  O   UNL     1      -1.654  -0.976   2.239  0.00  0.00    -0.275 OA
ATOM     20 CL   UNL     1      -0.345  -5.207   5.691  0.00  0.00    -0.083 Cl
ATOM     21  H   UNL     1      -2.526  -0.503   7.502  0.00  0.00    +0.155 HD
ATOM     22  N   UNL     1       0.014   1.522   4.798  0.00  0.00    +0.394 N 
ATOM     23  H   UNL     1       0.736   1.142   4.174  0.00  0.00    -0.083 HD
ATOM     24  H   UNL     1       0.396   1.616   5.747  0.00  0.00    -0.083 HD
ENDROOT
BRANCH  14  25
ATOM     25  C   UNL     1      -1.118   3.611   5.433  0.00  0.00    -0.006 C 
BRANCH  25  26
ATOM     26  C   UNL     1      -1.032   5.108   5.133  0.00  0.00    +0.094 C 
BRANCH  26  27
ATOM     27  C   UNL     1      -1.695   5.882   6.243  0.00  0.00    +0.210 C 
ATOM     28  O   UNL     1      -2.187   5.294   7.182  0.00  0.00    -0.276 OA
ATOM     29  N   UNL     1      -1.740   7.228   6.192  0.00  0.00    -0.329 N 
ATOM     30  H   UNL     1      -1.347   7.699   5.441  0.00  0.00    +0.145 HD
ATOM     31  H   UNL     1      -2.167   7.726   6.907  0.00  0.00    +0.145 HD
ENDBRANCH  26  27
ENDBRANCH  25  26
ENDBRANCH  14  25
BRANCH  17  32
ATOM     32  C   UNL     1      -0.245   0.510   0.270  0.00  0.00    +0.151 C 
BRANCH  32  33
ATOM     33  C   UNL     1      -1.266   0.594  -0.835  0.00  0.00    -0.026 A 
ATOM     34  C   UNL     1      -1.357   1.739  -1.605  0.00  0.00    +0.009 A 
ATOM     35  C   UNL     1      -2.291   1.820  -2.621  0.00  0.00    +0.050 A 
ATOM     36  C   UNL     1      -3.140   0.753  -2.869  0.00  0.00    +0.166 A 
ATOM     37  C   UNL     1      -3.049  -0.399  -2.092  0.00  0.00    +0.167 A 
ATOM     38  C   UNL     1      -2.106  -0.476  -1.081  0.00  0.00    +0.054 A 
ATOM     39  O   UNL     1      -3.982  -1.294  -2.530  0.00  0.00    -0.453 OA
ATOM     40  C   UNL     1      -4.368  -0.839  -3.840  0.00  0.00    +0.466 C 
ATOM     41  O   UNL     1      -4.130   0.581  -3.792  0.00  0.00    -0.453 OA
ENDBRANCH  32  33
ENDBRANCH  17  32
TORSDOF 5
