REMARK  Name = ZINC38685569
REMARK  14 active torsions:
REMARK  status: ('A' for Active; 'I' for Inactive)
REMARK    1  A    between atoms: C_1  and  C_2
REMARK    2  A    between atoms: C_2  and  C_3
REMARK    3  A    between atoms: C_3  and  C_4
REMARK    4  A    between atoms: C_4  and  C_5
REMARK    5  A    between atoms: C_5  and  O_6
REMARK    6  A    between atoms: O_6  and  C_7
REMARK    7  A    between atoms: C_10  and  C_13
REMARK    8  A    between atoms: C_18  and  O_27
REMARK    9  A    between atoms: C_22  and  N_26
REMARK   10  A    between atoms: C_23  and  C_24
REMARK   11  A    between atoms: O_27  and  C_28
REMARK   12  A    between atoms: C_28  and  C_30
REMARK   13  A    between atoms: C_30  and  O_31
REMARK   14  A    between atoms: O_31  and  C_32
REMARK                            x       y       z     vdW  Elec       q    Type
REMARK                         _______ _______ _______ _____ _____    ______ ____
ROOT
ATOM      1  C   UNL     1       3.936  -6.496  -6.898  0.00  0.00    +0.098 C 
ATOM      2  C   UNL     1       5.090  -7.330  -6.408  0.00  0.00    +0.008 A 
ATOM      3  C   UNL     1       6.299  -6.718  -6.125  0.00  0.00    +0.012 A 
ATOM      4  C   UNL     1       7.368  -7.467  -5.674  0.00  0.00    +0.047 A 
ATOM      5  C   UNL     1       7.232  -8.838  -5.503  0.00  0.00    +0.135 A 
ATOM      6  C   UNL     1       6.024  -9.452  -5.785  0.00  0.00    +0.093 A 
ATOM      7  C   UNL     1       4.949  -8.698  -6.238  0.00  0.00    +0.138 A 
ATOM      8  O   UNL     1       3.772  -9.315  -6.510  0.00  0.00    -0.441 OA
ATOM      9  C   UNL     1       2.865  -8.710  -7.295  0.00  0.00    +0.199 C 
ATOM     10  C   UNL     1       2.888  -7.378  -7.517  0.00  0.00    +0.098 C 
ENDROOT
BRANCH   1  14
ATOM     11  C   UNL     1       2.230  -4.364  -3.611  0.00  0.00    +0.121 A 
ATOM     12  C   UNL     1       2.758  -3.670  -4.690  0.00  0.00    +0.046 A 
ATOM     13  C   UNL     1       3.309  -4.362  -5.751  0.00  0.00    +0.008 A 
ATOM     14  C   UNL     1       3.335  -5.744  -5.739  0.00  0.00    -0.034 A 
ATOM     15  C   UNL     1       2.809  -6.438  -4.665  0.00  0.00    +0.008 A 
ATOM     16  C   UNL     1       2.262  -5.751  -3.598  0.00  0.00    +0.046 A 
BRANCH  11  17
ATOM     17  O   UNL     1       1.688  -3.686  -2.565  0.00  0.00    -0.492 OA
BRANCH  17  18
ATOM     18  C   UNL     1       1.690  -2.260  -2.646  0.00  0.00    +0.229 C 
BRANCH  18  19
ATOM     19  C   UNL     1       1.043  -1.677  -1.388  0.00  0.00    +0.041 C 
BRANCH  19  20
ATOM     20  C   UNL     1       1.045  -0.149  -1.475  0.00  0.00    +0.003 C 
BRANCH  20  22
ATOM     21  C   UNL     1       0.400   1.962  -0.303  0.00  0.00    +0.004 C 
ATOM     22  C   UNL     1       0.399   0.434  -0.216  0.00  0.00    -0.003 C 
ENDBRANCH  20  22
ENDBRANCH  19  20
ENDBRANCH  18  19
ENDBRANCH  17  18
ENDBRANCH  11  17
ENDBRANCH   1  14
BRANCH   9  23
ATOM     23  N   UNL     1       1.886  -9.469  -7.887  0.00  0.00    -0.328 N 
ATOM     24  H   UNL     1       1.856 -10.426  -7.736  0.00  0.00    +0.145 HD
ATOM     25  H   UNL     1       1.223  -9.047  -8.456  0.00  0.00    +0.145 HD
ENDBRANCH   9  23
BRANCH  10  26
ATOM     26  C   UNL     1       1.890  -6.795  -8.363  0.00  0.00    +0.101 C 
ATOM     27  N   UNL     1       1.099  -6.333  -9.034  0.00  0.00    -0.191 NA
ENDBRANCH  10  26
BRANCH   5  28
ATOM     28  O   UNL     1       8.284  -9.576  -5.060  0.00  0.00    -0.423 OA
BRANCH  28  29
ATOM     29  C   UNL     1       8.863 -10.428  -5.920  0.00  0.00    +0.350 C 
ATOM     30  O   UNL     1       8.516 -10.448  -7.077  0.00  0.00    -0.247 OA
BRANCH  29  31
ATOM     31  C   UNL     1       9.946 -11.361  -5.443  0.00  0.00    +0.349 C 
BRANCH  31  32
ATOM     32  O   UNL     1      10.400 -12.163  -6.535  0.00  0.00    -0.481 OA
BRANCH  32  33
ATOM     33  C   UNL     1      11.383 -13.064  -6.273  0.00  0.00    +0.123 A 
ATOM     34  C   UNL     1      11.896 -13.178  -4.989  0.00  0.00    +0.046 A 
ATOM     35  C   UNL     1      12.895 -14.095  -4.724  0.00  0.00    +0.005 A 
ATOM     36  C   UNL     1      13.384 -14.899  -5.737  0.00  0.00    +0.020 A 
ATOM     37  C   UNL     1      12.875 -14.787  -7.019  0.00  0.00    +0.044 A 
ATOM     38  C   UNL     1      11.871 -13.874  -7.287  0.00  0.00    +0.065 A 
ATOM     39 CL   UNL     1      13.491 -15.797  -8.289  0.00  0.00    -0.083 Cl
ENDBRANCH  32  33
ENDBRANCH  31  32
ENDBRANCH  29  31
ENDBRANCH  28  29
ENDBRANCH   5  28
TORSDOF 13
