REMARK  Name = ZINC05978498
REMARK  13 active torsions:
REMARK  status: ('A' for Active; 'I' for Inactive)
REMARK    1  A    between atoms: C_1  and  C_2
REMARK    2  A    between atoms: C_2  and  C_3
REMARK    3  A    between atoms: C_3  and  C_4
REMARK    4  A    between atoms: C_4  and  C_5
REMARK    5  A    between atoms: C_5  and  C_7
REMARK    6  A    between atoms: C_5  and  N_55
REMARK    7  A    between atoms: C_9  and  C_12
REMARK    8  A    between atoms: N_14  and  C_15
REMARK    9  A    between atoms: C_15  and  C_17
REMARK   10  A    between atoms: C_15  and  C_28
REMARK   11  A    between atoms: C_17  and  C_18
REMARK   12  A    between atoms: C_28  and  O_30
REMARK   13  A    between atoms: O_30  and  C_31
REMARK                            x       y       z     vdW  Elec       q    Type
REMARK                         _______ _______ _______ _____ _____    ______ ____
ROOT
ATOM      1  C   UNL     1       3.745   2.100   3.289  0.00  0.00    +0.266 C 
ATOM      2  O   UNL     1       3.918   1.153   4.033  0.00  0.00    -0.268 OA
ATOM      3  N   UNL     1       3.851   1.937   1.955  0.00  0.00    -0.297 N 
ATOM      4  H   UNL     1       3.713   2.692   1.362  0.00  0.00    +0.150 HD
ENDROOT
BRANCH   1   7
ATOM      5  C   UNL     1       2.941   5.526   3.978  0.00  0.00    +0.182 A 
ATOM      6  N   UNL     1       3.205   4.568   3.140  0.00  0.00    -0.210 NA
ATOM      7  C   UNL     1       3.419   3.425   3.846  0.00  0.00    +0.163 A 
ATOM      8  C   UNL     1       3.281   3.736   5.164  0.00  0.00    +0.230 A 
ATOM      9  O   UNL     1       2.985   5.044   5.228  0.00  0.00    -0.449 OA
BRANCH   5  10
ATOM     10  C   UNL     1       2.640   6.955   3.603  0.00  0.00    +0.013 C 
BRANCH  10  13
ATOM     11  H   UNL     1       0.656   6.912   4.148  0.00  0.00    -0.089 HD
ATOM     12  H   UNL     1       1.678   7.390   5.370  0.00  0.00    -0.089 HD
ATOM     13  N   UNL     1       1.487   7.456   4.371  0.00  0.00    +0.386 N 
ATOM     14  H   UNL     1       1.320   8.439   4.126  0.00  0.00    -0.089 HD
ENDBRANCH  10  13
BRANCH  10  15
ATOM     15  C   UNL     1       3.858   7.829   3.907  0.00  0.00    -0.007 C 
BRANCH  15  16
ATOM     16  C   UNL     1       3.600   9.254   3.413  0.00  0.00    -0.001 C 
BRANCH  16  18
ATOM     17  C   UNL     1       4.559  11.553   3.222  0.00  0.00    +0.004 C 
ATOM     18  C   UNL     1       4.818  10.128   3.717  0.00  0.00    -0.003 C 
ENDBRANCH  16  18
ENDBRANCH  15  16
ENDBRANCH  10  15
ENDBRANCH   5  10
ENDBRANCH   1   7
BRANCH   3  19
ATOM     19  C   UNL     1       4.175   0.620   1.402  0.00  0.00    +0.186 C 
BRANCH  19  20
ATOM     20  C   UNL     1       5.670   0.430   1.398  0.00  0.00    +0.328 C 
ATOM     21  O   UNL     1       6.391   1.306   1.815  0.00  0.00    -0.249 OA
BRANCH  20  22
ATOM     22  O   UNL     1       6.201  -0.711   0.932  0.00  0.00    -0.467 OA
ATOM     23  C   UNL     1       7.649  -0.824   0.959  0.00  0.00    +0.280 C 
ENDBRANCH  20  22
ENDBRANCH  19  20
BRANCH  19  24
ATOM     24  C   UNL     1       3.646   0.524  -0.031  0.00  0.00    +0.071 C 
BRANCH  24  25
ATOM     25  C   UNL     1       2.140   0.591  -0.015  0.00  0.00    -0.020 A 
ATOM     26  C   UNL     1       1.295  -0.452  -0.013  0.00  0.00    +0.087 A 
ATOM     27  N   UNL     1       0.002  -0.004   0.002  0.00  0.00    -0.360 N 
ATOM     28  H   UNL     1      -0.784  -0.572   0.006  0.00  0.00    +0.165 HD
ATOM     29  C   UNL     1      -0.017   1.373   0.010  0.00  0.00    +0.047 A 
ATOM     30  C   UNL     1       1.322   1.806  -0.001  0.00  0.00    +0.003 A 
ATOM     31  C   UNL     1       1.612   3.171   0.004  0.00  0.00    +0.010 A 
ATOM     32  C   UNL     1       0.593   4.082   0.019  0.00  0.00    +0.001 A 
ATOM     33  C   UNL     1      -0.729   3.659   0.029  0.00  0.00    +0.002 A 
ATOM     34  C   UNL     1      -1.038   2.317   0.029  0.00  0.00    +0.026 A 
ENDBRANCH  24  25
ENDBRANCH  19  24
ENDBRANCH   3  19
TORSDOF 11
