REMARK  Name = ZINC15254614
REMARK  6 active torsions:
REMARK  status: ('A' for Active; 'I' for Inactive)
REMARK    1  A    between atoms: C_1  and  C_2
REMARK    2  A    between atoms: C_6  and  N_9
REMARK    3  A    between atoms: C_7  and  C_8
REMARK    4  A    between atoms: C_13  and  C_14
REMARK    5  A    between atoms: C_17  and  O_20
REMARK    6  A    between atoms: O_20  and  C_21
REMARK                            x       y       z     vdW  Elec       q    Type
REMARK                         _______ _______ _______ _____ _____    ______ ____
ROOT
ATOM      1  N   UNL     1       3.034   7.441  -0.279  0.00  0.00    -0.216 N 
ATOM      2  C   UNL     1       3.541   6.194  -0.212  0.00  0.00    +0.271 C 
ATOM      3  O   UNL     1       4.717   5.880  -0.245  0.00  0.00    -0.268 OA
ATOM      4  C   UNL     1       2.388   5.288  -0.094  0.00  0.00    +0.097 C 
ATOM      5  C   UNL     1       2.410   3.935   0.001  0.00  0.00    +0.036 C 
ATOM      6  N   UNL     1       1.264   6.123  -0.095  0.00  0.00    -0.292 N 
ATOM      7  C   UNL     1       1.695   7.392  -0.207  0.00  0.00    +0.148 C 
ATOM      8  S   UNL     1       0.671   8.764  -0.251  0.00  0.00    -0.018 S 
ATOM      9  H   UNL     1       0.339   5.838  -0.027  0.00  0.00    +0.154 HD
ENDROOT
BRANCH   1  15
ATOM     10  C   UNL     1       5.193  10.809  -3.140  0.00  0.00    +0.044 C 
ATOM     11  C   UNL     1       4.852  10.268  -1.776  0.00  0.00    -0.046 A 
ATOM     12  C   UNL     1       5.288  10.929  -0.642  0.00  0.00    +0.004 A 
ATOM     13  C   UNL     1       4.977  10.435   0.612  0.00  0.00    +0.002 A 
ATOM     14  C   UNL     1       4.225   9.283   0.735  0.00  0.00    +0.024 A 
ATOM     15  C   UNL     1       3.792   8.614  -0.401  0.00  0.00    +0.046 A 
ATOM     16  C   UNL     1       4.105   9.112  -1.659  0.00  0.00    -0.026 A 
ATOM     17  C   UNL     1       3.632   8.392  -2.895  0.00  0.00    +0.046 C 
ENDBRANCH   1  15
BRANCH   5  18
ATOM     18  C   UNL     1       1.155   3.175  -0.058  0.00  0.00    -0.023 A 
ATOM     19  C   UNL     1       0.033   3.718  -0.696  0.00  0.00    +0.011 A 
ATOM     20  C   UNL     1      -1.141   3.001  -0.748  0.00  0.00    +0.046 A 
ATOM     21  C   UNL     1      -1.216   1.742  -0.164  0.00  0.00    +0.120 A 
ATOM     22  C   UNL     1      -0.104   1.195   0.466  0.00  0.00    +0.046 A 
ATOM     23  C   UNL     1       1.075   1.903   0.524  0.00  0.00    +0.011 A 
BRANCH  21  24
ATOM     24  O   UNL     1      -2.378   1.041  -0.213  0.00  0.00    -0.495 OA
ATOM     25  C   UNL     1      -2.386  -0.246   0.407  0.00  0.00    +0.277 C 
ENDBRANCH  21  24
ENDBRANCH   5  18
TORSDOF 3
