REMARK  Name = ZINC39676505
REMARK  9 active torsions:
REMARK  status: ('A' for Active; 'I' for Inactive)
REMARK    1  A    between atoms: C_1  and  C_2
REMARK    2  A    between atoms: C_2  and  C_3
REMARK    3  A    between atoms: C_3  and  C_5
REMARK    4  A    between atoms: C_3  and  C_6
REMARK    5  A    between atoms: C_6  and  C_7
REMARK    6  A    between atoms: C_11  and  C_20
REMARK    7  A    between atoms: N_22  and  C_23
REMARK    8  A    between atoms: C_23  and  C_24
REMARK    9  A    between atoms: C_24  and  C_25
REMARK                            x       y       z     vdW  Elec       q    Type
REMARK                         _______ _______ _______ _____ _____    ______ ____
ROOT
ATOM      1  C   UNL     1       1.318  -2.544   2.740  0.00  0.00    +0.216 C 
ATOM      2  O   UNL     1       1.840  -1.779   3.522  0.00  0.00    -0.276 OA
ATOM      3  N   UNL     1       1.370  -3.873   2.960  0.00  0.00    -0.300 N 
ATOM      4  C   UNL     1       0.803  -4.955   2.122  0.00  0.00    +0.121 C 
ATOM      5  C   UNL     1       1.864  -6.077   2.162  0.00  0.00    +0.100 C 
ATOM      6  C   UNL     1       2.650  -5.827   3.460  0.00  0.00    -0.004 C 
ATOM      7  C   UNL     1       2.013  -4.581   4.093  0.00  0.00    +0.115 C 
ATOM      8  C   UNL     1       4.119  -5.559   3.146  0.00  0.00    -0.010 C 
ATOM      9  C   UNL     1       4.890  -5.370   4.455  0.00  0.00    -0.082 C 
ATOM     10  N   UNL     1       4.759  -6.576   5.281  0.00  0.00    +0.379 N 
ATOM     11  C   UNL     1       3.354  -6.775   5.656  0.00  0.00    -0.082 C 
ATOM     12  C   UNL     1       2.517  -7.023   4.398  0.00  0.00    -0.010 C 
ATOM     13  H   UNL     1       5.083  -7.377   4.758  0.00  0.00    -0.086 HD
ATOM     14  H   UNL     1       5.317  -6.474   6.115  0.00  0.00    -0.086 HD
ENDROOT
BRANCH   5  15
ATOM     15  C   UNL     1       1.198  -7.428   2.201  0.00  0.00    +0.218 C 
ATOM     16  O   UNL     1       0.117  -7.556   2.735  0.00  0.00    -0.275 OA
ATOM     17  N   UNL     1       1.805  -8.495   1.643  0.00  0.00    -0.315 N 
ATOM     18  H   UNL     1       2.670  -8.392   1.216  0.00  0.00    +0.149 HD
BRANCH  17  19
ATOM     19  C   UNL     1       1.158  -9.808   1.681  0.00  0.00    +0.109 C 
BRANCH  19  20
ATOM     20  C   UNL     1       2.050 -10.837   0.982  0.00  0.00    +0.056 C 
BRANCH  20  21
ATOM     21  C   UNL     1       1.384 -12.188   1.021  0.00  0.00    -0.021 A 
ATOM     22  C   UNL     1       0.389 -12.697   0.074  0.00  0.00    +0.004 A 
ATOM     23  C   UNL     1      -0.223 -12.171  -1.066  0.00  0.00    +0.030 A 
ATOM     24  C   UNL     1      -1.145 -12.927  -1.754  0.00  0.00    +0.042 A 
ATOM     25  C   UNL     1      -1.468 -14.207  -1.320  0.00  0.00    +0.022 A 
ATOM     26  C   UNL     1      -0.873 -14.739  -0.198  0.00  0.00    +0.027 A 
ATOM     27  C   UNL     1       0.061 -13.992   0.512  0.00  0.00    +0.047 A 
ATOM     28  N   UNL     1       0.809 -14.240   1.643  0.00  0.00    -0.360 N 
ATOM     29  C   UNL     1       1.595 -13.156   1.927  0.00  0.00    +0.087 A 
ATOM     30 CL   UNL     1      -1.909 -12.278  -3.172  0.00  0.00    -0.084 Cl
ATOM     31  H   UNL     1       0.785 -15.061   2.158  0.00  0.00    +0.165 HD
ENDBRANCH  20  21
ENDBRANCH  19  20
ENDBRANCH  17  19
ENDBRANCH   5  15
BRANCH   1  32
ATOM     32  C   UNL     1       0.612  -2.009   1.521  0.00  0.00    +0.099 C 
BRANCH  32  33
ATOM     33  C   UNL     1       0.699  -0.482   1.509  0.00  0.00    -0.006 C 
ATOM     34  C   UNL     1       2.160  -0.056   1.350  0.00  0.00    +0.008 C 
BRANCH  33  36
ATOM     35  C   UNL     1      -0.138   1.596   0.403  0.00  0.00    +0.004 C 
ATOM     36  C   UNL     1      -0.123   0.067   0.342  0.00  0.00    +0.000 C 
ENDBRANCH  33  36
ENDBRANCH  32  33
ENDBRANCH   1  32
TORSDOF 7
