REMARK  Name = ZINC39724940
REMARK  8 active torsions:
REMARK  status: ('A' for Active; 'I' for Inactive)
REMARK    1  A    between atoms: C_1  and  C_2
REMARK    2  A    between atoms: C_5  and  C_19
REMARK    3  A    between atoms: C_6  and  C_18
REMARK    4  A    between atoms: N_7  and  C_8
REMARK    5  A    between atoms: C_19  and  C_21
REMARK    6  A    between atoms: C_21  and  S_22
REMARK    7  A    between atoms: S_22  and  C_23
REMARK    8  A    between atoms: C_28  and  N_30
REMARK                            x       y       z     vdW  Elec       q    Type
REMARK                         _______ _______ _______ _____ _____    ______ ____
ROOT
ATOM      1  C   UNL     1       0.059   1.560   0.108  0.00  0.00    +0.029 C 
ATOM      2  C   UNL     1       0.027   0.031   0.050  0.00  0.00    +0.080 C 
ATOM      3  C   UNL     1       0.766  -0.476  -1.204  0.00  0.00    +0.062 C 
ATOM      4  C   UNL     1       1.896  -1.309  -0.640  0.00  0.00    +0.015 C 
ATOM      5  C   UNL     1       1.814  -1.281   0.706  0.00  0.00    +0.015 C 
ATOM      6  N   UNL     1       0.778  -0.542   1.175  0.00  0.00    -0.300 N 
ATOM      7  C   UNL     1       2.782  -2.005   1.607  0.00  0.00    +0.061 C 
ENDROOT
BRANCH   6   8
ATOM      8  C   UNL     1       0.469  -0.351   2.526  0.00  0.00    +0.038 A 
ATOM      9  C   UNL     1       1.333   0.369   3.341  0.00  0.00    +0.027 A 
ATOM     10  C   UNL     1       1.029   0.556   4.675  0.00  0.00    +0.051 A 
ATOM     11  C   UNL     1      -0.139   0.027   5.205  0.00  0.00    +0.162 A 
ATOM     12  C   UNL     1      -1.006  -0.693   4.391  0.00  0.00    +0.164 A 
ATOM     13  C   UNL     1      -0.703  -0.877   3.051  0.00  0.00    +0.072 A 
ATOM     14  O   UNL     1      -2.160  -1.213   4.892  0.00  0.00    -0.485 OA
ATOM     15  C   UNL     1      -2.252  -1.323   6.316  0.00  0.00    +0.270 C 
ATOM     16  C   UNL     1      -1.774  -0.002   6.933  0.00  0.00    +0.270 C 
ATOM     17  O   UNL     1      -0.419   0.219   6.524  0.00  0.00    -0.485 OA
ENDBRANCH   6   8
BRANCH   4  18
ATOM     18  C   UNL     1       2.863  -1.994  -1.389  0.00  0.00    +0.171 C 
ATOM     19  O   UNL     1       3.786  -2.550  -0.826  0.00  0.00    -0.291 OA
BRANCH  18  20
ATOM     20  C   UNL     1       2.759  -2.041  -2.892  0.00  0.00    +0.156 C 
BRANCH  20  21
ATOM     21  S   UNL     1       4.147  -2.994  -3.565  0.00  0.00    -0.080 S 
BRANCH  21  22
ATOM     22  C   UNL     1       3.885  -2.957  -5.307  0.00  0.00    +0.171 A 
ATOM     23  N   UNL     1       4.764  -3.596  -6.128  0.00  0.00    -0.302 N 
ATOM     24  C   UNL     1       4.578  -3.578  -7.465  0.00  0.00    +0.254 A 
ATOM     25  O   UNL     1       5.361  -4.149  -8.208  0.00  0.00    -0.268 OA
ATOM     26  C   UNL     1       3.475  -2.895  -7.984  0.00  0.00    +0.113 A 
ATOM     27  C   UNL     1       2.609  -2.259  -7.105  0.00  0.00    +0.124 A 
ATOM     28  N   UNL     1       2.840  -2.315  -5.789  0.00  0.00    -0.209 NA
ATOM     29  H   UNL     1       5.525  -4.066  -5.751  0.00  0.00    +0.171 HD
BRANCH  27  30
ATOM     30  N   UNL     1       1.510  -1.576  -7.587  0.00  0.00    -0.343 N 
ATOM     31  H   UNL     1       1.342  -1.540  -8.542  0.00  0.00    +0.144 HD
ATOM     32  H   UNL     1       0.906  -1.133  -6.971  0.00  0.00    +0.144 HD
ENDBRANCH  27  30
ENDBRANCH  21  22
ENDBRANCH  20  21
ENDBRANCH  18  20
ENDBRANCH   4  18
TORSDOF 6
