REMARK  Name = ZINC03765712
REMARK  6 active torsions:
REMARK  status: ('A' for Active; 'I' for Inactive)
REMARK    1  A    between atoms: C_6  and  C_11
REMARK    2  A    between atoms: C_13  and  C_35
REMARK    3  A    between atoms: C_18  and  C_21
REMARK    4  A    between atoms: N_23  and  N_24
REMARK    5  A    between atoms: C_25  and  C_26
REMARK    6  A    between atoms: C_31  and  N_32
REMARK                            x       y       z     vdW  Elec       q    Type
REMARK                         _______ _______ _______ _____ _____    ______ ____
ROOT
ATOM      1  C   UNL     1      -7.802  -2.067   4.570  0.00  0.00    +0.077 A 
ATOM      2  C   UNL     1      -8.009  -3.374   4.228  0.00  0.00    +0.062 A 
ATOM      3  C   UNL     1      -6.787  -3.907   3.817  0.00  0.00    +0.166 A 
ATOM      4  N   UNL     1      -5.874  -2.973   3.896  0.00  0.00    -0.160 NA
ATOM      5  N   UNL     1      -6.478  -1.798   4.364  0.00  0.00    -0.207 N 
ATOM      6  C   UNL     1      -5.843  -0.579   4.584  0.00  0.00    +0.195 A 
ATOM      7  N   UNL     1      -5.094  -0.205   5.600  0.00  0.00    -0.216 NA
ATOM      8  C   UNL     1      -4.574   1.023   5.624  0.00  0.00    +0.136 A 
ATOM      9  C   UNL     1      -4.824   1.871   4.577  0.00  0.00    +0.081 A 
ATOM     10  S   UNL     1      -5.824   0.882   3.558  0.00  0.00    -0.055 S 
ENDROOT
BRANCH   1  16
ATOM     11  C   UNL     1     -12.999   1.308   6.333  0.00  0.00    +0.001 A 
ATOM     12  C   UNL     1     -13.411   0.134   5.706  0.00  0.00    +0.001 A 
ATOM     13  C   UNL     1     -12.503  -0.764   5.234  0.00  0.00    +0.008 A 
ATOM     14  C   UNL     1     -11.129  -0.505   5.380  0.00  0.00    -0.017 A 
ATOM     15  C   UNL     1     -10.166  -1.409   4.905  0.00  0.00    +0.018 A 
ATOM     16  C   UNL     1      -8.822  -1.119   5.068  0.00  0.00    +0.001 A 
ATOM     17  C   UNL     1      -8.419   0.067   5.707  0.00  0.00    +0.010 A 
ATOM     18  C   UNL     1      -9.336   0.955   6.167  0.00  0.00    +0.009 A 
ATOM     19  C   UNL     1     -10.710   0.690   6.018  0.00  0.00    -0.018 A 
ATOM     20  C   UNL     1     -11.678   1.592   6.492  0.00  0.00    +0.008 A 
ENDBRANCH   1  16
BRANCH   8  21
ATOM     21  C   UNL     1      -3.740   1.459   6.756  0.00  0.00    +0.282 C 
ATOM     22  O   UNL     1      -3.266   2.580   6.766  0.00  0.00    -0.267 OA
ATOM     23  N   UNL     1      -3.500   0.617   7.780  0.00  0.00    -0.202 N 
ATOM     24  H   UNL     1      -3.878  -0.277   7.772  0.00  0.00    +0.178 HD
BRANCH  23  25
ATOM     25  N   UNL     1      -2.701   1.030   8.854  0.00  0.00    -0.187 NA
ATOM     26  C   UNL     1      -2.466   0.217   9.838  0.00  0.00    +0.140 C 
BRANCH  26  27
ATOM     27  C   UNL     1      -1.625   0.652  10.969  0.00  0.00    +0.025 A 
ATOM     28  C   UNL     1      -1.180   1.974  11.045  0.00  0.00    +0.012 A 
ATOM     29  C   UNL     1      -0.399   2.375  12.109  0.00  0.00    +0.001 A 
ATOM     30  C   UNL     1      -0.045   1.468  13.092  0.00  0.00    +0.002 A 
ATOM     31  C   UNL     1      -0.478   0.156  13.021  0.00  0.00    +0.033 A 
ATOM     32  C   UNL     1      -1.265  -0.258  11.966  0.00  0.00    +0.135 A 
BRANCH  32  33
ATOM     33  N   UNL     1      -1.727  -1.662  11.891  0.00  0.00    +0.057 N 
ATOM     34  O   UNL     1      -2.045  -2.254  12.907  0.00  0.00    -0.126 OA
ATOM     35  O   UNL     1      -1.789  -2.226  10.813  0.00  0.00    -0.126 OA
ENDBRANCH  32  33
ENDBRANCH  26  27
ENDBRANCH  23  25
ENDBRANCH   8  21
BRANCH   3  36
ATOM     36  C   UNL     1      -6.556  -5.324   3.358  0.00  0.00    +0.436 C 
ATOM     37  F   UNL     1      -5.190  -5.525   3.134  0.00  0.00    -0.164 F 
ATOM     38  F   UNL     1      -7.004  -6.212   4.342  0.00  0.00    -0.164 F 
ATOM     39  F   UNL     1      -7.261  -5.550   2.171  0.00  0.00    -0.164 F 
ENDBRANCH   3  36
TORSDOF 6
