REMARK  Name = ZINC01551434
REMARK  9 active torsions:
REMARK  status: ('A' for Active; 'I' for Inactive)
REMARK    1  A    between atoms: C_4  and  C_7
REMARK    2  A    between atoms: C_7  and  C_26
REMARK    3  A    between atoms: C_8  and  C_9
REMARK    4  A    between atoms: C_9  and  N_56
REMARK    5  A    between atoms: C_10  and  C_11
REMARK    6  A    between atoms: C_10  and  N_56
REMARK    7  A    between atoms: C_11  and  N_12
REMARK    8  A    between atoms: N_12  and  S_13
REMARK    9  A    between atoms: S_13  and  C_16
REMARK                            x       y       z     vdW  Elec       q    Type
REMARK                         _______ _______ _______ _____ _____    ______ ____
ROOT
ATOM      1  N   UNL     1       3.644   1.049   0.061  0.00  0.00    +0.382 N 
ATOM      2  H   UNL     1       3.782   1.260  -0.935  0.00  0.00    -0.085 HD
ATOM      3  H   UNL     1       3.703   1.917   0.606  0.00  0.00    -0.085 HD
ENDROOT
BRANCH   1   4
ATOM      4  C   UNL     1       4.698   0.119   0.510  0.00  0.00    -0.054 C 
BRANCH   4   6
ATOM      5  C   UNL     1       6.895   0.878   1.332  0.00  0.00    -0.016 C 
ATOM      6  C   UNL     1       6.045   0.763   0.305  0.00  0.00    -0.037 C 
BRANCH   5  10
ATOM      7  C   UNL     1      10.695   2.693   0.752  0.00  0.00    +0.000 A 
ATOM      8  C   UNL     1       9.543   3.444   0.600  0.00  0.00    +0.001 A 
ATOM      9  C   UNL     1       8.307   2.860   0.787  0.00  0.00    +0.008 A 
ATOM     10  C   UNL     1       8.220   1.512   1.130  0.00  0.00    -0.018 A 
ATOM     11  C   UNL     1       9.385   0.762   1.287  0.00  0.00    +0.008 A 
ATOM     12  C   UNL     1      10.616   1.355   1.092  0.00  0.00    +0.001 A 
ENDBRANCH   5  10
BRANCH   5  13
ATOM     13  C   UNL     1       6.511   0.373   2.672  0.00  0.00    -0.018 A 
ATOM     14  C   UNL     1       6.357   1.260   3.737  0.00  0.00    +0.008 A 
ATOM     15  C   UNL     1       5.994   0.785   4.981  0.00  0.00    +0.001 A 
ATOM     16  C   UNL     1       5.794  -0.570   5.175  0.00  0.00    +0.000 A 
ATOM     17  C   UNL     1       5.951  -1.455   4.124  0.00  0.00    +0.001 A 
ATOM     18  C   UNL     1       6.308  -0.991   2.874  0.00  0.00    +0.008 A 
ENDBRANCH   5  13
ENDBRANCH   4   6
ENDBRANCH   1   4
BRANCH   1  19
ATOM     19  C   UNL     1       2.312   0.444   0.250  0.00  0.00    -0.065 C 
BRANCH  19  20
ATOM     20  C   UNL     1       1.242   1.429  -0.224  0.00  0.00    +0.087 C 
BRANCH  20  21
ATOM     21  N   UNL     1      -0.084   0.836  -0.039  0.00  0.00    -0.192 NA
ATOM     22  H   UNL     1      -0.171  -0.115   0.131  0.00  0.00    +0.148 HD
BRANCH  21  23
ATOM     23  S   UNL     1      -1.437   1.788  -0.125  0.00  0.00    +0.059 S 
ATOM     24  O   UNL     1      -2.552   0.926   0.055  0.00  0.00    -0.153 OA
ATOM     25  O   UNL     1      -1.198   2.910   0.714  0.00  0.00    -0.153 OA
BRANCH  23  26
ATOM     26  C   UNL     1      -1.536   2.404  -1.773  0.00  0.00    +0.113 A 
ATOM     27  C   UNL     1      -1.425   3.740  -2.015  0.00  0.00    +0.029 A 
ATOM     28  C   UNL     1      -1.496   4.243  -3.312  0.00  0.00    +0.003 A 
ATOM     29  C   UNL     1      -1.690   3.417  -4.377  0.00  0.00    +0.010 A 
ATOM     30  C   UNL     1      -1.814   2.035  -4.167  0.00  0.00    +0.002 A 
ATOM     31  C   UNL     1      -1.736   1.523  -2.845  0.00  0.00    +0.011 A 
ATOM     32  C   UNL     1      -1.864   0.134  -2.662  0.00  0.00    +0.030 A 
ATOM     33  C   UNL     1      -2.056  -0.655  -3.755  0.00  0.00    +0.111 A 
ATOM     34  N   UNL     1      -2.125  -0.150  -4.979  0.00  0.00    -0.263 NA
ATOM     35  C   UNL     1      -2.014   1.134  -5.226  0.00  0.00    +0.119 A 
ENDBRANCH  23  26
ENDBRANCH  21  23
ENDBRANCH  20  21
ENDBRANCH  19  20
ENDBRANCH   1  19
TORSDOF 9
