REMARK  Name = ZINC09331079
REMARK  10 active torsions:
REMARK  status: ('A' for Active; 'I' for Inactive)
REMARK    1  A    between atoms: C_1  and  O_2
REMARK    2  A    between atoms: O_2  and  C_3
REMARK    3  A    between atoms: C_5  and  C_13
REMARK    4  A    between atoms: C_7  and  O_11
REMARK    5  A    between atoms: C_8  and  O_9
REMARK    6  A    between atoms: O_9  and  C_10
REMARK    7  A    between atoms: O_11  and  C_12
REMARK    8  A    between atoms: C_14  and  O_15
REMARK    9  A    between atoms: C_25  and  C_27
REMARK   10  A    between atoms: C_30  and  N_33
REMARK                            x       y       z     vdW  Elec       q    Type
REMARK                         _______ _______ _______ _____ _____    ______ ____
ROOT
ATOM      1  C   UNL     1      -2.601   5.534   0.044  0.00  0.00    +0.052 A 
ATOM      2  C   UNL     1      -3.786   6.258   0.054  0.00  0.00    +0.135 A 
ATOM      3  C   UNL     1      -5.166   5.789   0.058  0.00  0.00    +0.031 A 
ATOM      4  C   UNL     1      -6.231   6.702   0.068  0.00  0.00    +0.012 A 
ATOM      5  C   UNL     1      -7.519   6.252   0.071  0.00  0.00    +0.001 A 
ATOM      6  C   UNL     1      -7.810   4.895   0.065  0.00  0.00    +0.001 A 
ATOM      7  C   UNL     1      -6.785   3.968   0.055  0.00  0.00    +0.016 A 
ATOM      8  C   UNL     1      -5.480   4.414   0.052  0.00  0.00    +0.025 A 
ATOM      9  S   UNL     1      -4.097   3.303   0.032  0.00  0.00    -0.073 S 
ATOM     10  C   UNL     1      -2.521   4.140   0.036  0.00  0.00    +0.084 A 
ATOM     11  N   UNL     1      -1.319   3.464   0.027  0.00  0.00    -0.275 N 
ATOM     12  C   UNL     1      -1.305   2.117   0.020  0.00  0.00    +0.249 C 
ATOM     13  O   UNL     1      -2.350   1.497   0.021  0.00  0.00    -0.270 OA
ATOM     14  H   UNL     1      -0.373   4.025   0.026  0.00  0.00    +0.156 HD
ENDROOT
BRANCH   1  17
ATOM     15  C   UNL     1       0.189   7.810  -1.047  0.00  0.00    +0.166 A 
ATOM     16  C   UNL     1      -0.999   7.099  -1.048  0.00  0.00    +0.058 A 
ATOM     17  C   UNL     1      -1.330   6.297   0.043  0.00  0.00    -0.005 A 
ATOM     18  C   UNL     1      -0.467   6.217   1.135  0.00  0.00    +0.058 A 
ATOM     19  C   UNL     1       0.722   6.925   1.130  0.00  0.00    +0.166 A 
ATOM     20  C   UNL     1       1.051   7.725   0.040  0.00  0.00    +0.204 A 
BRANCH  15  22
ATOM     21  C   UNL     1      -0.419   8.635  -3.193  0.00  0.00    +0.277 C 
ATOM     22  O   UNL     1       0.513   8.594  -2.111  0.00  0.00    -0.491 OA
ENDBRANCH  15  22
BRANCH  20  23
ATOM     23  O   UNL     1       2.219   8.425   0.039  0.00  0.00    -0.488 OA
ATOM     24  C   UNL     1       2.184   9.745   0.585  0.00  0.00    +0.277 C 
ENDBRANCH  20  23
BRANCH  19  25
ATOM     25  O   UNL     1       1.567   6.844   2.192  0.00  0.00    -0.491 OA
ATOM     26  C   UNL     1       1.166   6.004   3.277  0.00  0.00    +0.277 C 
ENDBRANCH  19  25
ENDBRANCH   1  17
BRANCH  12  27
ATOM     27  C   UNL     1      -0.017   1.392   0.010  0.00  0.00    +0.037 A 
ATOM     28  C   UNL     1       1.186   2.100   0.002  0.00  0.00    +0.015 A 
ATOM     29  C   UNL     1       2.385   1.417  -0.014  0.00  0.00    +0.033 A 
ATOM     30  C   UNL     1       2.396   0.034  -0.021  0.00  0.00    +0.126 A 
ATOM     31  C   UNL     1       1.208  -0.674  -0.013  0.00  0.00    +0.033 A 
ATOM     32  C   UNL     1       0.002  -0.004   0.002  0.00  0.00    +0.015 A 
BRANCH  30  33
ATOM     33  N   UNL     1       3.686  -0.692  -0.037  0.00  0.00    +0.056 N 
ATOM     34  O   UNL     1       3.700  -1.910  -0.044  0.00  0.00    -0.126 OA
ATOM     35  O   UNL     1       4.734  -0.071  -0.044  0.00  0.00    -0.126 OA
ENDBRANCH  30  33
ENDBRANCH  12  27
BRANCH   2  36
ATOM     36  O   UNL     1      -3.651   7.471   0.060  0.00  0.00    -0.505 OA
ATOM     37  H   UNL     1      -4.538   8.123   0.068  0.00  0.00    +0.292 HD
ENDBRANCH   2  36
TORSDOF 7
