REMARK  Name = ZINC04293578
REMARK  7 active torsions:
REMARK  status: ('A' for Active; 'I' for Inactive)
REMARK    1  A    between atoms: C_1  and  C_2
REMARK    2  A    between atoms: C_2  and  O_3
REMARK    3  A    between atoms: O_3  and  C_4
REMARK    4  A    between atoms: C_4  and  C_6
REMARK    5  A    between atoms: C_7  and  N_29
REMARK    6  A    between atoms: C_20  and  C_22
REMARK    7  A    between atoms: C_30  and  C_32
REMARK                            x       y       z     vdW  Elec       q    Type
REMARK                         _______ _______ _______ _____ _____    ______ ____
ROOT
ATOM      1  C   UNL     1      -1.145  -2.058  -0.107  0.00  0.00    +0.106 C 
ATOM      2  C   UNL     1      -1.175  -0.722   0.122  0.00  0.00    +0.204 C 
ATOM      3  O   UNL     1      -2.335  -0.054   0.244  0.00  0.00    -0.440 OA
ATOM      4  C   UNL     1      -3.469  -0.723   0.527  0.00  0.00    +0.152 A 
ATOM      5  C   UNL     1      -4.634  -0.006   1.070  0.00  0.00    +0.060 A 
ATOM      6  C   UNL     1      -4.590   1.370   1.303  0.00  0.00    +0.015 A 
ATOM      7  C   UNL     1      -5.699   2.009   1.812  0.00  0.00    +0.001 A 
ATOM      8  C   UNL     1      -6.853   1.293   2.091  0.00  0.00    +0.004 A 
ATOM      9  C   UNL     1      -6.910  -0.066   1.867  0.00  0.00    +0.047 A 
ATOM     10  C   UNL     1      -5.803  -0.731   1.354  0.00  0.00    +0.143 A 
ATOM     11  O   UNL     1      -5.840  -2.061   1.127  0.00  0.00    -0.422 OA
ATOM     12  C   UNL     1      -4.780  -2.722   0.634  0.00  0.00    +0.345 A 
ATOM     13  O   UNL     1      -4.865  -3.924   0.450  0.00  0.00    -0.245 OA
ATOM     14  C   UNL     1      -3.575  -2.067   0.325  0.00  0.00    +0.092 A 
ATOM     15  C   UNL     1      -2.416  -2.853  -0.226  0.00  0.00    +0.101 C 
ENDROOT
BRANCH  15  16
ATOM     16  C   UNL     1      -2.669  -3.163  -1.679  0.00  0.00    -0.035 A 
ATOM     17  C   UNL     1      -2.844  -2.133  -2.584  0.00  0.00    +0.005 A 
ATOM     18  C   UNL     1      -3.070  -2.417  -3.918  0.00  0.00    +0.015 A 
ATOM     19  C   UNL     1      -3.133  -3.731  -4.344  0.00  0.00    +0.018 A 
ATOM     20  C   UNL     1      -2.963  -4.761  -3.437  0.00  0.00    +0.015 A 
ATOM     21  C   UNL     1      -2.731  -4.476  -2.104  0.00  0.00    +0.005 A 
ATOM     22 BR   UNL     1      -3.450  -4.120  -6.168  0.00  0.00    -0.050 Br
ENDBRANCH  15  16
BRANCH   2  23
ATOM     23  N   UNL     1       0.010  -0.033   0.227  0.00  0.00    -0.249 N 
ATOM     24  C   UNL     1      -0.000   1.310   0.349  0.00  0.00    +0.286 C 
ATOM     25  O   UNL     1      -1.057   1.912   0.362  0.00  0.00    -0.266 OA
ATOM     26  H   UNL     1       0.853  -0.512   0.213  0.00  0.00    +0.158 HD
BRANCH  24  27
ATOM     27  C   UNL     1       1.263   2.044   0.461  0.00  0.00    +0.189 A 
ATOM     28  C   UNL     1       1.396   3.398   0.589  0.00  0.00    +0.054 A 
ATOM     29  C   UNL     1       2.772   3.663   0.662  0.00  0.00    +0.042 A 
ATOM     30  C   UNL     1       3.411   2.475   0.576  0.00  0.00    +0.196 A 
ATOM     31  O   UNL     1       2.498   1.502   0.461  0.00  0.00    -0.458 OA
ENDBRANCH  24  27
ENDBRANCH   2  23
BRANCH   1  32
ATOM     32  C   UNL     1       0.093  -2.711  -0.231  0.00  0.00    +0.341 C 
ATOM     33  O   UNL     1       0.515  -3.395   0.683  0.00  0.00    -0.245 OA
BRANCH  32  34
ATOM     34  O   UNL     1       0.814  -2.579  -1.365  0.00  0.00    -0.462 OA
BRANCH  34  36
ATOM     35  C   UNL     1       2.732  -3.004  -2.773  0.00  0.00    +0.048 C 
ATOM     36  C   UNL     1       2.063  -3.271  -1.423  0.00  0.00    +0.229 C 
ENDBRANCH  34  36
ENDBRANCH  32  34
ENDBRANCH   1  32
TORSDOF 6
