REMARK  Name = ZINC36597658
REMARK  14 active torsions:
REMARK  status: ('A' for Active; 'I' for Inactive)
REMARK    1  A    between atoms: C_1  and  C_2
REMARK    2  A    between atoms: C_2  and  C_3
REMARK    3  A    between atoms: C_3  and  C_4
REMARK    4  A    between atoms: C_4  and  N_5
REMARK    5  A    between atoms: C_6  and  C_8
REMARK    6  A    between atoms: C_8  and  C_10
REMARK    7  A    between atoms: C_8  and  N_17
REMARK    8  A    between atoms: C_14  and  O_16
REMARK    9  A    between atoms: N_17  and  C_18
REMARK   10  A    between atoms: C_18  and  C_19
REMARK   11  A    between atoms: C_22  and  C_24
REMARK   12  A    between atoms: C_25  and  C_27
REMARK   13  A    between atoms: C_31  and  O_34
REMARK   14  A    between atoms: C_32  and  O_33
REMARK                            x       y       z     vdW  Elec       q    Type
REMARK                         _______ _______ _______ _____ _____    ______ ____
ROOT
ATOM      1  N   UNL     1       1.534  -6.117   5.145  0.00  0.00    -0.275 N 
ATOM      2  C   UNL     1       2.317  -5.020   5.122  0.00  0.00    +0.252 C 
ATOM      3  O   UNL     1       1.911  -3.974   5.589  0.00  0.00    -0.270 OA
ENDROOT
BRANCH   2   4
ATOM      4  C   UNL     1       3.666  -5.090   4.530  0.00  0.00    +0.082 A 
ATOM      5  C   UNL     1       3.903  -5.899   3.415  0.00  0.00    +0.017 A 
ATOM      6  C   UNL     1       5.165  -5.961   2.865  0.00  0.00    +0.005 A 
ATOM      7  C   UNL     1       6.203  -5.224   3.410  0.00  0.00    +0.049 A 
ATOM      8  C   UNL     1       5.984  -4.418   4.514  0.00  0.00    +0.159 A 
ATOM      9  C   UNL     1       4.714  -4.341   5.077  0.00  0.00    +0.171 A 
BRANCH   9  10
ATOM     10  O   UNL     1       4.494  -3.547   6.156  0.00  0.00    -0.503 OA
ATOM     11  H   UNL     1       4.631  -3.989   7.005  0.00  0.00    +0.292 HD
ENDBRANCH   9  10
BRANCH   8  12
ATOM     12  O   UNL     1       7.009  -3.698   5.043  0.00  0.00    -0.503 OA
ATOM     13  H   UNL     1       7.106  -2.814   4.664  0.00  0.00    +0.292 HD
ENDBRANCH   8  12
ENDBRANCH   2   4
BRANCH   1  14
ATOM     14  C   UNL     1       2.118  -7.439   4.907  0.00  0.00    +0.193 C 
BRANCH  14  15
ATOM     15  C   UNL     1       1.380  -8.118   3.781  0.00  0.00    -0.015 A 
ATOM     16  C   UNL     1       0.627  -7.368   2.897  0.00  0.00    +0.006 A 
ATOM     17  C   UNL     1      -0.051  -7.988   1.864  0.00  0.00    +0.004 A 
ATOM     18  C   UNL     1       0.023  -9.359   1.712  0.00  0.00    +0.045 A 
ATOM     19  C   UNL     1       0.778 -10.114   2.598  0.00  0.00    +0.117 A 
ATOM     20  C   UNL     1       1.462  -9.489   3.631  0.00  0.00    +0.051 A 
BRANCH  19  21
ATOM     21  O   UNL     1       0.853 -11.463   2.451  0.00  0.00    -0.507 OA
ATOM     22  H   UNL     1       1.581 -11.758   1.887  0.00  0.00    +0.292 HD
ENDBRANCH  19  21
ENDBRANCH  14  15
BRANCH  14  24
ATOM     23  N   UNL     1       2.546  -9.505   6.198  0.00  0.00    -0.313 N 
ATOM     24  C   UNL     1       2.003  -8.272   6.157  0.00  0.00    +0.238 C 
ATOM     25  O   UNL     1       1.422  -7.833   7.127  0.00  0.00    -0.273 OA
ATOM     26  H   UNL     1       3.011  -9.856   5.422  0.00  0.00    +0.149 HD
BRANCH  23  27
ATOM     27  C   UNL     1       2.435 -10.315   7.413  0.00  0.00    +0.104 C 
BRANCH  27  28
ATOM     28  C   UNL     1       3.131 -11.660   7.196  0.00  0.00    +0.018 C 
BRANCH  28  30
ATOM     29  C   UNL     1       3.711 -13.851   8.248  0.00  0.00    +0.004 C 
ATOM     30  C   UNL     1       3.015 -12.506   8.465  0.00  0.00    -0.002 C 
ENDBRANCH  28  30
ENDBRANCH  27  28
ENDBRANCH  23  27
ENDBRANCH  14  24
ENDBRANCH   1  14
BRANCH   1  31
ATOM     31  C   UNL     1       0.099  -5.987   5.409  0.00  0.00    +0.183 C 
BRANCH  31  32
ATOM     32  C   UNL     1      -0.111  -5.159   6.651  0.00  0.00    +0.122 A 
ATOM     33  C   UNL     1      -0.303  -3.828   6.686  0.00  0.00    +0.046 A 
ATOM     34  C   UNL     1      -0.454  -3.472   8.046  0.00  0.00    +0.045 A 
ATOM     35  C   UNL     1      -0.345  -4.606   8.761  0.00  0.00    +0.102 A 
ATOM     36  O   UNL     1      -0.143  -5.626   7.910  0.00  0.00    -0.463 OA
ATOM     37  C   UNL     1      -0.439  -4.715  10.261  0.00  0.00    +0.086 C 
ENDBRANCH  31  32
ENDBRANCH   1  31
TORSDOF 12
