REMARK  Name = ZINC39519562
REMARK  10 active torsions:
REMARK  status: ('A' for Active; 'I' for Inactive)
REMARK    1  A    between atoms: C_1  and  C_2
REMARK    2  A    between atoms: C_2  and  C_3
REMARK    3  A    between atoms: C_6  and  C_9
REMARK    4  A    between atoms: C_9  and  C_11
REMARK    5  A    between atoms: C_9  and  N_16
REMARK    6  A    between atoms: N_16  and  C_17
REMARK    7  A    between atoms: C_17  and  C_18
REMARK    8  A    between atoms: N_23  and  C_24
REMARK    9  A    between atoms: C_24  and  C_25
REMARK   10  A    between atoms: C_25  and  C_26
REMARK                            x       y       z     vdW  Elec       q    Type
REMARK                         _______ _______ _______ _____ _____    ______ ____
ROOT
ATOM      1  N   UNL     1       2.256  -1.261   5.880  0.00  0.00    +0.392 N 
ATOM      2  H   UNL     1       2.305  -0.260   5.765  0.00  0.00    -0.084 HD
ATOM      3  H   UNL     1       1.295  -1.538   6.011  0.00  0.00    -0.084 HD
ENDROOT
BRANCH   1   4
ATOM      4  C   UNL     1       2.797  -1.919   4.683  0.00  0.00    -0.003 C 
BRANCH   4   8
ATOM      5  C   UNL     1       0.731  -0.503   1.223  0.00  0.00    -0.048 A 
ATOM      6  C   UNL     1       2.097  -0.710   1.176  0.00  0.00    +0.004 A 
ATOM      7  C   UNL     1       2.766  -1.167   2.296  0.00  0.00    +0.002 A 
ATOM      8  C   UNL     1       2.068  -1.419   3.463  0.00  0.00    -0.057 A 
ATOM      9  C   UNL     1       0.702  -1.212   3.510  0.00  0.00    +0.002 A 
ATOM     10  C   UNL     1       0.034  -0.750   2.391  0.00  0.00    +0.004 A 
BRANCH   5  12
ATOM     11  C   UNL     1      -0.019   1.526   0.010  0.00  0.00    +0.009 C 
ATOM     12  C   UNL     1       0.002  -0.004   0.002  0.00  0.00    +0.032 C 
ENDBRANCH   5  12
ENDBRANCH   4   8
BRANCH   4  13
ATOM     13  C   UNL     1       2.612  -3.410   4.803  0.00  0.00    -0.020 A 
ATOM     14  C   UNL     1       3.464  -4.406   4.457  0.00  0.00    +0.010 A 
ATOM     15  C   UNL     1       3.079  -5.718   4.660  0.00  0.00    +0.008 A 
ATOM     16  C   UNL     1       1.862  -5.970   5.199  0.00  0.00    +0.045 A 
ATOM     17  S   UNL     1       1.218  -4.322   5.444  0.00  0.00    -0.103 S 
ENDBRANCH   4  13
ENDBRANCH   1   4
BRANCH   1  18
ATOM     18  C   UNL     1       3.044  -1.657   7.055  0.00  0.00    +0.017 C 
BRANCH  18  19
ATOM     19  C   UNL     1       2.489  -0.983   8.283  0.00  0.00    +0.203 C 
ATOM     20  O   UNL     1       1.532  -0.245   8.189  0.00  0.00    -0.277 OA
ATOM     21  N   UNL     1       3.057  -1.200   9.486  0.00  0.00    -0.242 N 
ATOM     22  C   UNL     1       2.561  -0.596  10.584  0.00  0.00    +0.306 C 
ATOM     23  O   UNL     1       1.601   0.144  10.490  0.00  0.00    -0.252 OA
ATOM     24  N   UNL     1       3.129  -0.813  11.787  0.00  0.00    -0.299 N 
ATOM     25  H   UNL     1       3.823  -1.790   9.561  0.00  0.00    +0.159 HD
ATOM     26  H   UNL     1       3.895  -1.403  11.862  0.00  0.00    +0.150 HD
BRANCH  24  27
ATOM     27  C   UNL     1       2.590  -0.157  12.981  0.00  0.00    +0.111 C 
BRANCH  27  28
ATOM     28  C   UNL     1       3.410  -0.570  14.204  0.00  0.00    +0.061 C 
BRANCH  28  29
ATOM     29  C   UNL     1       2.855   0.105  15.432  0.00  0.00    -0.009 A 
ATOM     30  C   UNL     1       1.900  -0.332  16.288  0.00  0.00    +0.011 A 
ATOM     31  C   UNL     1       1.546   0.464  17.361  0.00  0.00    +0.008 A 
ATOM     32  C   UNL     1       2.164   1.659  17.526  0.00  0.00    +0.045 A 
ATOM     33  S   UNL     1       3.292   1.684  16.141  0.00  0.00    -0.102 S 
ENDBRANCH  28  29
ENDBRANCH  27  28
ENDBRANCH  24  27
ENDBRANCH  18  19
ENDBRANCH   1  18
TORSDOF 9
