REMARK  Name = ZINC03205853
REMARK  7 active torsions:
REMARK  status: ('A' for Active; 'I' for Inactive)
REMARK    1  A    between atoms: C_4  and  C_7
REMARK    2  A    between atoms: P_9  and  N_20
REMARK    3  A    between atoms: C_12  and  C_14
REMARK    4  A    between atoms: N_20  and  N_21
REMARK    5  A    between atoms: N_21  and  C_22
REMARK    6  A    between atoms: C_22  and  N_24
REMARK    7  A    between atoms: N_24  and  C_25
REMARK                            x       y       z     vdW  Elec       q    Type
REMARK                         _______ _______ _______ _____ _____    ______ ____
ROOT
ATOM      1  C   UNL     1      -3.221  -2.211  -2.793  0.00  0.00    +0.140 C 
ATOM      2  C   UNL     1      -2.582  -2.615  -1.690  0.00  0.00    +0.107 C 
ATOM      3  P   UNL     1      -1.009  -1.762  -1.319  0.00  0.00    +0.214 P 
ATOM      4  O   UNL     1       0.049  -2.750  -1.010  0.00  0.00    -0.294 OA
ATOM      5  C   UNL     1      -0.587  -0.836  -2.837  0.00  0.00    +0.107 C 
ATOM      6  C   UNL     1      -1.567  -0.732  -3.747  0.00  0.00    +0.140 C 
ATOM      7  O   UNL     1      -2.793  -1.239  -3.602  0.00  0.00    -0.454 OA
ENDROOT
BRANCH   1  11
ATOM      8  C   UNL     1      -6.867  -4.152  -3.791  0.00  0.00    +0.000 A 
ATOM      9  C   UNL     1      -6.383  -3.140  -4.599  0.00  0.00    +0.001 A 
ATOM     10  C   UNL     1      -5.199  -2.505  -4.281  0.00  0.00    +0.011 A 
ATOM     11  C   UNL     1      -4.492  -2.887  -3.141  0.00  0.00    +0.017 A 
ATOM     12  C   UNL     1      -4.982  -3.913  -2.333  0.00  0.00    +0.011 A 
ATOM     13  C   UNL     1      -6.170  -4.535  -2.659  0.00  0.00    +0.001 A 
ENDBRANCH   1  11
BRANCH   6  14
ATOM     14  C   UNL     1      -1.266  -0.004  -5.001  0.00  0.00    +0.017 A 
ATOM     15  C   UNL     1      -0.003   0.551  -5.202  0.00  0.00    +0.011 A 
ATOM     16  C   UNL     1       0.273   1.223  -6.376  0.00  0.00    +0.001 A 
ATOM     17  C   UNL     1      -0.704   1.357  -7.346  0.00  0.00    +0.000 A 
ATOM     18  C   UNL     1      -1.961   0.814  -7.149  0.00  0.00    +0.001 A 
ATOM     19  C   UNL     1      -2.247   0.134  -5.983  0.00  0.00    +0.011 A 
ENDBRANCH   6  14
BRANCH   3  20
ATOM     20  N   UNL     1      -1.210  -0.703  -0.027  0.00  0.00    -0.182 NA
ATOM     21  H   UNL     1      -1.538  -1.191   0.793  0.00  0.00    +0.153 HD
BRANCH  20  22
ATOM     22  N   UNL     1      -0.054  -0.025   0.235  0.00  0.00    -0.256 N 
ATOM     23  H   UNL     1       0.767  -0.513   0.405  0.00  0.00    +0.168 HD
BRANCH  22  24
ATOM     24  C   UNL     1      -0.053   1.323   0.259  0.00  0.00    +0.149 C 
ATOM     25  S   UNL     1       1.396   2.172   0.588  0.00  0.00    -0.017 S 
BRANCH  24  26
ATOM     26  N   UNL     1      -1.192   2.002   0.019  0.00  0.00    -0.295 N 
ATOM     27  H   UNL     1      -1.998   1.523  -0.233  0.00  0.00    +0.154 HD
BRANCH  26  28
ATOM     28  C   UNL     1      -1.213   3.397   0.132  0.00  0.00    +0.051 A 
ATOM     29  C   UNL     1      -0.214   4.158  -0.460  0.00  0.00    +0.026 A 
ATOM     30  C   UNL     1      -0.236   5.534  -0.347  0.00  0.00    +0.022 A 
ATOM     31  C   UNL     1      -1.254   6.155   0.356  0.00  0.00    +0.042 A 
ATOM     32  C   UNL     1      -2.251   5.401   0.947  0.00  0.00    +0.041 A 
ATOM     33  C   UNL     1      -2.237   4.023   0.832  0.00  0.00    +0.063 A 
ATOM     34 CL   UNL     1      -3.493   3.076   1.568  0.00  0.00    -0.082 Cl
ATOM     35 CL   UNL     1      -1.278   7.886   0.497  0.00  0.00    -0.083 Cl
ENDBRANCH  26  28
ENDBRANCH  24  26
ENDBRANCH  22  24
ENDBRANCH  20  22
ENDBRANCH   3  20
TORSDOF 7
