REMARK  Name = ZINC09041509
REMARK  13 active torsions:
REMARK  status: ('A' for Active; 'I' for Inactive)
REMARK    1  A    between atoms: C_1  and  C_2
REMARK    2  A    between atoms: C_2  and  C_3
REMARK    3  A    between atoms: C_2  and  O_4
REMARK    4  A    between atoms: O_4  and  C_5
REMARK    5  A    between atoms: C_8  and  C_11
REMARK    6  A    between atoms: C_14  and  C_15
REMARK    7  A    between atoms: C_14  and  O_25
REMARK    8  A    between atoms: C_18  and  O_21
REMARK    9  A    between atoms: O_21  and  C_22
REMARK   10  A    between atoms: C_22  and  C_23
REMARK   11  A    between atoms: N_30  and  C_31
REMARK   12  A    between atoms: C_31  and  C_32
REMARK   13  A    between atoms: C_32  and  N_71
REMARK                            x       y       z     vdW  Elec       q    Type
REMARK                         _______ _______ _______ _____ _____    ______ ____
ROOT
ATOM      1  C   UNL     1       1.371   3.077  -0.013  0.00  0.00    +0.144 C 
ATOM      2  C   UNL     1      -0.088   3.103   0.381  0.00  0.00    +0.071 C 
ATOM      3  C   UNL     1      -0.784   4.169   0.917  0.00  0.00    +0.133 C 
ATOM      4  C   UNL     1      -0.594   1.828   0.088  0.00  0.00    +0.249 C 
ATOM      5  O   UNL     1      -1.741   1.457   0.263  0.00  0.00    -0.282 OA
ATOM      6  C   UNL     1       0.513   1.006  -0.471  0.00  0.00    +0.288 C 
ATOM      7  O   UNL     1       0.411  -0.150  -0.826  0.00  0.00    -0.266 OA
ATOM      8  N   UNL     1       1.642   1.732  -0.529  0.00  0.00    -0.285 N 
ENDROOT
BRANCH   1  12
ATOM      9  C   UNL     1       2.118   5.989  -3.050  0.00  0.00    +0.121 A 
ATOM     10  C   UNL     1       2.489   6.243  -1.738  0.00  0.00    +0.046 A 
ATOM     11  C   UNL     1       2.247   5.300  -0.758  0.00  0.00    +0.009 A 
ATOM     12  C   UNL     1       1.634   4.104  -1.084  0.00  0.00    -0.022 A 
ATOM     13  C   UNL     1       1.268   3.846  -2.392  0.00  0.00    +0.009 A 
ATOM     14  C   UNL     1       1.503   4.788  -3.375  0.00  0.00    +0.046 A 
BRANCH   9  15
ATOM     15  O   UNL     1       2.355   6.915  -4.016  0.00  0.00    -0.489 OA
BRANCH  15  17
ATOM     16  C   UNL     1       4.399   8.081  -3.467  0.00  0.00    +0.051 C 
ATOM     17  C   UNL     1       2.877   8.175  -3.592  0.00  0.00    +0.167 C 
ATOM     18  C   UNL     1       2.516   9.249  -4.620  0.00  0.00    +0.051 C 
ENDBRANCH  15  17
ENDBRANCH   9  15
ENDBRANCH   1  12
BRANCH   3  19
ATOM     19  C   UNL     1      -2.169   3.987   1.376  0.00  0.00    +0.017 A 
ATOM     20  C   UNL     1      -3.174   4.859   0.940  0.00  0.00    +0.015 A 
ATOM     21  C   UNL     1      -4.470   4.681   1.369  0.00  0.00    +0.046 A 
ATOM     22  C   UNL     1      -4.780   3.644   2.242  0.00  0.00    +0.121 A 
ATOM     23  C   UNL     1      -3.785   2.778   2.682  0.00  0.00    +0.046 A 
ATOM     24  C   UNL     1      -2.487   2.944   2.255  0.00  0.00    +0.015 A 
BRANCH  22  25
ATOM     25  O   UNL     1      -6.058   3.476   2.666  0.00  0.00    -0.488 OA
BRANCH  25  26
ATOM     26  C   UNL     1      -7.031   4.401   2.176  0.00  0.00    +0.256 C 
BRANCH  26  27
ATOM     27  C   UNL     1      -8.382   4.061   2.751  0.00  0.00    +0.006 C 
ATOM     28  C   UNL     1      -9.150   5.011   3.225  0.00  0.00    +0.007 C 
ENDBRANCH  26  27
ENDBRANCH  25  26
ENDBRANCH  22  25
ENDBRANCH   3  19
BRANCH   3  29
ATOM     29  O   UNL     1      -0.192   5.378   1.020  0.00  0.00    -0.506 OA
ATOM     30  H   UNL     1      -0.833   6.029   1.427  0.00  0.00    +0.292 HD
ENDBRANCH   3  29
BRANCH   8  31
ATOM     31  C   UNL     1       2.935   1.257  -1.028  0.00  0.00    +0.090 C 
BRANCH  31  32
ATOM     32  C   UNL     1       3.033   1.530  -2.531  0.00  0.00    -0.059 C 
BRANCH  32  38
ATOM     33  C   UNL     1       5.434   1.842  -2.466  0.00  0.00    -0.050 C 
ATOM     34  C   UNL     1       6.766   1.275  -2.966  0.00  0.00    +0.141 C 
ATOM     35  O   UNL     1       6.774   1.280  -4.396  0.00  0.00    -0.383 OA
ATOM     36  C   UNL     1       5.711   0.522  -4.980  0.00  0.00    +0.141 C 
ATOM     37  C   UNL     1       4.369   1.081  -4.501  0.00  0.00    -0.050 C 
ATOM     38  N   UNL     1       4.334   1.028  -3.024  0.00  0.00    +0.384 N 
ATOM     39  H   UNL     1       4.452   0.054  -2.721  0.00  0.00    -0.082 HD
ENDBRANCH  32  38
ENDBRANCH  31  32
ENDBRANCH   8  31
TORSDOF 11
