REMARK  Name = ZINC38050847
REMARK  6 active torsions:
REMARK  status: ('A' for Active; 'I' for Inactive)
REMARK    1  A    between atoms: C_1  and  S_2
REMARK    2  A    between atoms: S_2  and  C_5
REMARK    3  A    between atoms: C_8  and  N_14
REMARK    4  A    between atoms: C_9  and  N_11
REMARK    5  A    between atoms: N_14  and  C_15
REMARK    6  A    between atoms: C_21  and  N_23
REMARK                            x       y       z     vdW  Elec       q    Type
REMARK                         _______ _______ _______ _____ _____    ______ ____
ROOT
ATOM      1  C   UNL     1       0.775  -0.682  -1.480  0.00  0.00    +0.090 A 
ATOM      2  C   UNL     1       0.136  -0.593  -2.704  0.00  0.00    +0.029 A 
ATOM      3  C   UNL     1       0.865  -0.686  -3.873  0.00  0.00    +0.027 A 
ATOM      4  C   UNL     1       2.241  -0.871  -3.819  0.00  0.00    +0.058 A 
ATOM      5  C   UNL     1       2.879  -0.960  -2.589  0.00  0.00    +0.149 A 
ATOM      6  C   UNL     1       2.145  -0.861  -1.423  0.00  0.00    +0.061 A 
ENDROOT
BRANCH   1   8
ATOM      7  C   UNL     1      -0.179   1.208   0.405  0.00  0.00    +0.200 C 
ATOM      8  S   UNL     1      -0.159  -0.562   0.010  0.00  0.00    -0.006 S 
ATOM      9  O   UNL     1       0.606  -1.270   0.975  0.00  0.00    -0.170 OA
ATOM     10  O   UNL     1      -1.464  -1.000  -0.344  0.00  0.00    -0.170 OA
ENDBRANCH   1   8
BRANCH   5  11
ATOM     11  N   UNL     1       4.344  -1.157  -2.527  0.00  0.00    +0.058 N 
ATOM     12  O   UNL     1       4.893  -1.874  -3.332  0.00  0.00    -0.126 OA
ATOM     13  O   UNL     1       4.993  -0.602  -1.671  0.00  0.00    -0.126 OA
ENDBRANCH   5  11
BRANCH   4  14
ATOM     14  N   UNL     1       2.981  -0.966  -5.000  0.00  0.00    -0.341 N 
ATOM     15  H   UNL     1       3.949  -1.009  -4.963  0.00  0.00    +0.146 HD
BRANCH  14  16
ATOM     16  C   UNL     1       2.294  -1.002  -6.294  0.00  0.00    +0.056 C 
ATOM     17  C   UNL     1       2.011   0.428  -6.760  0.00  0.00    +0.020 C 
ATOM     18  C   UNL     1       1.294   0.391  -8.111  0.00  0.00    +0.002 C 
ATOM     19  C   UNL     1       2.180  -0.315  -9.139  0.00  0.00    -0.001 C 
ATOM     20  C   UNL     1       2.464  -1.744  -8.673  0.00  0.00    -0.014 C 
ATOM     21  C   UNL     1       3.181  -1.707  -7.322  0.00  0.00    -0.055 C 
BRANCH  21  22
ATOM     22  N   UNL     1       3.453  -3.079  -6.874  0.00  0.00    +0.381 N 
ATOM     23  H   UNL     1       2.583  -3.581  -6.780  0.00  0.00    -0.090 HD
ATOM     24  H   UNL     1       4.037  -3.545  -7.553  0.00  0.00    -0.090 HD
ATOM     25  H   UNL     1       3.926  -3.055  -5.983  0.00  0.00    -0.090 HD
ENDBRANCH  21  22
ENDBRANCH  14  16
ENDBRANCH   4  14
TORSDOF 5
