REMARK  Name = ZINC16480532
REMARK  10 active torsions:
REMARK  status: ('A' for Active; 'I' for Inactive)
REMARK    1  A    between atoms: C_4  and  C_7
REMARK    2  A    between atoms: C_7  and  O_8
REMARK    3  A    between atoms: O_8  and  C_9
REMARK    4  A    between atoms: C_14  and  C_15
REMARK    5  A    between atoms: C_15  and  N_50
REMARK    6  A    between atoms: C_16  and  C_17
REMARK    7  A    between atoms: C_16  and  N_50
REMARK    8  A    between atoms: C_17  and  N_18
REMARK    9  A    between atoms: N_18  and  C_19
REMARK   10  A    between atoms: C_22  and  N_26
REMARK                            x       y       z     vdW  Elec       q    Type
REMARK                         _______ _______ _______ _____ _____    ______ ____
ROOT
ATOM      1  N   UNL     1      -3.080   3.897   1.425  0.00  0.00    +0.383 N 
ATOM      2  H   UNL     1      -2.406   4.370   2.039  0.00  0.00    -0.085 HD
ATOM      3  H   UNL     1      -3.218   2.933   1.747  0.00  0.00    -0.085 HD
ENDROOT
BRANCH   1   4
ATOM      4  C   UNL     1      -2.553   3.879   0.047  0.00  0.00    -0.043 C 
BRANCH   4  10
ATOM      5  C   UNL     1      -1.223   1.754   0.017  0.00  0.00    +0.122 A 
ATOM      6  C   UNL     1      -0.013   1.076   0.008  0.00  0.00    +0.047 A 
ATOM      7  C   UNL     1       1.174   1.783   0.000  0.00  0.00    +0.019 A 
ATOM      8  C   UNL     1       1.156   3.167   0.008  0.00  0.00    +0.018 A 
ATOM      9  C   UNL     1      -0.050   3.844   0.024  0.00  0.00    +0.020 A 
ATOM     10  C   UNL     1      -1.239   3.140   0.031  0.00  0.00    -0.022 A 
ATOM     11 BR   UNL     1       2.781   4.132  -0.002  0.00  0.00    -0.050 Br
BRANCH   5  12
ATOM     12  O   UNL     1      -2.392   1.060   0.019  0.00  0.00    -0.487 OA
BRANCH  12  13
ATOM     13  C   UNL     1      -2.299  -0.366   0.011  0.00  0.00    +0.264 C 
BRANCH  13  17
ATOM     14  C   UNL     1      -6.226  -2.048   0.020  0.00  0.00    +0.000 A 
ATOM     15  C   UNL     1      -5.596  -1.770  -1.179  0.00  0.00    +0.000 A 
ATOM     16  C   UNL     1      -4.326  -1.225  -1.182  0.00  0.00    +0.007 A 
ATOM     17  C   UNL     1      -3.685  -0.960   0.014  0.00  0.00    -0.010 A 
ATOM     18  C   UNL     1      -4.312  -1.244   1.213  0.00  0.00    +0.007 A 
ATOM     19  C   UNL     1      -5.585  -1.783   1.216  0.00  0.00    +0.000 A 
ENDBRANCH  13  17
ENDBRANCH  12  13
ENDBRANCH   5  12
ENDBRANCH   4  10
ENDBRANCH   1   4
BRANCH   1  20
ATOM     20  C   UNL     1      -4.367   4.616   1.471  0.00  0.00    -0.063 C 
BRANCH  20  21
ATOM     21  C   UNL     1      -4.888   4.618   2.910  0.00  0.00    +0.082 C 
BRANCH  21  22
ATOM     22  N   UNL     1      -6.168   5.330   2.964  0.00  0.00    -0.345 N 
ATOM     23  H   UNL     1      -6.547   5.709   2.156  0.00  0.00    +0.146 HD
BRANCH  22  24
ATOM     24  C   UNL     1      -6.842   5.464   4.181  0.00  0.00    +0.046 A 
ATOM     25  C   UNL     1      -6.300   4.923   5.340  0.00  0.00    +0.026 A 
ATOM     26  C   UNL     1      -6.968   5.056   6.541  0.00  0.00    +0.034 A 
ATOM     27  C   UNL     1      -8.176   5.729   6.591  0.00  0.00    +0.128 A 
ATOM     28  C   UNL     1      -8.719   6.269   5.440  0.00  0.00    +0.054 A 
ATOM     29  C   UNL     1      -8.053   6.144   4.236  0.00  0.00    +0.064 A 
ATOM     30 CL   UNL     1      -8.731   6.829   2.792  0.00  0.00    -0.082 Cl
BRANCH  27  31
ATOM     31  N   UNL     1      -8.889   5.870   7.881  0.00  0.00    +0.056 N 
ATOM     32  O   UNL     1      -8.412   5.395   8.896  0.00  0.00    -0.126 OA
ATOM     33  O   UNL     1      -9.953   6.462   7.927  0.00  0.00    -0.126 OA
ENDBRANCH  27  31
ENDBRANCH  22  24
ENDBRANCH  21  22
ENDBRANCH  20  21
ENDBRANCH   1  20
TORSDOF 10
