REMARK  Name = ZINC03280301
REMARK  5 active torsions:
REMARK  status: ('A' for Active; 'I' for Inactive)
REMARK    1  A    between atoms: C_3  and  C_20
REMARK    2  A    between atoms: C_5  and  C_11
REMARK    3  A    between atoms: C_16  and  N_17
REMARK    4  A    between atoms: N_22  and  C_23
REMARK    5  A    between atoms: C_28  and  C_29
REMARK                            x       y       z     vdW  Elec       q    Type
REMARK                         _______ _______ _______ _____ _____    ______ ____
ROOT
ATOM      1  C   UNL     1      -0.042   1.322  -0.000  0.00  0.00    +0.029 C 
ATOM      2  C   UNL     1      -0.017   0.004  -0.008  0.00  0.00    +0.019 C 
ATOM      3  C   UNL     1      -1.296  -0.811   0.002  0.00  0.00    +0.144 C 
ATOM      4  C   UNL     1      -1.176  -1.873  -1.098  0.00  0.00    +0.124 C 
ATOM      5  N   UNL     1       0.105  -2.567  -0.968  0.00  0.00    -0.291 N 
ATOM      6  C   UNL     1       1.203  -1.967  -0.490  0.00  0.00    +0.304 C 
ATOM      7  O   UNL     1       2.250  -2.585  -0.477  0.00  0.00    -0.253 OA
ATOM      8  N   UNL     1       1.190  -0.704  -0.031  0.00  0.00    -0.273 N 
ATOM      9  H   UNL     1       0.161  -3.498  -1.238  0.00  0.00    +0.151 HD
ATOM     10  H   UNL     1       2.009  -0.290   0.284  0.00  0.00    +0.156 HD
ENDROOT
BRANCH   4  11
ATOM     11  C   UNL     1      -1.252  -1.209  -2.449  0.00  0.00    +0.004 A 
ATOM     12  C   UNL     1      -0.095  -0.961  -3.164  0.00  0.00    +0.008 A 
ATOM     13  C   UNL     1      -0.165  -0.352  -4.402  0.00  0.00    +0.000 A 
ATOM     14  C   UNL     1      -1.393   0.010  -4.926  0.00  0.00    +0.002 A 
ATOM     15  C   UNL     1      -2.549  -0.238  -4.212  0.00  0.00    +0.033 A 
ATOM     16  C   UNL     1      -2.479  -0.852  -2.975  0.00  0.00    +0.131 A 
BRANCH  16  17
ATOM     17  N   UNL     1      -3.719  -1.122  -2.212  0.00  0.00    +0.057 N 
ATOM     18  O   UNL     1      -4.792  -0.810  -2.672  0.00  0.00    -0.126 OA
ATOM     19  O   UNL     1      -3.657  -1.655  -1.129  0.00  0.00    -0.126 OA
ENDBRANCH  16  17
ENDBRANCH   4  11
BRANCH   3  20
ATOM     20  C   UNL     1      -1.467  -1.478   1.342  0.00  0.00    +0.228 C 
ATOM     21  O   UNL     1      -1.526  -2.687   1.415  0.00  0.00    -0.275 OA
ATOM     22  N   UNL     1      -1.555  -0.731   2.461  0.00  0.00    -0.284 N 
ATOM     23  H   UNL     1      -1.428   0.230   2.413  0.00  0.00    +0.155 HD
BRANCH  22  24
ATOM     24  C   UNL     1      -1.829  -1.340   3.690  0.00  0.00    +0.045 A 
ATOM     25  C   UNL     1      -2.502  -2.555   3.729  0.00  0.00    +0.024 A 
ATOM     26  C   UNL     1      -2.771  -3.154   4.944  0.00  0.00    +0.002 A 
ATOM     27  C   UNL     1      -2.372  -2.546   6.120  0.00  0.00    +0.001 A 
ATOM     28  C   UNL     1      -1.703  -1.336   6.084  0.00  0.00    +0.014 A 
ATOM     29  C   UNL     1      -1.425  -0.735   4.872  0.00  0.00    +0.076 A 
BRANCH  29  30
ATOM     30  C   UNL     1      -0.689   0.579   4.833  0.00  0.00    +0.419 C 
ATOM     31  F   UNL     1      -0.390   0.985   6.139  0.00  0.00    -0.166 F 
ATOM     32  F   UNL     1       0.498   0.428   4.109  0.00  0.00    -0.166 F 
ATOM     33  F   UNL     1      -1.492   1.545   4.217  0.00  0.00    -0.166 F 
ENDBRANCH  29  30
ENDBRANCH  22  24
ENDBRANCH   3  20
TORSDOF 5
