REMARK  Name = ZINC11509565
REMARK  10 active torsions:
REMARK  status: ('A' for Active; 'I' for Inactive)
REMARK    1  A    between atoms: C_3  and  C_6
REMARK    2  A    between atoms: C_6  and  C_7
REMARK    3  A    between atoms: C_7  and  N_8
REMARK    4  A    between atoms: N_8  and  C_9
REMARK    5  A    between atoms: C_9  and  N_11
REMARK    6  A    between atoms: N_11  and  N_12
REMARK    7  A    between atoms: C_13  and  C_15
REMARK    8  A    between atoms: C_16  and  C_17
REMARK    9  A    between atoms: C_20  and  S_23
REMARK   10  A    between atoms: S_23  and  N_26
REMARK                            x       y       z     vdW  Elec       q    Type
REMARK                         _______ _______ _______ _____ _____    ______ ____
ROOT
ATOM      1  C   UNL     1       8.944  -1.011  -0.215  0.00  0.00    +0.069 C 
ATOM      2  C   UNL     1      10.213  -1.466  -0.229  0.00  0.00    +0.013 C 
ENDROOT
BRANCH   2   3
ATOM      3  C   UNL     1      10.918  -1.720   1.038  0.00  0.00    -0.025 A 
ATOM      4  C   UNL     1      10.276  -1.486   2.258  0.00  0.00    +0.010 A 
ATOM      5  C   UNL     1      10.941  -1.733   3.441  0.00  0.00    +0.029 A 
ATOM      6  C   UNL     1      12.244  -2.199   3.422  0.00  0.00    +0.106 A 
ATOM      7  C   UNL     1      12.888  -2.428   2.218  0.00  0.00    +0.029 A 
ATOM      8  C   UNL     1      12.234  -2.191   1.027  0.00  0.00    +0.010 A 
BRANCH   6   9
ATOM      9  S   UNL     1      13.088  -2.503   4.939  0.00  0.00    +0.061 S 
ATOM     10  O   UNL     1      12.088  -2.732   5.921  0.00  0.00    -0.153 OA
ATOM     11  O   UNL     1      14.107  -3.452   4.653  0.00  0.00    -0.153 OA
BRANCH   9  12
ATOM     12  N   UNL     1      13.855  -1.098   5.362  0.00  0.00    -0.177 NA
ATOM     13  C   UNL     1      15.207  -0.880   4.899  0.00  0.00    +0.109 C 
ATOM     14  C   UNL     1      16.212  -1.460   5.915  0.00  0.00    +0.017 C 
ATOM     15  C   UNL     1      16.237  -0.638   7.135  0.00  0.00    +0.001 C 
ATOM     16  C   UNL     1      14.913  -0.596   7.891  0.00  0.00    +0.001 C 
ATOM     17  C   UNL     1      14.032   0.477   7.299  0.00  0.00    +0.017 C 
ATOM     18  C   UNL     1      13.133  -0.123   6.203  0.00  0.00    +0.109 C 
ENDBRANCH   9  12
ENDBRANCH   6   9
ENDBRANCH   2   3
BRANCH   1  20
ATOM     19  N   UNL     1       6.974  -0.304  -1.461  0.00  0.00    -0.232 N 
ATOM     20  C   UNL     1       8.243  -0.758  -1.475  0.00  0.00    +0.253 C 
ATOM     21  O   UNL     1       8.806  -0.958  -2.536  0.00  0.00    -0.269 OA
ATOM     22  H   UNL     1       6.525  -0.145  -0.616  0.00  0.00    +0.173 HD
BRANCH  19  23
ATOM     23  N   UNL     1       6.303  -0.062  -2.667  0.00  0.00    -0.246 N 
ATOM     24  H   UNL     1       6.752  -0.221  -3.512  0.00  0.00    +0.172 HD
BRANCH  23  25
ATOM     25  C   UNL     1       5.034   0.392  -2.653  0.00  0.00    +0.147 C 
ATOM     26  S   UNL     1       4.214   0.688  -4.126  0.00  0.00    -0.017 S 
BRANCH  25  27
ATOM     27  N   UNL     1       4.410   0.614  -1.478  0.00  0.00    -0.325 N 
ATOM     28  H   UNL     1       4.875   0.446  -0.644  0.00  0.00    +0.148 HD
BRANCH  27  29
ATOM     29  C   UNL     1       3.031   1.107  -1.463  0.00  0.00    +0.108 C 
BRANCH  29  30
ATOM     30  C   UNL     1       2.565   1.272  -0.015  0.00  0.00    +0.061 C 
BRANCH  30  33
ATOM     31  C   UNL     1      -1.213   1.761   0.017  0.00  0.00    +0.008 A 
ATOM     32  C   UNL     1      -0.013   1.076   0.008  0.00  0.00    +0.011 A 
ATOM     33  C   UNL     1       1.146   1.780   0.001  0.00  0.00    -0.009 A 
ATOM     34  S   UNL     1       0.555   3.464   0.015  0.00  0.00    -0.102 S 
ATOM     35  C   UNL     1      -1.196   3.116   0.030  0.00  0.00    +0.045 A 
ENDBRANCH  30  33
ENDBRANCH  29  30
ENDBRANCH  27  29
ENDBRANCH  25  27
ENDBRANCH  23  25
ENDBRANCH  19  23
ENDBRANCH   1  20
TORSDOF 10
