REMARK  Name = ZINC14475750
REMARK  5 active torsions:
REMARK  status: ('A' for Active; 'I' for Inactive)
REMARK    1  A    between atoms: C_4  and  N_7
REMARK    2  A    between atoms: C_8  and  C_10
REMARK    3  A    between atoms: C_17  and  C_26
REMARK    4  A    between atoms: C_28  and  N_33
REMARK    5  A    between atoms: C_31  and  O_32
REMARK                            x       y       z     vdW  Elec       q    Type
REMARK                         _______ _______ _______ _____ _____    ______ ____
ROOT
ATOM      1  C   UNL     1      -1.411   0.896  -0.998  0.00  0.00    +0.058 A 
ATOM      2  C   UNL     1      -2.204   1.035  -2.138  0.00  0.00    +0.015 A 
ATOM      3  C   UNL     1      -1.763   1.817  -3.182  0.00  0.00    +0.001 A 
ATOM      4  C   UNL     1      -0.542   2.463  -3.103  0.00  0.00    +0.006 A 
ATOM      5  C   UNL     1       0.260   2.337  -1.977  0.00  0.00    -0.019 A 
ATOM      6  C   UNL     1      -0.182   1.572  -0.886  0.00  0.00    +0.044 A 
ATOM      7  N   UNL     1       0.590   1.396   0.252  0.00  0.00    -0.336 N 
ATOM      8  C   UNL     1       2.019   1.522  -0.039  0.00  0.00    +0.108 C 
ATOM      9  C   UNL     1       2.309   2.894  -0.626  0.00  0.00    +0.029 C 
ATOM     10  C   UNL     1       1.574   3.072  -1.971  0.00  0.00    +0.049 C 
ATOM     11  C   UNL     1       1.281   4.563  -2.013  0.00  0.00    -0.023 C 
ATOM     12  C   UNL     1       1.308   5.071  -0.807  0.00  0.00    -0.030 C 
ATOM     13  C   UNL     1       1.641   3.997   0.231  0.00  0.00    +0.033 C 
ATOM     14  H   UNL     1       0.254   1.187   1.279  0.00  0.00    +0.147 HD
ENDROOT
BRANCH   8  15
ATOM     15  C   UNL     1       2.423   0.459  -1.028  0.00  0.00    +0.017 A 
ATOM     16  C   UNL     1       3.193   0.792  -2.125  0.00  0.00    +0.041 A 
ATOM     17  C   UNL     1       3.570  -0.184  -3.029  0.00  0.00    +0.127 A 
ATOM     18  C   UNL     1       3.166  -1.494  -2.844  0.00  0.00    +0.036 A 
ATOM     19  C   UNL     1       2.391  -1.831  -1.752  0.00  0.00    +0.048 A 
ATOM     20  C   UNL     1       2.017  -0.855  -0.840  0.00  0.00    +0.122 A 
BRANCH  17  21
ATOM     21  N   UNL     1       4.400   0.174  -4.200  0.00  0.00    +0.056 N 
ATOM     22  O   UNL     1       4.728  -0.684  -5.000  0.00  0.00    -0.126 OA
ATOM     23  O   UNL     1       4.756   1.328  -4.364  0.00  0.00    -0.126 OA
ENDBRANCH  17  21
BRANCH  20  24
ATOM     24  O   UNL     1       1.255  -1.184   0.236  0.00  0.00    -0.506 OA
ATOM     25  H   UNL     1       0.934  -2.225   0.384  0.00  0.00    +0.292 HD
ENDBRANCH  20  24
ENDBRANCH   8  15
BRANCH   1  27
ATOM     26  N   UNL     1      -2.986  -0.690  -0.007  0.00  0.00    -0.281 N 
ATOM     27  C   UNL     1      -1.875   0.061   0.125  0.00  0.00    +0.250 C 
ATOM     28  O   UNL     1      -1.254   0.049   1.170  0.00  0.00    -0.270 OA
ATOM     29  H   UNL     1      -3.499  -0.747  -0.979  0.00  0.00    +0.155 HD
BRANCH  26  33
ATOM     30  C   UNL     1      -4.481  -2.791   3.264  0.00  0.00    +0.000 A 
ATOM     31  C   UNL     1      -3.747  -1.636   3.463  0.00  0.00    +0.002 A 
ATOM     32  C   UNL     1      -3.250  -0.937   2.381  0.00  0.00    +0.023 A 
ATOM     33  C   UNL     1      -3.488  -1.395   1.091  0.00  0.00    +0.034 A 
ATOM     34  C   UNL     1      -4.231  -2.552   0.895  0.00  0.00    +0.023 A 
ATOM     35  C   UNL     1      -4.720  -3.250   1.982  0.00  0.00    +0.002 A 
ENDBRANCH  26  33
ENDBRANCH   1  27
TORSDOF 5
