REMARK  Name = ZINC65329854
REMARK  10 active torsions:
REMARK  status: ('A' for Active; 'I' for Inactive)
REMARK    1  A    between atoms: C_1  and  C_2
REMARK    2  A    between atoms: C_2  and  O_3
REMARK    3  A    between atoms: O_3  and  C_4
REMARK    4  A    between atoms: C_7  and  N_10
REMARK    5  A    between atoms: N_12  and  C_13
REMARK    6  A    between atoms: C_13  and  C_14
REMARK    7  A    between atoms: C_14  and  C_15
REMARK    8  A    between atoms: N_24  and  C_25
REMARK    9  A    between atoms: C_25  and  C_27
REMARK   10  A    between atoms: C_32  and  C_33
REMARK                            x       y       z     vdW  Elec       q    Type
REMARK                         _______ _______ _______ _____ _____    ______ ____
ROOT
ATOM      1  N   UNL     1       2.303  -5.364  -0.494  0.00  0.00    -0.328 N 
ATOM      2  C   UNL     1       3.094  -6.088  -1.337  0.00  0.00    +0.194 C 
ATOM      3  N   UNL     1       3.579  -7.301  -0.944  0.00  0.00    -0.357 N 
ATOM      4  N   UNL     1       3.392  -5.614  -2.537  0.00  0.00    -0.143 NA
ATOM      5  H   UNL     1       3.264  -7.706  -0.121  0.00  0.00    +0.162 HD
ATOM      6  H   UNL     1       1.619  -4.778  -0.854  0.00  0.00    +0.169 HD
ENDROOT
BRANCH   1  10
ATOM      7  C   UNL     1       2.824  -5.671   3.632  0.00  0.00    +0.121 A 
ATOM      8  C   UNL     1       1.591  -5.302   3.114  0.00  0.00    +0.047 A 
ATOM      9  C   UNL     1       1.418  -5.200   1.748  0.00  0.00    +0.029 A 
ATOM     10  C   UNL     1       2.478  -5.467   0.892  0.00  0.00    +0.042 A 
ATOM     11  C   UNL     1       3.712  -5.836   1.411  0.00  0.00    +0.029 A 
ATOM     12  C   UNL     1       3.885  -5.932   2.777  0.00  0.00    +0.047 A 
BRANCH   7  13
ATOM     13  O   UNL     1       2.994  -5.772   4.977  0.00  0.00    -0.492 OA
BRANCH  13  15
ATOM     14  C   UNL     1       2.240  -5.653   7.270  0.00  0.00    +0.048 C 
ATOM     15  C   UNL     1       1.859  -5.489   5.797  0.00  0.00    +0.225 C 
ENDBRANCH  13  15
ENDBRANCH   7  13
ENDBRANCH   1  10
BRANCH   4  16
ATOM     16  C   UNL     1       3.046  -4.362  -2.867  0.00  0.00    +0.270 C 
ATOM     17  O   UNL     1       2.585  -3.615  -2.023  0.00  0.00    -0.268 OA
BRANCH  16  18
ATOM     18  C   UNL     1       3.227  -3.886  -4.258  0.00  0.00    +0.042 A 
ATOM     19  C   UNL     1       3.794  -4.725  -5.217  0.00  0.00    +0.013 A 
ATOM     20  C   UNL     1       3.959  -4.276  -6.511  0.00  0.00    +0.001 A 
ATOM     21  C   UNL     1       3.563  -2.997  -6.858  0.00  0.00    +0.000 A 
ATOM     22  C   UNL     1       3.000  -2.160  -5.912  0.00  0.00    +0.004 A 
ATOM     23  C   UNL     1       2.824  -2.600  -4.615  0.00  0.00    -0.038 A 
ATOM     24  C   UNL     1       2.204  -1.689  -3.587  0.00  0.00    +0.044 C 
ENDBRANCH  16  18
ENDBRANCH   4  16
BRANCH   3  25
ATOM     25  C   UNL     1       4.577  -7.993  -1.765  0.00  0.00    +0.120 C 
BRANCH  25  26
ATOM     26  C   UNL     1       4.949  -9.321  -1.104  0.00  0.00    +0.054 C 
BRANCH  26  27
ATOM     27  C   UNL     1       5.975 -10.032  -1.949  0.00  0.00    -0.040 C 
ATOM     28  C   UNL     1       7.318 -10.000  -1.796  0.00  0.00    -0.001 A 
ATOM     29  C   UNL     1       8.193  -9.318  -0.835  0.00  0.00    +0.010 A 
ATOM     30  C   UNL     1       9.532  -9.480  -0.937  0.00  0.00    +0.001 A 
ATOM     31  C   UNL     1      10.104 -10.280  -1.936  0.00  0.00    +0.002 A 
ATOM     32  C   UNL     1       9.365 -10.938  -2.854  0.00  0.00    +0.026 A 
ATOM     33  C   UNL     1       7.946 -10.840  -2.841  0.00  0.00    +0.043 A 
ATOM     34  N   UNL     1       7.027 -11.371  -3.610  0.00  0.00    -0.380 N 
ATOM     35  C   UNL     1       5.710 -10.932  -3.135  0.00  0.00    +0.144 C 
ATOM     36  H   UNL     1       7.190 -11.959  -4.364  0.00  0.00    +0.160 HD
ENDBRANCH  26  27
ENDBRANCH  25  26
ENDBRANCH   3  25
TORSDOF 8
