REMARK  Name = ZINC08150745
REMARK  4 active torsions:
REMARK  status: ('A' for Active; 'I' for Inactive)
REMARK    1  A    between atoms: C_3  and  N_18
REMARK    2  A    between atoms: C_5  and  C_6
REMARK    3  A    between atoms: N_7  and  N_8
REMARK    4  A    between atoms: N_8  and  C_9
REMARK                            x       y       z     vdW  Elec       q    Type
REMARK                         _______ _______ _______ _____ _____    ______ ____
ROOT
ATOM      1  C   UNL     1       1.046  -4.020  -0.031  0.00  0.00    +0.145 C 
ATOM      2  N   UNL     1       2.333  -4.221  -0.045  0.00  0.00    -0.189 NA
ENDROOT
BRANCH   1   7
ATOM      3  C   UNL     1      -0.798  -2.228  -0.003  0.00  0.00    +0.019 A 
ATOM      4  C   UNL     1      -1.050  -0.876   0.007  0.00  0.00    +0.031 A 
ATOM      5  C   UNL     1       0.002  -0.004   0.002  0.00  0.00    +0.069 A 
ATOM      6  S   UNL     1       1.407  -1.105  -0.025  0.00  0.00    -0.073 S 
ATOM      7  C   UNL     1       0.518  -2.653  -0.018  0.00  0.00    +0.034 A 
BRANCH   5   8
ATOM      8  N   UNL     1      -0.017   1.388   0.010  0.00  0.00    -0.325 N 
ATOM      9  C   UNL     1      -0.805   1.910  -1.114  0.00  0.00    +0.105 C 
ATOM     10  C   UNL     1      -0.926   3.431  -0.992  0.00  0.00    +0.019 C 
ATOM     11  C   UNL     1       0.474   4.050  -0.995  0.00  0.00    +0.003 C 
ATOM     12  C   UNL     1       1.291   3.454   0.155  0.00  0.00    +0.019 C 
ATOM     13  C   UNL     1       1.347   1.933  -0.000  0.00  0.00    +0.105 C 
ENDBRANCH   5   8
ENDBRANCH   1   7
BRANCH   2  14
ATOM     14  N   UNL     1       2.837  -5.528  -0.058  0.00  0.00    -0.235 N 
ATOM     15  H   UNL     1       2.229  -6.283  -0.056  0.00  0.00    +0.174 HD
BRANCH  14  16
ATOM     16  C   UNL     1       4.217  -5.743  -0.072  0.00  0.00    +0.085 A 
ATOM     17  C   UNL     1       5.081  -4.702  -0.392  0.00  0.00    +0.066 A 
ATOM     18  C   UNL     1       6.446  -4.917  -0.401  0.00  0.00    +0.042 A 
ATOM     19  C   UNL     1       6.953  -6.170  -0.103  0.00  0.00    +0.044 A 
ATOM     20  C   UNL     1       6.095  -7.210   0.211  0.00  0.00    +0.042 A 
ATOM     21  C   UNL     1       4.729  -7.001   0.227  0.00  0.00    +0.066 A 
ATOM     22 CL   UNL     1       3.654  -8.306   0.620  0.00  0.00    -0.081 Cl
ATOM     23 CL   UNL     1       8.668  -6.438  -0.123  0.00  0.00    -0.083 Cl
ATOM     24 CL   UNL     1       4.447  -3.131  -0.773  0.00  0.00    -0.081 Cl
ENDBRANCH  14  16
ENDBRANCH   2  14
TORSDOF 4
