REMARK  Name = ZINC39560555
REMARK  10 active torsions:
REMARK  status: ('A' for Active; 'I' for Inactive)
REMARK    1  A    between atoms: C_1  and  C_2
REMARK    2  A    between atoms: C_5  and  N_9
REMARK    3  A    between atoms: C_7  and  C_8
REMARK    4  A    between atoms: C_10  and  S_21
REMARK    5  A    between atoms: C_14  and  C_15
REMARK    6  A    between atoms: S_21  and  C_22
REMARK    7  A    between atoms: C_22  and  C_24
REMARK    8  A    between atoms: C_22  and  C_25
REMARK    9  A    between atoms: C_30  and  C_37
REMARK   10  A    between atoms: C_31  and  C_36
REMARK                            x       y       z     vdW  Elec       q    Type
REMARK                         _______ _______ _______ _____ _____    ______ ____
ROOT
ATOM      1  N   UNL     1       0.220  -4.150  -0.082  0.00  0.00    -0.254 N 
ATOM      2  C   UNL     1       0.101  -5.060  -1.234  0.00  0.00    +0.242 C 
ATOM      3  N   UNL     1      -0.078  -6.388  -0.621  0.00  0.00    -0.237 N 
ATOM      4  N   UNL     1      -0.054  -6.189   0.764  0.00  0.00    -0.168 NA
ATOM      5  C   UNL     1       0.118  -4.942   1.061  0.00  0.00    +0.153 C 
ATOM      6  H   UNL     1      -0.190  -7.232  -1.086  0.00  0.00    +0.171 HD
ENDROOT
BRANCH   1  11
ATOM      7  C   UNL     1       0.971   1.468  -0.263  0.00  0.00    +0.044 C 
ATOM      8  C   UNL     1       0.772  -0.025  -0.215  0.00  0.00    -0.047 A 
ATOM      9  C   UNL     1       1.753  -0.835   0.327  0.00  0.00    +0.005 A 
ATOM     10  C   UNL     1       1.574  -2.204   0.372  0.00  0.00    +0.024 A 
ATOM     11  C   UNL     1       0.405  -2.766  -0.126  0.00  0.00    +0.038 A 
ATOM     12  C   UNL     1      -0.579  -1.950  -0.669  0.00  0.00    +0.027 A 
ATOM     13  C   UNL     1      -0.395  -0.581  -0.707  0.00  0.00    -0.046 A 
ATOM     14  C   UNL     1      -1.464   0.306  -1.291  0.00  0.00    +0.044 C 
ENDBRANCH   1  11
BRANCH   5  15
ATOM     15  C   UNL     1       0.194  -4.421   2.442  0.00  0.00    +0.020 A 
ATOM     16  C   UNL     1       0.039  -3.054   2.704  0.00  0.00    +0.029 A 
ATOM     17  C   UNL     1       0.116  -2.611   4.008  0.00  0.00    +0.083 A 
ATOM     18  N   UNL     1       0.333  -3.455   4.999  0.00  0.00    -0.367 N 
ATOM     19  C   UNL     1       0.484  -4.750   4.796  0.00  0.00    +0.083 A 
ATOM     20  C   UNL     1       0.415  -5.280   3.525  0.00  0.00    +0.029 A 
ATOM     21  H   UNL     1       0.383  -3.112   5.905  0.00  0.00    +0.165 HD
ENDBRANCH   5  15
BRANCH   2  22
ATOM     22  S   UNL     1       1.610  -5.017  -2.238  0.00  0.00    -0.107 S 
BRANCH  22  23
ATOM     23  C   UNL     1       2.869  -5.769  -1.171  0.00  0.00    +0.112 C 
ATOM     24  C   UNL     1       3.203  -4.813  -0.024  0.00  0.00    +0.027 C 
BRANCH  23  25
ATOM     25  C   UNL     1       4.114  -6.040  -1.976  0.00  0.00    +0.136 C 
ATOM     26  N   UNL     1       4.083  -5.806  -3.266  0.00  0.00    -0.160 NA
ATOM     27  C   UNL     1       5.134  -6.014  -4.065  0.00  0.00    +0.271 C 
ATOM     28  O   UNL     1       5.070  -5.785  -5.261  0.00  0.00    -0.268 OA
ATOM     29  C   UNL     1       6.392  -6.538  -3.444  0.00  0.00    +0.071 C 
ATOM     30  C   UNL     1       7.560  -6.819  -4.042  0.00  0.00    -0.045 C 
ATOM     31  C   UNL     1       8.685  -7.340  -3.177  0.00  0.00    +0.076 C 
ATOM     32  S   UNL     1       7.896  -7.368  -1.516  0.00  0.00    -0.098 S 
ATOM     33  C   UNL     1       6.296  -6.760  -1.986  0.00  0.00    +0.111 C 
ATOM     34  N   UNL     1       5.183  -6.497  -1.343  0.00  0.00    -0.226 NA
ATOM     35  C   UNL     1       9.102  -8.747  -3.610  0.00  0.00    +0.024 C 
ATOM     36  C   UNL     1       7.743  -6.622  -5.524  0.00  0.00    +0.041 C 
ENDBRANCH  23  25
ENDBRANCH  22  23
ENDBRANCH   2  22
TORSDOF 5
