REMARK  Name = ZINC32097181
REMARK  4 active torsions:
REMARK  status: ('A' for Active; 'I' for Inactive)
REMARK    1  A    between atoms: C_3  and  O_27
REMARK    2  A    between atoms: C_6  and  N_7
REMARK    3  A    between atoms: C_14  and  O_16
REMARK    4  A    between atoms: O_27  and  C_28
REMARK                            x       y       z     vdW  Elec       q    Type
REMARK                         _______ _______ _______ _____ _____    ______ ____
ROOT
ATOM      1  N   UNL     1      -1.202  -0.722   0.010  0.00  0.00    -0.214 N 
ATOM      2  C   UNL     1      -1.434  -1.898  -0.616  0.00  0.00    +0.164 A 
ATOM      3  C   UNL     1      -2.755  -2.247  -0.354  0.00  0.00    +0.036 A 
ATOM      4  C   UNL     1      -3.302  -1.262   0.446  0.00  0.00    +0.142 A 
ATOM      5  N   UNL     1      -2.383  -0.351   0.675  0.00  0.00    -0.173 NA
ATOM      6  C   UNL     1      -3.354  -3.506  -0.915  0.00  0.00    +0.112 C 
ATOM      7  C   UNL     1      -2.241  -4.534  -1.108  0.00  0.00    +0.121 C 
ATOM      8  C   UNL     1      -0.997  -3.899  -1.662  0.00  0.00    +0.191 C 
ATOM      9  N   UNL     1      -0.636  -2.679  -1.397  0.00  0.00    -0.197 NA
ATOM     10  C   UNL     1      -4.076  -3.242  -2.196  0.00  0.00    -0.005 A 
ATOM     11  C   UNL     1      -3.642  -2.748  -3.408  0.00  0.00    +0.026 A 
ATOM     12  C   UNL     1      -4.592  -2.623  -4.417  0.00  0.00    +0.041 A 
ATOM     13  C   UNL     1      -5.910  -2.980  -4.210  0.00  0.00    +0.022 A 
ATOM     14  C   UNL     1      -6.354  -3.478  -2.995  0.00  0.00    +0.025 A 
ATOM     15  C   UNL     1      -5.410  -3.608  -1.975  0.00  0.00    +0.038 A 
ATOM     16  N   UNL     1      -5.573  -4.071  -0.680  0.00  0.00    -0.284 N 
ATOM     17  C   UNL     1      -4.416  -4.047   0.015  0.00  0.00    +0.233 C 
ATOM     18  O   UNL     1      -4.258  -4.394   1.167  0.00  0.00    -0.274 OA
ATOM     19 CL   UNL     1      -4.110  -2.007  -5.967  0.00  0.00    -0.084 Cl
ATOM     20  H   UNL     1      -6.418  -4.377  -0.316  0.00  0.00    +0.155 HD
ENDROOT
BRANCH   1  26
ATOM     21  C   UNL     1      -0.017   1.384   0.010  0.00  0.00    +0.031 A 
ATOM     22  C   UNL     1       1.170   2.091   0.002  0.00  0.00    +0.048 A 
ATOM     23  C   UNL     1       2.380   1.413  -0.013  0.00  0.00    +0.130 A 
ATOM     24  C   UNL     1       2.400   0.026  -0.022  0.00  0.00    +0.048 A 
ATOM     25  C   UNL     1       1.214  -0.681  -0.014  0.00  0.00    +0.031 A 
ATOM     26  C   UNL     1       0.002  -0.004   0.002  0.00  0.00    +0.068 A 
BRANCH  23  27
ATOM     27  O   UNL     1       3.548   2.109  -0.021  0.00  0.00    -0.406 OA
BRANCH  27  28
ATOM     28  C   UNL     1       4.757   1.348  -0.037  0.00  0.00    +0.575 C 
ATOM     29  F   UNL     1       4.789   0.547  -1.185  0.00  0.00    -0.133 F 
ATOM     30  F   UNL     1       5.855   2.215  -0.044  0.00  0.00    -0.133 F 
ATOM     31  F   UNL     1       4.811   0.535   1.100  0.00  0.00    -0.133 F 
ENDBRANCH  27  28
ENDBRANCH  23  27
ENDBRANCH   1  26
BRANCH   8  32
ATOM     32  O   UNL     1      -0.214  -4.634  -2.478  0.00  0.00    -0.495 OA
ATOM     33  H   UNL     1       0.569  -4.166  -2.799  0.00  0.00    +0.293 HD
ENDBRANCH   8  32
TORSDOF 4
