REMARK  Name = ZINC39686014
REMARK  9 active torsions:
REMARK  status: ('A' for Active; 'I' for Inactive)
REMARK    1  A    between atoms: C_1  and  C_2
REMARK    2  A    between atoms: C_2  and  C_4
REMARK    3  A    between atoms: C_2  and  O_31
REMARK    4  A    between atoms: C_8  and  C_17
REMARK    5  A    between atoms: N_19  and  C_20
REMARK    6  A    between atoms: C_26  and  C_28
REMARK    7  A    between atoms: C_28  and  C_29
REMARK    8  A    between atoms: C_28  and  C_30
REMARK    9  A    between atoms: O_31  and  C_32
REMARK                            x       y       z     vdW  Elec       q    Type
REMARK                         _______ _______ _______ _____ _____    ______ ____
ROOT
ATOM      1  C   UNL     1       2.954   0.099   2.509  0.00  0.00    +0.256 C 
ATOM      2  O   UNL     1       2.075  -0.397   3.182  0.00  0.00    -0.272 OA
ATOM      3  N   UNL     1       4.166   0.331   3.050  0.00  0.00    -0.297 N 
ATOM      4  C   UNL     1       5.378   0.852   2.374  0.00  0.00    +0.121 C 
ATOM      5  C   UNL     1       6.017   1.811   3.403  0.00  0.00    +0.100 C 
ATOM      6  C   UNL     1       5.497   1.326   4.767  0.00  0.00    -0.004 C 
ATOM      7  C   UNL     1       4.588   0.129   4.457  0.00  0.00    +0.115 C 
ATOM      8  C   UNL     1       4.694   2.429   5.449  0.00  0.00    -0.010 C 
ATOM      9  C   UNL     1       4.236   1.943   6.827  0.00  0.00    -0.082 C 
ATOM     10  N   UNL     1       5.408   1.592   7.638  0.00  0.00    +0.379 N 
ATOM     11  C   UNL     1       6.124   0.468   7.022  0.00  0.00    -0.082 C 
ATOM     12  C   UNL     1       6.662   0.891   5.652  0.00  0.00    -0.010 C 
ATOM     13  H   UNL     1       6.024   2.389   7.699  0.00  0.00    -0.086 HD
ATOM     14  H   UNL     1       5.108   1.330   8.565  0.00  0.00    -0.086 HD
ENDROOT
BRANCH   5  15
ATOM     15  C   UNL     1       5.575   3.228   3.144  0.00  0.00    +0.218 C 
ATOM     16  O   UNL     1       4.430   3.457   2.816  0.00  0.00    -0.275 OA
ATOM     17  N   UNL     1       6.453   4.243   3.277  0.00  0.00    -0.312 N 
ATOM     18  H   UNL     1       7.369   4.060   3.539  0.00  0.00    +0.149 HD
BRANCH  17  19
ATOM     19  C   UNL     1       6.023   5.621   3.026  0.00  0.00    +0.076 C 
ATOM     20  C   UNL     1       5.388   6.196   4.294  0.00  0.00    +0.041 C 
ATOM     21  C   UNL     1       4.909   7.625   4.017  0.00  0.00    +0.109 C 
ATOM     22  N   UNL     1       6.037   8.409   3.498  0.00  0.00    -0.301 N 
ATOM     23  C   UNL     1       6.777   7.900   2.335  0.00  0.00    +0.109 C 
ATOM     24  C   UNL     1       7.234   6.468   2.630  0.00  0.00    +0.041 C 
ATOM     25  C   UNL     1       6.387   9.575   4.077  0.00  0.00    +0.218 C 
ATOM     26  O   UNL     1       5.822   9.946   5.084  0.00  0.00    -0.275 OA
BRANCH  25  27
ATOM     27  C   UNL     1       7.481  10.418   3.473  0.00  0.00    +0.069 C 
ATOM     28  C   UNL     1       6.926  11.194   2.278  0.00  0.00    +0.017 C 
ATOM     29  C   UNL     1       8.004  11.401   4.522  0.00  0.00    +0.017 C 
ENDBRANCH  25  27
ENDBRANCH  17  19
ENDBRANCH   5  15
BRANCH   1  31
ATOM     30  C   UNL     1       2.674   1.977   0.915  0.00  0.00    +0.062 C 
ATOM     31  C   UNL     1       2.690   0.455   1.069  0.00  0.00    +0.256 C 
BRANCH  31  32
ATOM     32  O   UNL     1       1.425  -0.077   0.670  0.00  0.00    -0.480 OA
BRANCH  32  33
ATOM     33  C   UNL     1       1.252  -0.330  -0.654  0.00  0.00    +0.122 A 
ATOM     34  C   UNL     1       2.232   0.037  -1.565  0.00  0.00    +0.045 A 
ATOM     35  C   UNL     1       2.053  -0.221  -2.910  0.00  0.00    +0.004 A 
ATOM     36  C   UNL     1       0.899  -0.844  -3.349  0.00  0.00    +0.000 A 
ATOM     37  C   UNL     1      -0.079  -1.209  -2.443  0.00  0.00    +0.004 A 
ATOM     38  C   UNL     1       0.097  -0.959  -1.096  0.00  0.00    +0.045 A 
ENDBRANCH  32  33
ENDBRANCH  31  32
ENDBRANCH   1  31
TORSDOF 6
