REMARK  Name = ZINC06198358
REMARK  9 active torsions:
REMARK  status: ('A' for Active; 'I' for Inactive)
REMARK    1  A    between atoms: C_1  and  C_2
REMARK    2  A    between atoms: C_2  and  C_3
REMARK    3  A    between atoms: C_10  and  C_15
REMARK    4  A    between atoms: C_15  and  C_17
REMARK    5  A    between atoms: C_15  and  N_73
REMARK    6  A    between atoms: N_21  and  C_22
REMARK    7  A    between atoms: C_22  and  C_23
REMARK    8  A    between atoms: C_31  and  C_34
REMARK    9  A    between atoms: C_34  and  C_35
REMARK                            x       y       z     vdW  Elec       q    Type
REMARK                         _______ _______ _______ _____ _____    ______ ____
ROOT
ATOM      1  C   UNL     1       1.665   6.426  -1.703  0.00  0.00    +0.039 C 
ENDROOT
BRANCH   1   9
ATOM      2  C   UNL     1       3.999  11.011   1.734  0.00  0.00    -0.047 A 
ATOM      3  C   UNL     1       4.512  11.752   0.677  0.00  0.00    +0.005 A 
ATOM      4  C   UNL     1       4.372  11.315  -0.622  0.00  0.00    +0.026 A 
ATOM      5  C   UNL     1       3.709  10.119  -0.880  0.00  0.00    +0.049 A 
ATOM      6  C   UNL     1       3.190   9.371   0.194  0.00  0.00    -0.001 A 
ATOM      7  C   UNL     1       3.345   9.835   1.504  0.00  0.00    +0.013 A 
ATOM      8  C   UNL     1       2.495   8.114  -0.088  0.00  0.00    +0.017 A 
ATOM      9  C   UNL     1       2.375   7.715  -1.378  0.00  0.00    +0.011 A 
ATOM     10  C   UNL     1       2.918   8.499  -2.418  0.00  0.00    +0.251 A 
ATOM     11  O   UNL     1       2.804   8.120  -3.571  0.00  0.00    -0.268 OA
ATOM     12  N   UNL     1       3.554   9.658  -2.170  0.00  0.00    -0.322 N 
ATOM     13  H   UNL     1       3.920  10.192  -2.932  0.00  0.00    +0.169 HD
BRANCH   2  15
ATOM     14  C   UNL     1       5.471  10.965   3.729  0.00  0.00    +0.009 C 
ATOM     15  C   UNL     1       4.166  11.511   3.146  0.00  0.00    +0.032 C 
ENDBRANCH   2  15
ENDBRANCH   1   9
BRANCH   1  21
ATOM     16  C   UNL     1      -0.002   5.428  -3.147  0.00  0.00    -0.077 C 
ATOM     17  C   UNL     1      -0.990   5.722  -4.279  0.00  0.00    -0.015 C 
ATOM     18  C   UNL     1      -2.068   6.683  -3.771  0.00  0.00    -0.010 C 
ATOM     19  C   UNL     1      -1.400   7.962  -3.258  0.00  0.00    -0.015 C 
ATOM     20  C   UNL     1      -0.400   7.604  -2.157  0.00  0.00    -0.077 C 
ATOM     21  N   UNL     1       0.624   6.696  -2.716  0.00  0.00    +0.389 N 
ATOM     22  H   UNL     1       1.060   7.147  -3.529  0.00  0.00    -0.080 HD
BRANCH  18  23
ATOM     23  C   UNL     1      -3.024   7.029  -4.914  0.00  0.00    +0.038 C 
BRANCH  23  24
ATOM     24  C   UNL     1      -3.772   5.790  -5.336  0.00  0.00    -0.047 A 
ATOM     25  C   UNL     1      -3.257   4.976  -6.328  0.00  0.00    +0.003 A 
ATOM     26  C   UNL     1      -3.940   3.837  -6.711  0.00  0.00    +0.000 A 
ATOM     27  C   UNL     1      -5.143   3.517  -6.110  0.00  0.00    +0.000 A 
ATOM     28  C   UNL     1      -5.660   4.333  -5.121  0.00  0.00    +0.000 A 
ATOM     29  C   UNL     1      -4.974   5.470  -4.734  0.00  0.00    +0.003 A 
ENDBRANCH  23  24
ENDBRANCH  18  23
ENDBRANCH   1  21
BRANCH   1  30
ATOM     30  C   UNL     1       2.653   5.436  -2.267  0.00  0.00    +0.143 A 
ATOM     31  N   UNL     1       3.171   5.448  -3.470  0.00  0.00    -0.115 NA
ATOM     32  N   UNL     1       3.968   4.441  -3.570  0.00  0.00    -0.023 NA
ATOM     33  N   UNL     1       3.976   3.790  -2.459  0.00  0.00    -0.044 NA
ATOM     34  N   UNL     1       3.173   4.369  -1.632  0.00  0.00    -0.226 N 
BRANCH  34  35
ATOM     35  C   UNL     1       2.886   3.949  -0.259  0.00  0.00    +0.182 C 
BRANCH  35  36
ATOM     36  C   UNL     1       1.713   3.002  -0.258  0.00  0.00    -0.026 A 
ATOM     37  C   UNL     1       1.924   1.641  -0.385  0.00  0.00    +0.005 A 
ATOM     38  C   UNL     1       0.849   0.772  -0.384  0.00  0.00    +0.000 A 
ATOM     39  C   UNL     1      -0.438   1.265  -0.262  0.00  0.00    +0.000 A 
ATOM     40  C   UNL     1      -0.647   2.624  -0.130  0.00  0.00    +0.000 A 
ATOM     41  C   UNL     1       0.428   3.493  -0.130  0.00  0.00    +0.005 A 
ENDBRANCH  35  36
ENDBRANCH  34  35
ENDBRANCH   1  30
TORSDOF 8
