REMARK  Name = ZINC04847454
REMARK  9 active torsions:
REMARK  status: ('A' for Active; 'I' for Inactive)
REMARK    1  A    between atoms: C_1  and  C_2
REMARK    2  A    between atoms: C_7  and  C_14
REMARK    3  A    between atoms: C_14  and  N_57
REMARK    4  A    between atoms: C_15  and  C_16
REMARK    5  A    between atoms: C_15  and  N_57
REMARK    6  A    between atoms: C_16  and  O_17
REMARK    7  A    between atoms: C_18  and  C_19
REMARK    8  A    between atoms: C_18  and  N_57
REMARK    9  A    between atoms: N_23  and  C_24
REMARK                            x       y       z     vdW  Elec       q    Type
REMARK                         _______ _______ _______ _____ _____    ______ ____
ROOT
ATOM      1  N   UNL     1      -0.552  -2.980  -1.979  0.00  0.00    +0.389 N 
ATOM      2  H   UNL     1      -1.107  -3.755  -1.596  0.00  0.00    -0.081 HD
ENDROOT
BRANCH   1   3
ATOM      3  C   UNL     1       0.066  -3.415  -3.249  0.00  0.00    -0.037 C 
BRANCH   3  10
ATOM      4  C   UNL     1       3.068 -10.747  -2.328  0.00  0.00    +0.044 C 
ATOM      5  C   UNL     1       2.306  -9.470  -2.574  0.00  0.00    -0.048 A 
ATOM      6  C   UNL     1       1.001  -9.528  -3.044  0.00  0.00    +0.004 A 
ATOM      7  C   UNL     1       0.294  -8.382  -3.273  0.00  0.00    +0.010 A 
ATOM      8  C   UNL     1       0.889  -7.139  -3.033  0.00  0.00    -0.001 A 
ATOM      9  C   UNL     1       0.160  -5.892  -3.268  0.00  0.00    +0.017 A 
ATOM     10  C   UNL     1       0.788  -4.717  -3.017  0.00  0.00    +0.001 A 
ATOM     11  C   UNL     1       2.119  -4.709  -2.545  0.00  0.00    +0.251 A 
ATOM     12  O   UNL     1       2.667  -3.642  -2.331  0.00  0.00    -0.268 OA
ATOM     13  N   UNL     1       2.795  -5.850  -2.321  0.00  0.00    -0.322 N 
ATOM     14  H   UNL     1       3.733  -5.807  -1.979  0.00  0.00    +0.169 HD
ATOM     15  C   UNL     1       2.212  -7.077  -2.556  0.00  0.00    +0.049 A 
ATOM     16  C   UNL     1       2.913  -8.257  -2.330  0.00  0.00    +0.029 A 
ENDBRANCH   3  10
ENDBRANCH   1   3
BRANCH   1  17
ATOM     17  C   UNL     1       0.497  -2.614  -1.005  0.00  0.00    -0.050 C 
BRANCH  17  18
ATOM     18  C   UNL     1      -0.155  -2.377   0.358  0.00  0.00    +0.137 C 
BRANCH  18  19
ATOM     19  O   UNL     1      -0.763  -3.588   0.813  0.00  0.00    -0.397 OA
ATOM     20  H   UNL     1      -1.197  -3.511   1.673  0.00  0.00    +0.209 HD
ENDBRANCH  18  19
ENDBRANCH  17  18
ENDBRANCH   1  17
BRANCH   1  21
ATOM     21  C   UNL     1      -1.443  -1.825  -2.220  0.00  0.00    +0.001 C 
BRANCH  21  22
ATOM     22  C   UNL     1      -2.727  -2.325  -2.830  0.00  0.00    +0.135 A 
ATOM     23  N   UNL     1      -2.959  -2.534  -4.103  0.00  0.00    -0.115 NA
ATOM     24  N   UNL     1      -4.171  -2.953  -4.223  0.00  0.00    -0.023 NA
ATOM     25  N   UNL     1      -4.717  -3.021  -3.059  0.00  0.00    -0.044 NA
ATOM     26  N   UNL     1      -3.857  -2.645  -2.174  0.00  0.00    -0.228 N 
BRANCH  26  27
ATOM     27  C   UNL     1      -4.073  -2.574  -0.726  0.00  0.00    +0.111 C 
ATOM     28  C   UNL     1      -5.133  -1.514  -0.420  0.00  0.00    +0.027 C 
ATOM     29  C   UNL     1      -5.358  -1.440   1.092  0.00  0.00    +0.002 C 
ATOM     30  C   UNL     1      -5.835  -2.801   1.603  0.00  0.00    +0.000 C 
ATOM     31  C   UNL     1      -4.775  -3.861   1.297  0.00  0.00    +0.002 C 
ATOM     32  C   UNL     1      -4.549  -3.935  -0.215  0.00  0.00    +0.027 C 
ENDBRANCH  26  27
ENDBRANCH  21  22
ENDBRANCH   1  21
TORSDOF 8
