REMARK  Name = ZINC39360931
REMARK  8 active torsions:
REMARK  status: ('A' for Active; 'I' for Inactive)
REMARK    1  A    between atoms: C_1  and  C_2
REMARK    2  A    between atoms: C_2  and  O_3
REMARK    3  A    between atoms: O_3  and  C_4
REMARK    4  A    between atoms: C_4  and  C_6
REMARK    5  A    between atoms: C_8  and  N_16
REMARK    6  A    between atoms: N_16  and  C_17
REMARK    7  A    between atoms: C_17  and  N_19
REMARK    8  A    between atoms: N_19  and  C_20
REMARK                            x       y       z     vdW  Elec       q    Type
REMARK                         _______ _______ _______ _____ _____    ______ ____
ROOT
ATOM      1  C   UNL     1      -3.176  -2.499   0.051  0.00  0.00    +0.234 C 
ATOM      2  C   UNL     1      -4.019  -2.259  -1.181  0.00  0.00    +0.052 C 
ATOM      3  C   UNL     1      -4.748  -3.422  -1.370  0.00  0.00    +0.018 A 
ATOM      4  C   UNL     1      -5.701  -3.805  -2.344  0.00  0.00    +0.011 A 
ATOM      5  C   UNL     1      -6.268  -5.035  -2.282  0.00  0.00    +0.001 A 
ATOM      6  C   UNL     1      -5.936  -5.945  -1.275  0.00  0.00    +0.002 A 
ATOM      7  C   UNL     1      -5.033  -5.647  -0.310  0.00  0.00    +0.026 A 
ATOM      8  C   UNL     1      -4.396  -4.379  -0.307  0.00  0.00    +0.045 A 
ATOM      9  N   UNL     1      -3.499  -3.855   0.507  0.00  0.00    -0.367 N 
ATOM     10  H   UNL     1      -3.115  -4.295   1.281  0.00  0.00    +0.161 HD
ENDROOT
BRANCH   1  11
ATOM     11  C   UNL     1      -1.712  -2.403  -0.295  0.00  0.00    +0.336 C 
ATOM     12  O   UNL     1      -1.042  -3.405  -0.370  0.00  0.00    -0.248 OA
BRANCH  11  13
ATOM     13  O   UNL     1      -1.153  -1.203  -0.519  0.00  0.00    -0.463 OA
BRANCH  13  15
ATOM     14  C   UNL     1       0.695   0.257  -1.061  0.00  0.00    +0.048 C 
ATOM     15  C   UNL     1       0.239  -1.187  -0.842  0.00  0.00    +0.229 C 
ENDBRANCH  13  15
ENDBRANCH  11  13
ENDBRANCH   1  11
BRANCH   2  16
ATOM     16  N   UNL     1      -4.055  -1.135  -1.945  0.00  0.00    -0.297 N 
ATOM     17  H   UNL     1      -4.378  -1.180  -2.859  0.00  0.00    +0.154 HD
BRANCH  16  18
ATOM     18  C   UNL     1      -3.642   0.041  -1.433  0.00  0.00    +0.139 C 
ATOM     19  S   UNL     1      -3.007   0.108   0.155  0.00  0.00    -0.018 S 
BRANCH  18  20
ATOM     20  N   UNL     1      -3.729   1.165  -2.172  0.00  0.00    -0.297 N 
ATOM     21  H   UNL     1      -4.013   1.117  -3.098  0.00  0.00    +0.154 HD
BRANCH  20  22
ATOM     22  C   UNL     1      -3.410   2.403  -1.603  0.00  0.00    +0.034 A 
ATOM     23  C   UNL     1      -2.694   3.342  -2.335  0.00  0.00    +0.025 A 
ATOM     24  C   UNL     1      -2.380   4.563  -1.772  0.00  0.00    +0.023 A 
ATOM     25  C   UNL     1      -2.777   4.852  -0.478  0.00  0.00    +0.059 A 
ATOM     26  C   UNL     1      -3.491   3.918   0.255  0.00  0.00    +0.061 A 
ATOM     27  C   UNL     1      -3.812   2.697  -0.307  0.00  0.00    +0.044 A 
ATOM     28 CL   UNL     1      -3.987   4.285   1.878  0.00  0.00    -0.082 Cl
ATOM     29 CL   UNL     1      -2.380   6.388   0.228  0.00  0.00    -0.082 Cl
ENDBRANCH  20  22
ENDBRANCH  18  20
ENDBRANCH  16  18
ENDBRANCH   2  16
TORSDOF 7
