REMARK  Name = ZINC20685411
REMARK  7 active torsions:
REMARK  status: ('A' for Active; 'I' for Inactive)
REMARK    1  A    between atoms: C_1  and  C_2
REMARK    2  A    between atoms: C_2  and  N_3
REMARK    3  A    between atoms: C_14  and  C_16
REMARK    4  A    between atoms: C_27  and  S_32
REMARK    5  A    between atoms: S_32  and  N_35
REMARK    6  A    between atoms: N_35  and  C_36
REMARK    7  A    between atoms: C_36  and  C_37
REMARK                            x       y       z     vdW  Elec       q    Type
REMARK                         _______ _______ _______ _____ _____    ______ ____
ROOT
ATOM      1  C   UNL     1       0.532   8.940   0.037  0.00  0.00    +0.105 C 
ATOM      2  C   UNL     1       0.516   9.575   1.415  0.00  0.00    +0.029 C 
ATOM      3  C   UNL     1       0.934   8.692   2.599  0.00  0.00    +0.033 C 
ATOM      4  C   UNL     1       0.125   9.307   3.743  0.00  0.00    -0.030 C 
ATOM      5  C   UNL     1      -0.958   9.905   3.263  0.00  0.00    -0.023 C 
ATOM      6  C   UNL     1      -0.990   9.718   1.789  0.00  0.00    +0.049 C 
ATOM      7  C   UNL     1      -1.587  10.726   0.887  0.00  0.00    -0.018 A 
ATOM      8  C   UNL     1      -2.575  11.595   1.297  0.00  0.00    +0.034 A 
ATOM      9  C   UNL     1      -3.112  12.511   0.411  0.00  0.00    +0.106 A 
ATOM     10  C   UNL     1      -2.657  12.557  -0.894  0.00  0.00    +0.030 A 
ATOM     11  C   UNL     1      -1.664  11.696  -1.313  0.00  0.00    +0.025 A 
ATOM     12  C   UNL     1      -1.114  10.776  -0.429  0.00  0.00    +0.031 A 
ATOM     13  N   UNL     1      -0.083   9.936  -0.868  0.00  0.00    -0.336 N 
ATOM     14  H   UNL     1       0.269  10.027  -1.906  0.00  0.00    +0.147 HD
ENDROOT
BRANCH   1  26
ATOM     15  N   UNL     1      -2.294   4.051   0.116  0.00  0.00    -0.340 N 
ATOM     16  C   UNL     1      -1.297   3.168   0.489  0.00  0.00    +0.050 A 
ATOM     17  C   UNL     1      -1.293   1.791   0.695  0.00  0.00    +0.026 A 
ATOM     18  C   UNL     1      -0.131   1.154   1.074  0.00  0.00    +0.002 A 
ATOM     19  C   UNL     1       1.043   1.871   1.245  0.00  0.00    +0.001 A 
ATOM     20  C   UNL     1       1.061   3.233   1.040  0.00  0.00    +0.010 A 
ATOM     21  C   UNL     1      -0.107   3.891   0.661  0.00  0.00    +0.008 A 
ATOM     22  C   UNL     1      -0.428   5.300   0.368  0.00  0.00    +0.008 A 
ATOM     23  C   UNL     1      -1.791   5.337   0.038  0.00  0.00    +0.050 A 
ATOM     24  C   UNL     1      -2.379   6.555  -0.290  0.00  0.00    +0.027 A 
ATOM     25  C   UNL     1      -1.625   7.708  -0.287  0.00  0.00    +0.007 A 
ATOM     26  C   UNL     1      -0.278   7.670   0.039  0.00  0.00    -0.026 A 
ATOM     27  C   UNL     1       0.322   6.473   0.367  0.00  0.00    +0.016 A 
BRANCH  15  29
ATOM     28  C   UNL     1      -4.499   3.760   1.133  0.00  0.00    +0.027 C 
ATOM     29  C   UNL     1      -3.684   3.677  -0.159  0.00  0.00    +0.119 C 
ENDBRANCH  15  29
ENDBRANCH   1  26
BRANCH   9  30
ATOM     30  S   UNL     1      -4.374  13.618   0.945  0.00  0.00    +0.058 S 
ATOM     31  O   UNL     1      -5.091  14.007  -0.219  0.00  0.00    -0.153 OA
ATOM     32  O   UNL     1      -5.007  13.006   2.060  0.00  0.00    -0.153 OA
BRANCH  30  33
ATOM     33  N   UNL     1      -3.623  14.979   1.515  0.00  0.00    -0.187 NA
ATOM     34  H   UNL     1      -3.570  15.149   2.601  0.00  0.00    +0.148 HD
BRANCH  33  35
ATOM     35  C   UNL     1      -2.852  15.827   0.603  0.00  0.00    +0.137 C 
BRANCH  35  36
ATOM     36  C   UNL     1      -2.583  17.179   1.267  0.00  0.00    +0.134 C 
ATOM     37  C   UNL     1      -1.872  18.120   0.271  0.00  0.00    +0.035 C 
ATOM     38  C   UNL     1      -0.846  18.849   1.182  0.00  0.00    +0.031 C 
ATOM     39  C   UNL     1      -0.489  17.722   2.183  0.00  0.00    +0.160 C 
ATOM     40  O   UNL     1      -1.715  17.003   2.393  0.00  0.00    -0.375 OA
ENDBRANCH  35  36
ENDBRANCH  33  35
ENDBRANCH  30  33
ENDBRANCH   9  30
TORSDOF 6
