REMARK  Name = ZINC45546672
REMARK  7 active torsions:
REMARK  status: ('A' for Active; 'I' for Inactive)
REMARK    1  A    between atoms: C_1  and  C_2
REMARK    2  A    between atoms: C_4  and  C_27
REMARK    3  A    between atoms: C_5  and  C_25
REMARK    4  A    between atoms: C_6  and  S_8
REMARK    5  A    between atoms: S_8  and  C_9
REMARK    6  A    between atoms: C_9  and  C_10
REMARK    7  A    between atoms: N_16  and  C_17
REMARK                            x       y       z     vdW  Elec       q    Type
REMARK                         _______ _______ _______ _____ _____    ______ ____
ROOT
ATOM      1  C   UNL     1       0.050  -2.144   5.318  0.00  0.00    +0.146 A 
ATOM      2  N   UNL     1      -1.077  -2.175   6.008  0.00  0.00    -0.199 NA
ATOM      3  C   UNL     1      -1.058  -2.476   7.304  0.00  0.00    +0.217 A 
ATOM      4  N   UNL     1       0.096  -2.745   7.905  0.00  0.00    -0.181 NA
ATOM      5  C   UNL     1       1.227  -2.713   7.208  0.00  0.00    +0.224 A 
ATOM      6  N   UNL     1       1.199  -2.417   5.910  0.00  0.00    -0.198 NA
ATOM      7  N   UNL     1       2.429  -2.992   7.828  0.00  0.00    -0.284 N 
ATOM      8  N   UNL     1      -2.235  -2.507   8.023  0.00  0.00    -0.327 N 
ATOM      9  H   UNL     1       3.262  -2.889   7.340  0.00  0.00    +0.155 HD
ATOM     10  H   UNL     1      -3.077  -2.310   7.584  0.00  0.00    +0.145 HD
ATOM     11  H   UNL     1      -2.220  -2.726   8.968  0.00  0.00    +0.145 HD
ENDROOT
BRANCH   7  12
ATOM     12  C   UNL     1       2.447  -3.422   9.159  0.00  0.00    +0.034 A 
ATOM     13  C   UNL     1       1.456  -4.276   9.627  0.00  0.00    +0.026 A 
ATOM     14  C   UNL     1       1.475  -4.700  10.941  0.00  0.00    +0.040 A 
ATOM     15  C   UNL     1       2.482  -4.275  11.792  0.00  0.00    +0.124 A 
ATOM     16  C   UNL     1       3.470  -3.424  11.328  0.00  0.00    +0.040 A 
ATOM     17  C   UNL     1       3.458  -3.002  10.013  0.00  0.00    +0.026 A 
ATOM     18  F   UNL     1       2.499  -4.692  13.077  0.00  0.00    -0.205 F 
ENDBRANCH   7  12
BRANCH   1  19
ATOM     19  C   UNL     1       0.024  -1.803   3.850  0.00  0.00    +0.152 C 
BRANCH  19  20
ATOM     20  S   UNL     1      -0.183  -3.322   2.880  0.00  0.00    -0.097 S 
BRANCH  20  26
ATOM     21  C   UNL     1       0.082   0.470  -0.527  0.00  0.00    +0.065 C 
ATOM     22  C   UNL     1      -0.069  -1.011  -0.290  0.00  0.00    +0.040 A 
ATOM     23  C   UNL     1      -0.208  -1.861  -1.372  0.00  0.00    +0.036 A 
ATOM     24  C   UNL     1      -0.347  -3.221  -1.157  0.00  0.00    +0.076 A 
ATOM     25  C   UNL     1      -0.341  -3.690   0.162  0.00  0.00    +0.095 A 
ATOM     26  C   UNL     1      -0.195  -2.763   1.209  0.00  0.00    +0.115 A 
ATOM     27  N   UNL     1      -0.061  -1.472   0.946  0.00  0.00    -0.244 NA
BRANCH  24  28
ATOM     28  C   UNL     1      -0.500  -4.174  -2.314  0.00  0.00    +0.419 C 
ATOM     29  F   UNL     1      -0.475  -3.457  -3.515  0.00  0.00    -0.166 F 
ATOM     30  F   UNL     1       0.550  -5.098  -2.300  0.00  0.00    -0.166 F 
ATOM     31  F   UNL     1      -1.719  -4.852  -2.201  0.00  0.00    -0.166 F 
ENDBRANCH  24  28
BRANCH  25  32
ATOM     32  C   UNL     1      -0.481  -5.088   0.440  0.00  0.00    +0.102 C 
ATOM     33  N   UNL     1      -0.592  -6.197   0.660  0.00  0.00    -0.191 NA
ENDBRANCH  25  32
ENDBRANCH  20  26
ENDBRANCH  19  20
ENDBRANCH   1  19
TORSDOF 6
