REMARK  Name = ZINC20558469
REMARK  8 active torsions:
REMARK  status: ('A' for Active; 'I' for Inactive)
REMARK    1  A    between atoms: C_1  and  O_2
REMARK    2  A    between atoms: O_2  and  C_3
REMARK    3  A    between atoms: C_3  and  C_5
REMARK    4  A    between atoms: C_8  and  C_11
REMARK    5  A    between atoms: C_13  and  C_37
REMARK    6  A    between atoms: C_14  and  N_36
REMARK    7  A    between atoms: N_21  and  C_28
REMARK    8  A    between atoms: C_28  and  C_29
REMARK                            x       y       z     vdW  Elec       q    Type
REMARK                         _______ _______ _______ _____ _____    ______ ____
ROOT
ATOM      1  C   UNL     1       0.858   5.364   0.412  0.00  0.00    +0.118 C 
ATOM      2  C   UNL     1       2.002   5.765  -0.479  0.00  0.00    +0.099 C 
ATOM      3  C   UNL     1       2.861   4.827  -0.949  0.00  0.00    +0.199 C 
ATOM      4  O   UNL     1       2.718   3.530  -0.634  0.00  0.00    -0.439 OA
ATOM      5  C   UNL     1       1.519   3.057  -0.199  0.00  0.00    +0.162 C 
ATOM      6  C   UNL     1       0.609   3.886   0.303  0.00  0.00    +0.141 C 
ATOM      7  S   UNL     1      -0.937   3.223   0.854  0.00  0.00    +0.076 S 
ATOM      8  O   UNL     1      -0.762   2.829   2.208  0.00  0.00    -0.150 OA
ATOM      9  O   UNL     1      -1.949   4.131   0.442  0.00  0.00    -0.150 OA
ATOM     10  N   UNL     1      -1.139   1.830  -0.036  0.00  0.00    -0.198 N 
ATOM     11  C   UNL     1      -0.004   1.035  -0.239  0.00  0.00    +0.062 A 
ATOM     12  C   UNL     1       1.271   1.599  -0.304  0.00  0.00    +0.042 A 
ATOM     13  C   UNL     1       2.377   0.759  -0.484  0.00  0.00    +0.013 A 
ATOM     14  C   UNL     1       2.203  -0.602  -0.604  0.00  0.00    +0.001 A 
ATOM     15  C   UNL     1       0.934  -1.154  -0.546  0.00  0.00    +0.002 A 
ATOM     16  C   UNL     1      -0.166  -0.339  -0.364  0.00  0.00    +0.025 A 
ENDROOT
BRANCH   1  20
ATOM     17  C   UNL     1       1.806   6.345   4.465  0.00  0.00    +0.059 A 
ATOM     18  C   UNL     1       0.687   6.910   3.851  0.00  0.00    +0.015 A 
ATOM     19  C   UNL     1       0.387   6.589   2.543  0.00  0.00    +0.005 A 
ATOM     20  C   UNL     1       1.192   5.710   1.841  0.00  0.00    -0.033 A 
ATOM     21  C   UNL     1       2.300   5.143   2.445  0.00  0.00    +0.005 A 
ATOM     22  C   UNL     1       2.615   5.460   3.750  0.00  0.00    +0.015 A 
BRANCH  17  23
ATOM     23  C   UNL     1       2.134   6.684   5.865  0.00  0.00    +0.339 C 
ATOM     24  O   UNL     1       1.428   7.454   6.485  0.00  0.00    -0.245 OA
BRANCH  23  26
ATOM     25  C   UNL     1       3.475   6.515   7.833  0.00  0.00    +0.280 C 
ATOM     26  O   UNL     1       3.214   6.137   6.455  0.00  0.00    -0.464 OA
ENDBRANCH  23  26
ENDBRANCH  17  23
ENDBRANCH   1  20
BRANCH   3  27
ATOM     27  N   UNL     1       3.898   5.211  -1.763  0.00  0.00    -0.328 N 
ATOM     28  H   UNL     1       4.601   4.459  -2.150  0.00  0.00    +0.145 HD
ATOM     29  H   UNL     1       4.025   6.271  -2.028  0.00  0.00    +0.145 HD
ENDBRANCH   3  27
BRANCH   2  30
ATOM     30  C   UNL     1       2.184   7.141  -0.831  0.00  0.00    +0.101 C 
ATOM     31  N   UNL     1       2.328   8.232  -1.111  0.00  0.00    -0.191 NA
ENDBRANCH   2  30
BRANCH  10  32
ATOM     32  C   UNL     1      -2.445   1.453  -0.583  0.00  0.00    +0.166 C 
BRANCH  32  33
ATOM     33  C   UNL     1      -2.536   1.900  -2.019  0.00  0.00    -0.028 A 
ATOM     34  C   UNL     1      -3.138   3.105  -2.330  0.00  0.00    +0.008 A 
ATOM     35  C   UNL     1      -3.218   3.519  -3.646  0.00  0.00    +0.038 A 
ATOM     36  C   UNL     1      -2.705   2.720  -4.654  0.00  0.00    +0.123 A 
ATOM     37  C   UNL     1      -2.108   1.511  -4.342  0.00  0.00    +0.038 A 
ATOM     38  C   UNL     1      -2.024   1.102  -3.025  0.00  0.00    +0.008 A 
ATOM     39  F   UNL     1      -2.787   3.121  -5.942  0.00  0.00    -0.205 F 
ENDBRANCH  32  33
ENDBRANCH  10  32
TORSDOF 7
