REMARK  Name = ZINC65021828
REMARK  6 active torsions:
REMARK  status: ('A' for Active; 'I' for Inactive)
REMARK    1  A    between atoms: C_1  and  C_2
REMARK    2  A    between atoms: C_5  and  N_9
REMARK    3  A    between atoms: C_6  and  C_8
REMARK    4  A    between atoms: N_9  and  S_10
REMARK    5  A    between atoms: S_10  and  C_13
REMARK    6  A    between atoms: C_22  and  C_25
REMARK                            x       y       z     vdW  Elec       q    Type
REMARK                         _______ _______ _______ _____ _____    ______ ____
ROOT
ATOM      1  C   UNL     1       2.774  -4.003  -1.496  0.00  0.00    +0.110 A 
ATOM      2  C   UNL     1       3.554  -3.016  -2.069  0.00  0.00    +0.030 A 
ATOM      3  C   UNL     1       4.920  -3.004  -1.851  0.00  0.00    +0.018 A 
ATOM      4  C   UNL     1       5.501  -3.983  -1.062  0.00  0.00    +0.030 A 
ATOM      5  C   UNL     1       4.722  -4.986  -0.487  0.00  0.00    +0.049 A 
ATOM      6  C   UNL     1       3.348  -4.979  -0.705  0.00  0.00    +0.053 A 
ATOM      7  N   UNL     1       5.280  -5.996   0.292  0.00  0.00    -0.283 N 
ATOM      8  C   UNL     1       6.563  -6.334   0.352  0.00  0.00    +0.240 C 
ATOM      9  O   UNL     1       6.903  -7.167   1.166  0.00  0.00    -0.274 OA
ATOM     10  C   UNL     1       7.618  -5.734  -0.542  0.00  0.00    +0.223 C 
ATOM     11  S   UNL     1       7.243  -3.969  -0.770  0.00  0.00    -0.101 S 
ATOM     12  H   UNL     1       4.669  -6.506   0.847  0.00  0.00    +0.155 HD
ENDROOT
BRANCH  10  13
ATOM     13  C   UNL     1       7.609  -6.435  -1.876  0.00  0.00    +0.238 C 
ATOM     14  O   UNL     1       6.575  -6.892  -2.314  0.00  0.00    -0.274 OA
ATOM     15  N   UNL     1       8.751  -6.553  -2.582  0.00  0.00    -0.300 N 
ATOM     16  C   UNL     1       9.944  -5.903  -2.085  0.00  0.00    +0.108 C 
ATOM     17  C   UNL     1      10.021  -4.462  -2.645  0.00  0.00    +0.019 C 
ATOM     18  C   UNL     1      10.336  -4.488  -4.082  0.00  0.00    +0.002 C 
ATOM     19  C   UNL     1       9.279  -5.171  -4.944  0.00  0.00    +0.002 C 
ATOM     20  C   UNL     1       9.530  -6.659  -4.958  0.00  0.00    +0.019 C 
ATOM     21  C   UNL     1       8.734  -7.345  -3.827  0.00  0.00    +0.108 C 
ENDBRANCH  10  13
BRANCH   1  22
ATOM     22  S   UNL     1       1.033  -4.012  -1.771  0.00  0.00    +0.072 S 
ATOM     23  O   UNL     1       0.597  -5.348  -1.568  0.00  0.00    -0.150 OA
ATOM     24  O   UNL     1       0.811  -3.314  -2.989  0.00  0.00    -0.150 OA
BRANCH  22  25
ATOM     25  N   UNL     1       0.344  -3.101  -0.572  0.00  0.00    -0.216 N 
ATOM     26  H   UNL     1      -0.301  -3.503   0.032  0.00  0.00    +0.174 HD
BRANCH  25  31
ATOM     27  C   UNL     1       1.747   2.363   0.004  0.00  0.00    +0.044 C 
ATOM     28  C   UNL     1       1.374   0.911  -0.149  0.00  0.00    -0.050 A 
ATOM     29  C   UNL     1       1.294   0.348  -1.410  0.00  0.00    +0.005 A 
ATOM     30  C   UNL     1       0.953  -0.982  -1.554  0.00  0.00    +0.025 A 
ATOM     31  C   UNL     1       0.690  -1.756  -0.430  0.00  0.00    +0.051 A 
ATOM     32  C   UNL     1       0.771  -1.187   0.835  0.00  0.00    -0.028 A 
ATOM     33  C   UNL     1       1.118   0.142   0.972  0.00  0.00    +0.008 A 
ATOM     34  C   UNL     1       0.485  -2.022   2.057  0.00  0.00    +0.046 C 
ENDBRANCH  25  31
ENDBRANCH  22  25
ENDBRANCH   1  22
TORSDOF 4
