REMARK  Name = ZINC35711966
REMARK  14 active torsions:
REMARK  status: ('A' for Active; 'I' for Inactive)
REMARK    1  A    between atoms: C_1  and  C_2
REMARK    2  A    between atoms: C_2  and  C_3
REMARK    3  A    between atoms: C_3  and  N_4
REMARK    4  A    between atoms: C_5  and  C_36
REMARK    5  A    between atoms: C_6  and  C_32
REMARK    6  A    between atoms: C_7  and  C_12
REMARK    7  A    between atoms: C_15  and  N_18
REMARK    8  A    between atoms: N_21  and  C_22
REMARK    9  A    between atoms: C_24  and  O_30
REMARK   10  A    between atoms: C_26  and  O_28
REMARK   11  A    between atoms: O_28  and  C_29
REMARK   12  A    between atoms: O_30  and  C_31
REMARK   13  A    between atoms: C_32  and  O_34
REMARK   14  A    between atoms: O_34  and  C_35
REMARK                            x       y       z     vdW  Elec       q    Type
REMARK                         _______ _______ _______ _____ _____    ______ ____
ROOT
ATOM      1  C   UNL     1      -0.027  -5.596   0.255  0.00  0.00    -0.022 A 
ATOM      2  C   UNL     1      -0.561  -5.020  -0.883  0.00  0.00    +0.007 A 
ATOM      3  C   UNL     1      -1.298  -5.786  -1.765  0.00  0.00    +0.024 A 
ATOM      4  C   UNL     1      -1.502  -7.136  -1.508  0.00  0.00    +0.035 A 
ATOM      5  C   UNL     1      -0.965  -7.710  -0.364  0.00  0.00    +0.024 A 
ATOM      6  C   UNL     1      -0.224  -6.941   0.511  0.00  0.00    +0.007 A 
ENDROOT
BRANCH   1  10
ATOM      7  N   UNL     1       0.823  -1.994   1.320  0.00  0.00    -0.259 N 
ATOM      8  C   UNL     1      -0.108  -2.639   2.084  0.00  0.00    +0.024 C 
ATOM      9  C   UNL     1      -0.194  -3.986   2.087  0.00  0.00    +0.078 C 
ATOM     10  C   UNL     1       0.777  -4.757   1.215  0.00  0.00    +0.143 C 
ATOM     11  N   UNL     1       1.740  -3.968   0.430  0.00  0.00    -0.288 N 
ATOM     12  C   UNL     1       1.700  -2.624   0.529  0.00  0.00    +0.307 C 
ATOM     13  O   UNL     1       2.489  -1.963  -0.118  0.00  0.00    -0.252 OA
ATOM     14  C   UNL     1      -1.054  -1.833   2.937  0.00  0.00    +0.061 C 
ATOM     15  H   UNL     1       2.387  -4.404  -0.147  0.00  0.00    +0.151 HD
BRANCH   9  16
ATOM     16  C   UNL     1      -1.157  -4.656   2.878  0.00  0.00    +0.339 C 
ATOM     17  O   UNL     1      -1.926  -4.016   3.571  0.00  0.00    -0.245 OA
BRANCH  16  18
ATOM     18  O   UNL     1      -1.222  -6.004   2.864  0.00  0.00    -0.465 OA
ATOM     19  C   UNL     1      -2.219  -6.613   3.687  0.00  0.00    +0.280 C 
ENDBRANCH  16  18
ENDBRANCH   9  16
BRANCH   7  20
ATOM     20  C   UNL     1       0.860  -0.530   1.365  0.00  0.00    +0.114 C 
BRANCH  20  22
ATOM     21  C   UNL     1       1.738   1.451   2.608  0.00  0.00    +0.005 C 
ATOM     22  C   UNL     1       1.700  -0.077   2.561  0.00  0.00    +0.016 C 
ENDBRANCH  20  22
ENDBRANCH   7  20
ENDBRANCH   1  10
BRANCH   4  23
ATOM     23  N   UNL     1      -2.249  -7.914  -2.400  0.00  0.00    -0.269 N 
ATOM     24  C   UNL     1      -2.181  -7.674  -3.724  0.00  0.00    +0.308 C 
ATOM     25  O   UNL     1      -1.535  -6.731  -4.139  0.00  0.00    -0.252 OA
ATOM     26  N   UNL     1      -2.829  -8.479  -4.589  0.00  0.00    -0.269 N 
ATOM     27  H   UNL     1      -2.816  -8.626  -2.064  0.00  0.00    +0.156 HD
ATOM     28  H   UNL     1      -3.409  -9.182  -4.256  0.00  0.00    +0.156 HD
BRANCH  26  29
ATOM     29  C   UNL     1      -2.665  -8.302  -5.967  0.00  0.00    +0.042 A 
ATOM     30  C   UNL     1      -1.438  -7.897  -6.474  0.00  0.00    +0.069 A 
ATOM     31  C   UNL     1      -1.276  -7.722  -7.840  0.00  0.00    +0.125 A 
ATOM     32  C   UNL     1      -2.340  -7.950  -8.700  0.00  0.00    +0.091 A 
ATOM     33  C   UNL     1      -3.567  -8.355  -8.194  0.00  0.00    +0.125 A 
ATOM     34  C   UNL     1      -3.728  -8.536  -6.829  0.00  0.00    +0.069 A 
BRANCH  33  35
ATOM     35  O   UNL     1      -4.609  -8.578  -9.037  0.00  0.00    -0.495 OA
ATOM     36  C   UNL     1      -4.370  -8.377 -10.431  0.00  0.00    +0.277 C 
ENDBRANCH  33  35
BRANCH  31  37
ATOM     37  O   UNL     1      -0.075  -7.326  -8.336  0.00  0.00    -0.495 OA
ATOM     38  C   UNL     1       0.021  -7.165  -9.753  0.00  0.00    +0.277 C 
ENDBRANCH  31  37
ENDBRANCH  26  29
ENDBRANCH   4  23
TORSDOF 9
