REMARK  Name = ZINC39609981
REMARK  9 active torsions:
REMARK  status: ('A' for Active; 'I' for Inactive)
REMARK    1  A    between atoms: C_1  and  O_2
REMARK    2  A    between atoms: O_2  and  C_3
REMARK    3  A    between atoms: C_6  and  C_9
REMARK    4  A    between atoms: C_9  and  N_10
REMARK    5  A    between atoms: C_11  and  C_13
REMARK    6  A    between atoms: C_24  and  C_26
REMARK    7  A    between atoms: C_29  and  O_36
REMARK    8  A    between atoms: C_30  and  C_32
REMARK    9  A    between atoms: O_36  and  C_37
REMARK                            x       y       z     vdW  Elec       q    Type
REMARK                         _______ _______ _______ _____ _____    ______ ____
ROOT
ATOM      1  C   UNL     1      -7.038  -3.674  -3.683  0.00  0.00    +0.100 C 
ATOM      2  C   UNL     1      -5.880  -4.595  -4.127  0.00  0.00    +0.121 C 
ATOM      3  N   UNL     1      -6.398  -5.970  -3.931  0.00  0.00    -0.296 N 
ATOM      4  C   UNL     1      -7.814  -5.894  -4.364  0.00  0.00    +0.115 C 
ATOM      5  C   UNL     1      -8.306  -4.529  -3.844  0.00  0.00    -0.004 C 
ATOM      6  C   UNL     1      -9.251  -3.888  -4.855  0.00  0.00    -0.010 C 
ATOM      7  C   UNL     1     -10.530  -4.724  -4.954  0.00  0.00    -0.082 C 
ATOM      8  N   UNL     1     -11.171  -4.801  -3.635  0.00  0.00    +0.379 N 
ATOM      9  C   UNL     1     -10.292  -5.502  -2.692  0.00  0.00    -0.082 C 
ATOM     10  C   UNL     1      -9.003  -4.698  -2.497  0.00  0.00    -0.010 C 
ATOM     11  C   UNL     1      -5.733  -7.045  -3.466  0.00  0.00    +0.247 C 
ATOM     12  O   UNL     1      -4.604  -6.921  -3.031  0.00  0.00    -0.270 OA
ATOM     13  H   UNL     1     -11.350  -3.868  -3.296  0.00  0.00    -0.086 HD
ATOM     14  H   UNL     1     -12.043  -5.300  -3.715  0.00  0.00    -0.086 HD
ENDROOT
BRANCH  11  15
ATOM     15  C   UNL     1      -6.374  -8.375  -3.484  0.00  0.00    +0.038 A 
ATOM     16  C   UNL     1      -7.444  -8.624  -4.347  0.00  0.00    +0.016 A 
ATOM     17  C   UNL     1      -8.040  -9.866  -4.361  0.00  0.00    +0.047 A 
ATOM     18  C   UNL     1      -7.577 -10.870  -3.518  0.00  0.00    +0.132 A 
ATOM     19  C   UNL     1      -6.513 -10.626  -2.658  0.00  0.00    +0.097 A 
ATOM     20  C   UNL     1      -5.909  -9.388  -2.642  0.00  0.00    +0.029 A 
BRANCH  19  21
ATOM     21  C   UNL     1      -6.017 -11.717  -1.746  0.00  0.00    +0.421 C 
ATOM     22  F   UNL     1      -4.948 -11.237  -0.982  0.00  0.00    -0.166 F 
ATOM     23  F   UNL     1      -7.052 -12.123  -0.897  0.00  0.00    -0.166 F 
ATOM     24  F   UNL     1      -5.589 -12.807  -2.513  0.00  0.00    -0.166 F 
ENDBRANCH  19  21
BRANCH  18  25
ATOM     25  O   UNL     1      -8.167 -12.092  -3.535  0.00  0.00    -0.495 OA
ATOM     26  C   UNL     1      -9.255 -12.275  -4.442  0.00  0.00    +0.277 C 
ENDBRANCH  18  25
ENDBRANCH  11  15
BRANCH   1  28
ATOM     27  N   UNL     1      -7.436  -2.134  -1.789  0.00  0.00    -0.311 N 
ATOM     28  C   UNL     1      -6.860  -3.264  -2.244  0.00  0.00    +0.218 C 
ATOM     29  O   UNL     1      -6.199  -3.951  -1.495  0.00  0.00    -0.275 OA
ATOM     30  H   UNL     1      -7.965  -1.584  -2.388  0.00  0.00    +0.149 HD
BRANCH  27  31
ATOM     31  C   UNL     1      -7.263  -1.735  -0.390  0.00  0.00    +0.139 C 
BRANCH  31  35
ATOM     32  C   UNL     1      -9.358   1.922   0.319  0.00  0.00    +0.120 A 
ATOM     33  C   UNL     1     -10.001   0.707   0.502  0.00  0.00    +0.046 A 
ATOM     34  C   UNL     1      -9.322  -0.474   0.272  0.00  0.00    +0.009 A 
ATOM     35  C   UNL     1      -8.002  -0.445  -0.140  0.00  0.00    -0.030 A 
ATOM     36  C   UNL     1      -7.359   0.765  -0.323  0.00  0.00    +0.009 A 
ATOM     37  C   UNL     1      -8.035   1.949  -0.100  0.00  0.00    +0.046 A 
BRANCH  32  39
ATOM     38  C   UNL     1     -11.383   2.982   0.974  0.00  0.00    +0.277 C 
ATOM     39  O   UNL     1     -10.024   3.085   0.544  0.00  0.00    -0.495 OA
ENDBRANCH  32  39
ENDBRANCH  31  35
ENDBRANCH  27  31
ENDBRANCH   1  28
TORSDOF 7
