REMARK  Name = ZINC38306744
REMARK  5 active torsions:
REMARK  status: ('A' for Active; 'I' for Inactive)
REMARK    1  A    between atoms: C_1  and  C_2
REMARK    2  A    between atoms: N_9  and  N_10
REMARK    3  A    between atoms: C_15  and  C_18
REMARK    4  A    between atoms: C_18  and  C_19
REMARK    5  A    between atoms: N_21  and  C_22
REMARK                            x       y       z     vdW  Elec       q    Type
REMARK                         _______ _______ _______ _____ _____    ______ ____
ROOT
ATOM      1  N   UNL     1       0.063  -3.941   4.360  0.00  0.00    -0.126 NA
ATOM      2  C   UNL     1       0.070  -3.733   5.674  0.00  0.00    +0.183 C 
ATOM      3  N   UNL     1       0.058  -2.529   6.317  0.00  0.00    -0.263 N 
ATOM      4  C   UNL     1       0.067  -2.429   7.639  0.00  0.00    +0.233 C 
ATOM      5  O   UNL     1       0.056  -1.370   8.228  0.00  0.00    -0.274 OA
ATOM      6  C   UNL     1       0.091  -3.779   8.342  0.00  0.00    +0.149 C 
ATOM      7  S   UNL     1       0.089  -4.900   6.885  0.00  0.00    -0.075 S 
ATOM      8  H   UNL     1       0.043  -1.717   5.787  0.00  0.00    +0.157 HD
ENDROOT
BRANCH   1  17
ATOM      9  C   UNL     1      -0.017   1.462  -0.017  0.00  0.00    +0.044 C 
ATOM     10  C   UNL     1      -0.003  -0.045  -0.018  0.00  0.00    -0.050 A 
ATOM     11  C   UNL     1      -0.006  -0.736  -1.219  0.00  0.00    +0.005 A 
ATOM     12  C   UNL     1       0.005  -2.116  -1.236  0.00  0.00    +0.024 A 
ATOM     13  C   UNL     1       0.021  -2.829  -0.043  0.00  0.00    +0.043 A 
ATOM     14  C   UNL     1       0.024  -2.126   1.171  0.00  0.00    +0.029 A 
ATOM     15  C   UNL     1       0.018  -0.735   1.177  0.00  0.00    +0.015 A 
ATOM     16  C   UNL     1       0.041  -3.145   2.242  0.00  0.00    +0.157 C 
ATOM     17  N   UNL     1       0.048  -2.939   3.549  0.00  0.00    -0.142 NA
ATOM     18  C   UNL     1       0.046  -4.436   1.542  0.00  0.00    +0.269 C 
ATOM     19  O   UNL     1       0.059  -5.535   2.067  0.00  0.00    -0.268 OA
ATOM     20  N   UNL     1       0.034  -4.193   0.221  0.00  0.00    -0.280 N 
ATOM     21  H   UNL     1       0.034  -4.882  -0.463  0.00  0.00    +0.155 HD
ENDBRANCH   1  17
BRANCH   6  22
ATOM     22  C   UNL     1       1.362  -3.947   9.177  0.00  0.00    +0.120 C 
BRANCH  22  23
ATOM     23  C   UNL     1       1.288  -5.239   9.950  0.00  0.00    +0.219 C 
ATOM     24  O   UNL     1       0.315  -5.955   9.842  0.00  0.00    -0.275 OA
ATOM     25  N   UNL     1       2.303  -5.599  10.760  0.00  0.00    -0.285 N 
ATOM     26  H   UNL     1       3.109  -5.061  10.795  0.00  0.00    +0.155 HD
BRANCH  25  27
ATOM     27  C   UNL     1       2.193  -6.748  11.550  0.00  0.00    +0.033 A 
ATOM     28  C   UNL     1       2.760  -6.777  12.818  0.00  0.00    +0.024 A 
ATOM     29  C   UNL     1       2.650  -7.913  13.596  0.00  0.00    +0.017 A 
ATOM     30  C   UNL     1       1.976  -9.021  13.114  0.00  0.00    +0.018 A 
ATOM     31  C   UNL     1       1.410  -8.995  11.852  0.00  0.00    +0.017 A 
ATOM     32  C   UNL     1       1.513  -7.860  11.071  0.00  0.00    +0.024 A 
ATOM     33 BR   UNL     1       1.828 -10.574  14.182  0.00  0.00    -0.050 Br
ENDBRANCH  25  27
ENDBRANCH  22  23
ENDBRANCH   6  22
TORSDOF 4
