REMARK  Name = ZINC27325765
REMARK  8 active torsions:
REMARK  status: ('A' for Active; 'I' for Inactive)
REMARK    1  A    between atoms: C_1  and  C_2
REMARK    2  A    between atoms: C_2  and  C_39
REMARK    3  A    between atoms: C_7  and  C_21
REMARK    4  A    between atoms: C_8  and  N_11
REMARK    5  A    between atoms: C_14  and  C_19
REMARK    6  A    between atoms: C_19  and  N_20
REMARK    7  A    between atoms: C_21  and  S_22
REMARK    8  A    between atoms: S_22  and  N_25
REMARK                            x       y       z     vdW  Elec       q    Type
REMARK                         _______ _______ _______ _____ _____    ______ ____
ROOT
ATOM      1  C   UNL     1       0.619   3.774   1.371  0.00  0.00    +0.012 C 
ATOM      2  C   UNL     1      -0.767   3.172   1.612  0.00  0.00    -0.023 C 
ATOM      3  C   UNL     1      -0.949   2.739   3.109  0.00  0.00    -0.003 C 
ATOM      4  C   UNL     1       0.150   1.639   3.227  0.00  0.00    +0.005 C 
ATOM      5  C   UNL     1       0.185   0.971   1.833  0.00  0.00    +0.011 C 
ATOM      6  C   UNL     1      -0.896   1.731   1.005  0.00  0.00    +0.016 C 
ATOM      7  C   UNL     1      -2.254   1.261   1.611  0.00  0.00    +0.094 C 
ATOM      8  C   UNL     1      -2.290   1.946   3.040  0.00  0.00    +0.027 C 
ATOM      9  C   UNL     1      -1.881   4.101   1.126  0.00  0.00    +0.012 C 
ENDROOT
BRANCH   7  10
ATOM     10  N   UNL     1      -2.276  -0.197   1.746  0.00  0.00    -0.221 N 
ATOM     11  C   UNL     1      -1.853  -0.863   2.839  0.00  0.00    +0.242 C 
ATOM     12  O   UNL     1      -1.401  -0.387   3.857  0.00  0.00    -0.273 OA
ATOM     13  C   UNL     1      -2.064  -2.332   2.530  0.00  0.00    +0.144 C 
ATOM     14  N   UNL     1      -2.626  -2.323   1.169  0.00  0.00    -0.289 N 
ATOM     15  C   UNL     1      -2.712  -1.033   0.797  0.00  0.00    +0.309 C 
ATOM     16  O   UNL     1      -3.139  -0.668  -0.281  0.00  0.00    -0.252 OA
ATOM     17  H   UNL     1      -2.881  -3.271   0.673  0.00  0.00    +0.151 HD
BRANCH  13  18
ATOM     18  C   UNL     1      -0.731  -3.083   2.557  0.00  0.00    -0.054 C 
BRANCH  18  19
ATOM     19  N   UNL     1      -0.925  -4.444   2.039  0.00  0.00    +0.380 N 
ATOM     20  H   UNL     1       0.033  -4.984   2.058  0.00  0.00    -0.090 HD
ATOM     21  H   UNL     1      -1.297  -4.394   1.005  0.00  0.00    -0.090 HD
ATOM     22  H   UNL     1      -1.657  -4.974   2.666  0.00  0.00    -0.090 HD
ENDBRANCH  18  19
ENDBRANCH  13  18
ENDBRANCH   7  10
BRANCH   6  23
ATOM     23  C   UNL     1      -0.771   1.624  -0.516  0.00  0.00    +0.194 C 
BRANCH  23  24
ATOM     24  S   UNL     1       0.904   1.075  -0.948  0.00  0.00    +0.032 S 
ATOM     25  O   UNL     1       1.825   2.147  -0.794  0.00  0.00    -0.158 OA
ATOM     26  O   UNL     1       1.167  -0.195  -0.368  0.00  0.00    -0.158 OA
BRANCH  24  27
ATOM     27  N   UNL     1       0.852   0.793  -2.579  0.00  0.00    -0.181 NA
ATOM     28  C   UNL     1       0.498  -0.535  -3.097  0.00  0.00    +0.110 C 
ATOM     29  C   UNL     1       1.596  -1.006  -4.050  0.00  0.00    +0.028 C 
ATOM     30  C   UNL     1       1.831   0.057  -5.120  0.00  0.00    -0.001 C 
ATOM     31  C   UNL     1       0.545   0.269  -5.940  0.00  0.00    +0.016 C 
ATOM     32  C   UNL     1       1.100   0.559  -7.351  0.00  0.00    +0.036 C 
ATOM     33  C   UNL     1       2.450  -0.125  -7.395  0.00  0.00    -0.044 A 
ATOM     34  C   UNL     1       2.869  -0.414  -6.109  0.00  0.00    -0.038 A 
ATOM     35  C   UNL     1       4.085  -1.046  -5.908  0.00  0.00    +0.004 A 
ATOM     36  C   UNL     1       4.879  -1.387  -6.986  0.00  0.00    +0.000 A 
ATOM     37  C   UNL     1       4.460  -1.097  -8.271  0.00  0.00    +0.000 A 
ATOM     38  C   UNL     1       3.247  -0.467  -8.474  0.00  0.00    +0.004 A 
ATOM     39  C   UNL     1       2.264   1.374  -4.482  0.00  0.00    +0.028 C 
ATOM     40  C   UNL     1       1.165   1.865  -3.534  0.00  0.00    +0.110 C 
ENDBRANCH  24  27
ENDBRANCH  23  24
ENDBRANCH   6  23
TORSDOF 6
