REMARK  Name = ZINC39636036
REMARK  6 active torsions:
REMARK  status: ('A' for Active; 'I' for Inactive)
REMARK    1  A    between atoms: C_1  and  C_2
REMARK    2  A    between atoms: C_8  and  N_10
REMARK    3  A    between atoms: C_11  and  C_13
REMARK    4  A    between atoms: C_24  and  C_26
REMARK    5  A    between atoms: C_31  and  O_32
REMARK    6  A    between atoms: O_32  and  C_33
REMARK                            x       y       z     vdW  Elec       q    Type
REMARK                         _______ _______ _______ _____ _____    ______ ____
ROOT
ATOM      1  C   UNL     1       4.386   1.174   2.279  0.00  0.00    +0.100 C 
ATOM      2  C   UNL     1       5.183   0.009   1.651  0.00  0.00    +0.121 C 
ATOM      3  N   UNL     1       6.418  -0.081   2.465  0.00  0.00    -0.296 N 
ATOM      4  C   UNL     1       5.963   0.161   3.855  0.00  0.00    +0.115 C 
ATOM      5  C   UNL     1       4.900   1.270   3.726  0.00  0.00    -0.004 C 
ATOM      6  C   UNL     1       3.760   1.025   4.709  0.00  0.00    -0.010 C 
ATOM      7  C   UNL     1       4.282   1.183   6.140  0.00  0.00    -0.082 C 
ATOM      8  N   UNL     1       4.826   2.535   6.317  0.00  0.00    +0.379 N 
ATOM      9  C   UNL     1       5.981   2.730   5.433  0.00  0.00    -0.082 C 
ATOM     10  C   UNL     1       5.530   2.637   3.973  0.00  0.00    -0.010 C 
ATOM     11  C   UNL     1       7.673  -0.327   2.038  0.00  0.00    +0.252 C 
ATOM     12  O   UNL     1       8.574  -0.463   2.844  0.00  0.00    -0.270 OA
ATOM     13  H   UNL     1       4.114   3.214   6.093  0.00  0.00    -0.086 HD
ATOM     14  H   UNL     1       5.113   2.657   7.277  0.00  0.00    -0.086 HD
ENDROOT
BRANCH  11  15
ATOM     15  C   UNL     1       7.953  -0.430   0.594  0.00  0.00    +0.099 A 
ATOM     16  C   UNL     1       7.010  -0.987  -0.278  0.00  0.00    +0.020 A 
ATOM     17  C   UNL     1       7.321  -1.061  -1.623  0.00  0.00    +0.021 A 
ATOM     18  C   UNL     1       8.543  -0.586  -2.066  0.00  0.00    +0.114 A 
ATOM     19  N   UNL     1       9.418  -0.065  -1.228  0.00  0.00    -0.220 NA
ATOM     20  C   UNL     1       9.168   0.034   0.067  0.00  0.00    +0.233 A 
BRANCH  20  21
ATOM     21  O   UNL     1      10.094   0.582   0.890  0.00  0.00    -0.437 OA
BRANCH  21  22
ATOM     22  C   UNL     1      11.295   0.929   0.359  0.00  0.00    +0.130 A 
ATOM     23  C   UNL     1      11.417   2.101  -0.374  0.00  0.00    +0.048 A 
ATOM     24  C   UNL     1      12.639   2.453  -0.913  0.00  0.00    +0.023 A 
ATOM     25  C   UNL     1      13.741   1.637  -0.723  0.00  0.00    +0.041 A 
ATOM     26  C   UNL     1      13.621   0.468   0.007  0.00  0.00    +0.023 A 
ATOM     27  C   UNL     1      12.402   0.116   0.553  0.00  0.00    +0.048 A 
ATOM     28 CL   UNL     1      15.276   2.082  -1.402  0.00  0.00    -0.084 Cl
ENDBRANCH  21  22
ENDBRANCH  20  21
ENDBRANCH  11  15
BRANCH   1  30
ATOM     29  N   UNL     1       2.014   1.873   2.206  0.00  0.00    -0.312 N 
ATOM     30  C   UNL     1       2.911   0.868   2.266  0.00  0.00    +0.218 C 
ATOM     31  O   UNL     1       2.530  -0.283   2.309  0.00  0.00    -0.275 OA
ATOM     32  H   UNL     1       2.319   2.793   2.172  0.00  0.00    +0.149 HD
BRANCH  29  39
ATOM     33  C   UNL     1       0.252   3.065   4.171  0.00  0.00    +0.009 C 
ATOM     34  C   UNL     1      -0.195   2.776   2.737  0.00  0.00    +0.006 C 
ATOM     35  C   UNL     1      -1.693   2.465   2.724  0.00  0.00    +0.005 C 
ATOM     36  C   UNL     1      -2.141   2.176   1.289  0.00  0.00    +0.000 C 
ATOM     37  C   UNL     1      -1.366   0.975   0.745  0.00  0.00    +0.002 C 
ATOM     38  C   UNL     1       0.132   1.286   0.759  0.00  0.00    +0.022 C 
ATOM     39  C   UNL     1       0.580   1.575   2.193  0.00  0.00    +0.076 C 
ENDBRANCH  29  39
ENDBRANCH   1  30
TORSDOF 5
