REMARK  Name = ZINC20725280
REMARK  5 active torsions:
REMARK  status: ('A' for Active; 'I' for Inactive)
REMARK    1  A    between atoms: C_1  and  O_2
REMARK    2  A    between atoms: O_2  and  C_3
REMARK    3  A    between atoms: C_3  and  C_5
REMARK    4  A    between atoms: C_8  and  N_11
REMARK    5  A    between atoms: C_23  and  C_25
REMARK                            x       y       z     vdW  Elec       q    Type
REMARK                         _______ _______ _______ _____ _____    ______ ____
ROOT
ATOM      1  N   UNL     1      -0.698  -7.231  -0.237  0.00  0.00    -0.269 N 
ATOM      2  C   UNL     1      -1.998  -7.447   0.046  0.00  0.00    +0.307 C 
ATOM      3  O   UNL     1      -2.734  -6.508   0.281  0.00  0.00    -0.252 OA
ATOM      4  N   UNL     1      -2.483  -8.704   0.067  0.00  0.00    -0.272 N 
ATOM      5  C   UNL     1      -1.581  -9.862  -0.024  0.00  0.00    +0.116 C 
ATOM      6  C   UNL     1      -1.872 -10.627  -1.321  0.00  0.00    +0.076 C 
ATOM      7  C   UNL     1      -3.365 -10.780  -1.471  0.00  0.00    +0.066 A 
ATOM      8  C   UNL     1      -4.278 -10.037  -0.810  0.00  0.00    +0.064 A 
ATOM      9  N   UNL     1      -5.508 -10.460  -1.208  0.00  0.00    -0.346 N 
ATOM     10  H   UNL     1      -6.362 -10.114  -0.907  0.00  0.00    +0.167 HD
ATOM     11  C   UNL     1      -5.311 -11.456  -2.103  0.00  0.00    +0.197 A 
ATOM     12  N   UNL     1      -4.026 -11.640  -2.253  0.00  0.00    -0.240 NA
ATOM     13  C   UNL     1      -3.931  -8.955   0.188  0.00  0.00    +0.158 C 
ATOM     14  H   UNL     1      -0.119  -7.976  -0.459  0.00  0.00    +0.156 HD
ENDROOT
BRANCH  13  15
ATOM     15  C   UNL     1      -4.256  -9.416   1.585  0.00  0.00    -0.003 A 
ATOM     16  C   UNL     1      -4.218 -10.762   1.896  0.00  0.00    +0.009 A 
ATOM     17  C   UNL     1      -4.516 -11.186   3.177  0.00  0.00    +0.020 A 
ATOM     18  C   UNL     1      -4.854 -10.262   4.150  0.00  0.00    +0.042 A 
ATOM     19  C   UNL     1      -4.892  -8.914   3.841  0.00  0.00    +0.040 A 
ATOM     20  C   UNL     1      -4.588  -8.491   2.559  0.00  0.00    +0.048 A 
ATOM     21 CL   UNL     1      -4.630  -6.799   2.171  0.00  0.00    -0.083 Cl
ATOM     22 CL   UNL     1      -5.229 -10.794   5.760  0.00  0.00    -0.083 Cl
ENDBRANCH  13  15
BRANCH   1  26
ATOM     23  C   UNL     1       0.834  -3.358  -0.155  0.00  0.00    +0.059 A 
ATOM     24  C   UNL     1       1.672  -4.449   0.096  0.00  0.00    +0.017 A 
ATOM     25  C   UNL     1       1.162  -5.727   0.068  0.00  0.00    +0.024 A 
ATOM     26  C   UNL     1      -0.186  -5.934  -0.210  0.00  0.00    +0.035 A 
ATOM     27  C   UNL     1      -1.023  -4.851  -0.460  0.00  0.00    +0.024 A 
ATOM     28  C   UNL     1      -0.521  -3.570  -0.428  0.00  0.00    +0.017 A 
BRANCH  23  29
ATOM     29  C   UNL     1       1.376  -1.987  -0.126  0.00  0.00    +0.339 C 
ATOM     30  O   UNL     1       0.645  -1.040  -0.339  0.00  0.00    -0.245 OA
BRANCH  29  32
ATOM     31  C   UNL     1       3.139  -0.431   0.150  0.00  0.00    +0.280 C 
ATOM     32  O   UNL     1       2.682  -1.785   0.137  0.00  0.00    -0.464 OA
ENDBRANCH  29  32
ENDBRANCH  23  29
ENDBRANCH   1  26
TORSDOF 4
