REMARK  Name = ZINC66086679
REMARK  13 active torsions:
REMARK  status: ('A' for Active; 'I' for Inactive)
REMARK    1  A    between atoms: C_1  and  C_2
REMARK    2  A    between atoms: C_2  and  C_3
REMARK    3  A    between atoms: C_3  and  C_4
REMARK    4  A    between atoms: N_6  and  C_7
REMARK    5  A    between atoms: C_11  and  N_13
REMARK    6  A    between atoms: C_14  and  C_16
REMARK    7  A    between atoms: C_16  and  N_17
REMARK    8  A    between atoms: N_17  and  C_18
REMARK    9  A    between atoms: C_21  and  C_24
REMARK   10  A    between atoms: N_26  and  C_27
REMARK   11  A    between atoms: C_27  and  C_29
REMARK   12  A    between atoms: C_27  and  C_30
REMARK   13  A    between atoms: C_30  and  C_31
REMARK                            x       y       z     vdW  Elec       q    Type
REMARK                         _______ _______ _______ _____ _____    ______ ____
ROOT
ATOM      1  N   UNL     1       2.552  -6.619   4.618  0.00  0.00    -0.283 N 
ATOM      2  C   UNL     1       3.029  -5.868   5.630  0.00  0.00    +0.234 C 
ATOM      3  O   UNL     1       3.025  -4.658   5.541  0.00  0.00    -0.274 OA
ATOM      4  H   UNL     1       2.615  -7.586   4.661  0.00  0.00    +0.155 HD
ENDROOT
BRANCH   1   9
ATOM      5  C   UNL     1       1.864  -4.179   1.949  0.00  0.00    +0.035 A 
ATOM      6  C   UNL     1       0.800  -4.794   1.301  0.00  0.00    +0.025 A 
ATOM      7  C   UNL     1       0.323  -6.008   1.754  0.00  0.00    +0.023 A 
ATOM      8  C   UNL     1       0.902  -6.616   2.853  0.00  0.00    +0.062 A 
ATOM      9  C   UNL     1       1.967  -6.005   3.506  0.00  0.00    +0.054 A 
ATOM     10  C   UNL     1       2.451  -4.787   3.049  0.00  0.00    +0.048 A 
ATOM     11 CL   UNL     1       0.299  -8.142   3.419  0.00  0.00    -0.082 Cl
BRANCH   5  14
ATOM     12  C   UNL     1       1.494  -2.037   0.980  0.00  0.00    +0.217 C 
ATOM     13  O   UNL     1       0.322  -2.314   0.844  0.00  0.00    -0.275 OA
ATOM     14  N   UNL     1       2.347  -2.948   1.489  0.00  0.00    -0.285 N 
ATOM     15  H   UNL     1       3.296  -2.751   1.537  0.00  0.00    +0.155 HD
BRANCH  12  16
ATOM     16  C   UNL     1       1.998  -0.674   0.581  0.00  0.00    +0.096 C 
BRANCH  16  18
ATOM     17  C   UNL     1       1.347   1.544  -0.369  0.00  0.00    +0.004 C 
ATOM     18  C   UNL     1       0.836   0.160   0.037  0.00  0.00    +0.006 C 
ENDBRANCH  16  18
ENDBRANCH  12  16
ENDBRANCH   5  14
ENDBRANCH   1   9
BRANCH   2  19
ATOM     19  C   UNL     1       3.566  -6.530   6.873  0.00  0.00    +0.198 C 
BRANCH  19  20
ATOM     20  N   UNL     1       4.019  -5.504   7.816  0.00  0.00    -0.335 N 
ATOM     21  H   UNL     1       3.944  -4.565   7.585  0.00  0.00    +0.147 HD
BRANCH  20  22
ATOM     22  C   UNL     1       4.558  -5.877   9.043  0.00  0.00    +0.028 A 
ATOM     23  C   UNL     1       4.670  -7.225   9.371  0.00  0.00    +0.023 A 
ATOM     24  C   UNL     1       5.203  -7.597  10.584  0.00  0.00    +0.015 A 
ATOM     25  C   UNL     1       5.631  -6.620  11.487  0.00  0.00    +0.037 A 
ATOM     26  C   UNL     1       5.516  -5.267  11.154  0.00  0.00    +0.015 A 
ATOM     27  C   UNL     1       4.988  -4.901   9.937  0.00  0.00    +0.023 A 
BRANCH  25  28
ATOM     28  C   UNL     1       6.202  -7.015  12.789  0.00  0.00    +0.244 C 
ATOM     29  O   UNL     1       6.301  -8.192  13.077  0.00  0.00    -0.270 OA
ATOM     30  N   UNL     1       6.614  -6.072  13.658  0.00  0.00    -0.309 N 
ATOM     31  H   UNL     1       6.535  -5.133  13.428  0.00  0.00    +0.149 HD
BRANCH  30  32
ATOM     32  C   UNL     1       7.181  -6.464  14.951  0.00  0.00    +0.070 C 
ATOM     33  C   UNL     1       8.674  -6.755  14.786  0.00  0.00    +0.028 C 
BRANCH  32  34
ATOM     34  C   UNL     1       6.992  -5.328  15.957  0.00  0.00    +0.018 C 
ATOM     35  C   UNL     1       5.498  -5.120  16.217  0.00  0.00    +0.005 C 
ENDBRANCH  32  34
ENDBRANCH  30  32
ENDBRANCH  25  28
ENDBRANCH  20  22
ENDBRANCH  19  20
ENDBRANCH   2  19
TORSDOF 10
