REMARK  Name = ZINC39661369
REMARK  4 active torsions:
REMARK  status: ('A' for Active; 'I' for Inactive)
REMARK    1  A    between atoms: C_5  and  C_7
REMARK    2  A    between atoms: C_10  and  C_12
REMARK    3  A    between atoms: C_16  and  C_25
REMARK    4  A    between atoms: N_27  and  C_28
REMARK                            x       y       z     vdW  Elec       q    Type
REMARK                         _______ _______ _______ _____ _____    ______ ____
ROOT
ATOM      1  C   UNL     1       2.179  -5.013  -1.313  0.00  0.00    +0.282 C 
ATOM      2  O   UNL     1       1.800  -6.097  -0.908  0.00  0.00    -0.267 OA
ATOM      3  N   UNL     1       3.076  -4.945  -2.317  0.00  0.00    -0.294 N 
ATOM      4  C   UNL     1       3.656  -3.730  -2.935  0.00  0.00    +0.121 C 
ATOM      5  C   UNL     1       5.138  -4.088  -3.184  0.00  0.00    +0.100 C 
ATOM      6  C   UNL     1       5.163  -5.624  -3.261  0.00  0.00    -0.004 C 
ATOM      7  C   UNL     1       3.709  -6.069  -3.047  0.00  0.00    +0.115 C 
ATOM      8  C   UNL     1       5.659  -6.077  -4.631  0.00  0.00    -0.010 C 
ATOM      9  C   UNL     1       5.731  -7.606  -4.664  0.00  0.00    -0.082 C 
ATOM     10  N   UNL     1       6.639  -8.078  -3.612  0.00  0.00    +0.379 N 
ATOM     11  C   UNL     1       6.106  -7.719  -2.292  0.00  0.00    -0.082 C 
ATOM     12  C   UNL     1       6.051  -6.194  -2.159  0.00  0.00    -0.010 C 
ATOM     13  H   UNL     1       6.731  -9.081  -3.674  0.00  0.00    -0.086 HD
ATOM     14  H   UNL     1       7.545  -7.651  -3.735  0.00  0.00    -0.086 HD
ENDROOT
BRANCH   1  18
ATOM     15  C   UNL     1       1.325  -1.652  -0.293  0.00  0.00    +0.139 A 
ATOM     16  C   UNL     1       0.538  -2.352   0.577  0.00  0.00    +0.051 A 
ATOM     17  C   UNL     1       0.746  -3.710   0.318  0.00  0.00    +0.055 A 
ATOM     18  C   UNL     1       1.661  -3.784  -0.709  0.00  0.00    +0.190 A 
ATOM     19  O   UNL     1       1.993  -2.525  -1.066  0.00  0.00    -0.450 OA
BRANCH  15  24
ATOM     20  C   UNL     1       0.358   1.968  -0.522  0.00  0.00    +0.001 A 
ATOM     21  C   UNL     1       1.600   2.580  -0.528  0.00  0.00    +0.003 A 
ATOM     22  C   UNL     1       2.753   1.820  -0.458  0.00  0.00    +0.039 A 
ATOM     23  C   UNL     1       2.672   0.442  -0.381  0.00  0.00    +0.134 A 
ATOM     24  C   UNL     1       1.421  -0.181  -0.374  0.00  0.00    +0.052 A 
ATOM     25  C   UNL     1       0.261   0.595  -0.446  0.00  0.00    +0.014 A 
ATOM     26  F   UNL     1       3.799  -0.300  -0.312  0.00  0.00    -0.205 F 
ENDBRANCH  15  24
ENDBRANCH   1  18
BRANCH   5  27
ATOM     27  C   UNL     1       5.994  -3.604  -2.042  0.00  0.00    +0.219 C 
ATOM     28  O   UNL     1       5.537  -3.556  -0.919  0.00  0.00    -0.275 OA
ATOM     29  N   UNL     1       7.268  -3.225  -2.267  0.00  0.00    -0.304 N 
ATOM     30  H   UNL     1       7.633  -3.264  -3.164  0.00  0.00    +0.149 HD
BRANCH  29  31
ATOM     31  C   UNL     1       8.099  -2.755  -1.157  0.00  0.00    +0.151 C 
ATOM     32  C   UNL     1       9.164  -1.801  -1.702  0.00  0.00    +0.042 C 
ATOM     33  C   UNL     1      10.338  -1.780  -0.694  0.00  0.00    +0.079 C 
ATOM     34  S   UNL     1      10.242  -3.465   0.024  0.00  0.00    -0.086 S 
ATOM     35  C   UNL     1       8.712  -3.947  -0.462  0.00  0.00    +0.209 C 
ATOM     36  O   UNL     1       8.201  -5.034  -0.289  0.00  0.00    -0.283 OA
ENDBRANCH  29  31
ENDBRANCH   5  27
TORSDOF 4
