REMARK  Name = ZINC10000733
REMARK  10 active torsions:
REMARK  status: ('A' for Active; 'I' for Inactive)
REMARK    1  A    between atoms: C_1  and  C_2
REMARK    2  A    between atoms: C_2  and  C_3
REMARK    3  A    between atoms: C_2  and  C_4
REMARK    4  A    between atoms: C_4  and  C_6
REMARK    5  A    between atoms: C_4  and  N_24
REMARK    6  A    between atoms: N_8  and  N_9
REMARK    7  A    between atoms: C_10  and  C_11
REMARK    8  A    between atoms: N_13  and  C_20
REMARK    9  A    between atoms: C_20  and  C_21
REMARK   10  A    between atoms: C_25  and  C_27
REMARK                            x       y       z     vdW  Elec       q    Type
REMARK                         _______ _______ _______ _____ _____    ______ ____
ROOT
ATOM      1  C   UNL     1      -0.719  -5.870  -0.336  0.00  0.00    +0.253 C 
ATOM      2  O   UNL     1      -0.088  -6.670   0.323  0.00  0.00    -0.272 OA
ATOM      3  N   UNL     1      -0.122  -4.749  -0.786  0.00  0.00    -0.205 N 
ATOM      4  H   UNL     1      -0.605  -4.144  -1.370  0.00  0.00    +0.177 HD
ENDROOT
BRANCH   3   5
ATOM      5  N   UNL     1       1.196  -4.458  -0.411  0.00  0.00    -0.188 NA
ATOM      6  C   UNL     1       1.811  -3.440  -0.934  0.00  0.00    +0.140 C 
BRANCH   6   7
ATOM      7  C   UNL     1       1.210  -2.722  -2.069  0.00  0.00    +0.020 A 
ATOM      8  C   UNL     1       0.258  -3.194  -2.918  0.00  0.00    +0.096 A 
ATOM      9  N   UNL     1      -0.047  -2.240  -3.843  0.00  0.00    -0.337 N 
ATOM     10  C   UNL     1       0.708  -1.107  -3.628  0.00  0.00    +0.050 A 
ATOM     11  C   UNL     1       1.523  -1.351  -2.510  0.00  0.00    +0.009 A 
ATOM     12  C   UNL     1       2.398  -0.366  -2.056  0.00  0.00    +0.010 A 
ATOM     13  C   UNL     1       2.456   0.847  -2.706  0.00  0.00    +0.001 A 
ATOM     14  C   UNL     1       1.648   1.091  -3.808  0.00  0.00    +0.002 A 
ATOM     15  C   UNL     1       0.778   0.126  -4.267  0.00  0.00    +0.026 A 
BRANCH   9  16
ATOM     16  C   UNL     1      -1.032  -2.399  -4.917  0.00  0.00    +0.217 C 
BRANCH  16  17
ATOM     17  C   UNL     1      -0.334  -2.843  -6.176  0.00  0.00    +0.230 C 
ATOM     18  O   UNL     1       0.867  -3.011  -6.178  0.00  0.00    -0.274 OA
ATOM     19  N   UNL     1      -1.045  -3.054  -7.302  0.00  0.00    -0.328 N 
ATOM     20  H   UNL     1      -2.006  -2.920  -7.301  0.00  0.00    +0.145 HD
ATOM     21  H   UNL     1      -0.596  -3.341  -8.113  0.00  0.00    +0.145 HD
ENDBRANCH  16  17
ENDBRANCH   9  16
ENDBRANCH   6   7
ENDBRANCH   3   5
BRANCH   1  22
ATOM     22  C   UNL     1      -2.170  -6.130  -0.651  0.00  0.00    +0.163 C 
BRANCH  22  23
ATOM     23  N   UNL     1      -2.486  -7.533  -0.373  0.00  0.00    -0.300 N 
ATOM     24  C   UNL     1      -3.509  -8.133  -1.014  0.00  0.00    +0.245 C 
ATOM     25  O   UNL     1      -4.169  -7.510  -1.822  0.00  0.00    -0.270 OA
ATOM     26  H   UNL     1      -1.959  -8.031   0.272  0.00  0.00    +0.150 HD
BRANCH  24  27
ATOM     27  C   UNL     1      -3.828  -9.549  -0.734  0.00  0.00    +0.037 A 
ATOM     28  C   UNL     1      -3.068 -10.269   0.189  0.00  0.00    +0.014 A 
ATOM     29  C   UNL     1      -3.374 -11.588   0.451  0.00  0.00    +0.021 A 
ATOM     30  C   UNL     1      -4.426 -12.201  -0.209  0.00  0.00    +0.041 A 
ATOM     31  C   UNL     1      -5.180 -11.494  -1.130  0.00  0.00    +0.021 A 
ATOM     32  C   UNL     1      -4.887 -10.172  -1.396  0.00  0.00    +0.014 A 
ATOM     33 CL   UNL     1      -4.801 -13.864   0.120  0.00  0.00    -0.084 Cl
ENDBRANCH  24  27
ENDBRANCH  22  23
BRANCH  22  35
ATOM     34  C   UNL     1      -2.691  -5.431   1.690  0.00  0.00    +0.009 C 
ATOM     35  C   UNL     1      -3.049  -5.228   0.217  0.00  0.00    +0.012 C 
ATOM     36  C   UNL     1      -2.816  -3.765  -0.168  0.00  0.00    +0.009 C 
ENDBRANCH  22  35
ENDBRANCH   1  22
TORSDOF 8
