REMARK  Name = ZINC04698228
REMARK  9 active torsions:
REMARK  status: ('A' for Active; 'I' for Inactive)
REMARK    1  A    between atoms: CG1_1  and  CB_2
REMARK    2  A    between atoms: CB_2  and  CG2_3
REMARK    3  A    between atoms: CB_2  and  CA_4
REMARK    4  A    between atoms: CA_4  and  C_6
REMARK    5  A    between atoms: CA_4  and  N_8
REMARK    6  A    between atoms: C_9  and  CA_11
REMARK    7  A    between atoms: CA_11  and  N_18
REMARK    8  A    between atoms: C_12  and  C_13
REMARK    9  A    between atoms: C_19  and  C_21
REMARK                            x       y       z     vdW  Elec       q    Type
REMARK                         _______ _______ _______ _____ _____    ______ ____
ROOT
ATOM      1  CA  UNL     1      -0.677  -2.506   0.282  0.00  0.00    +0.097 C 
ATOM      2  C   UNL     1       0.277  -3.364   0.731  0.00  0.00    +0.043 C 
ENDROOT
BRANCH   2   3
ATOM      3  C   UNL     1      -0.063  -4.707   1.030  0.00  0.00    +0.014 A 
ATOM      4  C   UNL     1       0.749  -5.733   1.496  0.00  0.00    +0.015 A 
ATOM      5  C   UNL     1       0.182  -6.964   1.713  0.00  0.00    +0.008 A 
ATOM      6  C   UNL     1      -1.145  -7.140   1.467  0.00  0.00    +0.046 A 
ATOM      7  S   UNL     1      -1.649  -5.520   0.912  0.00  0.00    -0.097 S 
ENDBRANCH   2   3
BRANCH   1   9
ATOM      8  N   UNL     1      -2.300  -3.510  -1.232  0.00  0.00    -0.297 N 
ATOM      9  C   UNL     1      -2.023  -2.997  -0.016  0.00  0.00    +0.259 C 
ATOM     10  O   UNL     1      -2.893  -2.943   0.834  0.00  0.00    -0.269 OA
ATOM     11  H   UNL     1      -1.592  -3.614  -1.887  0.00  0.00    +0.150 HD
BRANCH   8  12
ATOM     12  CA  UNL     1      -3.670  -3.910  -1.564  0.00  0.00    +0.189 C 
BRANCH  12  14
ATOM     13  CG1 UNL     1      -2.752  -6.178  -2.069  0.00  0.00    +0.009 C 
ATOM     14  CB  UNL     1      -3.635  -5.043  -2.591  0.00  0.00    +0.014 C 
ATOM     15  CG2 UNL     1      -5.054  -5.566  -2.821  0.00  0.00    +0.009 C 
ENDBRANCH  12  14
BRANCH  12  16
ATOM     16  C   UNL     1      -4.411  -2.732  -2.141  0.00  0.00    +0.376 C 
ATOM     17  O   UNL     1      -3.853  -1.667  -2.262  0.00  0.00    -0.244 OA
ATOM     18  OXT UNL     1      -5.692  -2.865  -2.520  0.00  0.00    -0.244 OA
ENDBRANCH  12  16
ENDBRANCH   8  12
ENDBRANCH   1   9
BRANCH   1  19
ATOM     19  N   UNL     1      -0.371  -1.150   0.104  0.00  0.00    -0.277 N 
ATOM     20  C   UNL     1      -1.349  -0.273  -0.198  0.00  0.00    +0.248 C 
ATOM     21  O   UNL     1      -2.480  -0.669  -0.402  0.00  0.00    -0.270 OA
ATOM     22  H   UNL     1       0.544  -0.843   0.199  0.00  0.00    +0.155 HD
BRANCH  20  23
ATOM     23  C   UNL     1      -1.045   1.171  -0.280  0.00  0.00    +0.037 A 
ATOM     24  C   UNL     1       0.251   1.631  -0.041  0.00  0.00    +0.013 A 
ATOM     25  C   UNL     1       0.528   2.979  -0.125  0.00  0.00    +0.001 A 
ATOM     26  C   UNL     1      -0.478   3.877  -0.436  0.00  0.00    +0.000 A 
ATOM     27  C   UNL     1      -1.766   3.430  -0.669  0.00  0.00    +0.001 A 
ATOM     28  C   UNL     1      -2.055   2.083  -0.593  0.00  0.00    +0.013 A 
ENDBRANCH  20  23
ENDBRANCH   1  19
TORSDOF 7
