REMARK  Name = ZINC36595278
REMARK  14 active torsions:
REMARK  status: ('A' for Active; 'I' for Inactive)
REMARK    1  A    between atoms: C_1  and  C_2
REMARK    2  A    between atoms: C_5  and  C_7
REMARK    3  A    between atoms: C_7  and  N_8
REMARK    4  A    between atoms: N_8  and  C_9
REMARK    5  A    between atoms: C_9  and  C_11
REMARK    6  A    between atoms: C_9  and  C_24
REMARK    7  A    between atoms: C_11  and  C_12
REMARK    8  A    between atoms: C_11  and  C_18
REMARK    9  A    between atoms: N_26  and  C_27
REMARK   10  A    between atoms: C_27  and  C_28
REMARK   11  A    between atoms: C_27  and  C_29
REMARK   12  A    between atoms: C_27  and  C_30
REMARK   13  A    between atoms: C_31  and  C_33
REMARK   14  A    between atoms: C_38  and  O_39
REMARK                            x       y       z     vdW  Elec       q    Type
REMARK                         _______ _______ _______ _____ _____    ______ ____
ROOT
ATOM      1  C   UNL     1       3.747  -3.222  -3.254  0.00  0.00    +0.174 C 
ENDROOT
BRANCH   1   2
ATOM      2  C   UNL     1       4.746  -4.203  -3.811  0.00  0.00    +0.235 C 
ATOM      3  O   UNL     1       4.506  -5.392  -3.789  0.00  0.00    -0.274 OA
ATOM      4  N   UNL     1       5.907  -3.759  -4.333  0.00  0.00    -0.309 N 
ATOM      5  H   UNL     1       6.098  -2.809  -4.351  0.00  0.00    +0.149 HD
BRANCH   4   6
ATOM      6  C   UNL     1       6.878  -4.713  -4.875  0.00  0.00    +0.026 C 
ATOM      7  C   UNL     1       6.236  -5.502  -6.018  0.00  0.00    +0.031 C 
ATOM      8  C   UNL     1       8.098  -3.954  -5.401  0.00  0.00    +0.031 C 
ATOM      9  C   UNL     1       7.315  -5.678  -3.771  0.00  0.00    +0.031 C 
ENDBRANCH   4   6
ENDBRANCH   1   2
BRANCH   1  10
ATOM     10  N   UNL     1       2.578  -3.949  -2.750  0.00  0.00    -0.278 N 
ATOM     11  C   UNL     1       2.745  -5.028  -1.961  0.00  0.00    +0.251 C 
ATOM     12  O   UNL     1       1.776  -5.635  -1.548  0.00  0.00    -0.270 OA
BRANCH  11  13
ATOM     13  C   UNL     1       4.104  -5.474  -1.598  0.00  0.00    +0.078 A 
ATOM     14  C   UNL     1       5.181  -4.589  -1.688  0.00  0.00    +0.017 A 
ATOM     15  C   UNL     1       6.447  -5.012  -1.348  0.00  0.00    +0.001 A 
ATOM     16  C   UNL     1       6.658  -6.311  -0.916  0.00  0.00    +0.004 A 
ATOM     17  C   UNL     1       5.603  -7.196  -0.822  0.00  0.00    +0.046 A 
ATOM     18  C   UNL     1       4.320  -6.786  -1.156  0.00  0.00    +0.129 A 
BRANCH  18  19
ATOM     19  O   UNL     1       3.281  -7.653  -1.060  0.00  0.00    -0.506 OA
ATOM     20  H   UNL     1       3.118  -8.162  -1.865  0.00  0.00    +0.292 HD
ENDBRANCH  18  19
ENDBRANCH  11  13
BRANCH  10  21
ATOM     21  C   UNL     1       1.229  -3.501  -3.104  0.00  0.00    +0.183 C 
BRANCH  21  26
ATOM     22  C   UNL     1       0.413  -4.953  -7.865  0.00  0.00    +0.086 C 
ATOM     23  C   UNL     1       0.378  -4.920  -6.359  0.00  0.00    +0.102 A 
ATOM     24  C   UNL     1      -0.259  -5.802  -5.568  0.00  0.00    +0.045 A 
ATOM     25  C   UNL     1      -0.031  -5.396  -4.234  0.00  0.00    +0.046 A 
ATOM     26  C   UNL     1       0.733  -4.289  -4.289  0.00  0.00    +0.122 A 
ATOM     27  O   UNL     1       0.982  -4.010  -5.578  0.00  0.00    -0.463 OA
ENDBRANCH  21  26
ENDBRANCH  10  21
ENDBRANCH   1  10
BRANCH   1  28
ATOM     28  C   UNL     1       3.310  -2.257  -4.358  0.00  0.00    +0.078 C 
BRANCH  28  29
ATOM     29  C   UNL     1       2.655  -1.049  -3.739  0.00  0.00    -0.038 A 
ATOM     30  C   UNL     1       1.583  -0.445  -4.369  0.00  0.00    +0.004 A 
ATOM     31  C   UNL     1       0.982   0.663  -3.801  0.00  0.00    +0.000 A 
ATOM     32  C   UNL     1       1.455   1.167  -2.604  0.00  0.00    +0.000 A 
ATOM     33  C   UNL     1       2.527   0.563  -1.974  0.00  0.00    +0.000 A 
ATOM     34  C   UNL     1       3.124  -0.547  -2.539  0.00  0.00    +0.004 A 
ENDBRANCH  28  29
BRANCH  28  35
ATOM     35  C   UNL     1       4.515  -1.824  -5.153  0.00  0.00    -0.038 A 
ATOM     36  C   UNL     1       5.412  -0.922  -4.611  0.00  0.00    +0.004 A 
ATOM     37  C   UNL     1       6.518  -0.525  -5.340  0.00  0.00    +0.000 A 
ATOM     38  C   UNL     1       6.726  -1.030  -6.610  0.00  0.00    +0.000 A 
ATOM     39  C   UNL     1       5.829  -1.932  -7.151  0.00  0.00    +0.000 A 
ATOM     40  C   UNL     1       4.726  -2.332  -6.421  0.00  0.00    +0.004 A 
ENDBRANCH  28  35
ENDBRANCH   1  28
TORSDOF 10
