REMARK  Name = ZINC35642049
REMARK  13 active torsions:
REMARK  status: ('A' for Active; 'I' for Inactive)
REMARK    1  A    between atoms: C_1  and  C_2
REMARK    2  A    between atoms: C_2  and  O_3
REMARK    3  A    between atoms: O_3  and  C_4
REMARK    4  A    between atoms: C_4  and  C_6
REMARK    5  A    between atoms: C_7  and  C_23
REMARK    6  A    between atoms: N_8  and  C_22
REMARK    7  A    between atoms: C_12  and  C_14
REMARK    8  A    between atoms: C_23  and  N_24
REMARK    9  A    between atoms: C_28  and  C_31
REMARK   10  A    between atoms: C_32  and  C_34
REMARK   11  A    between atoms: C_34  and  C_35
REMARK   12  A    between atoms: C_35  and  C_36
REMARK   13  A    between atoms: C_35  and  C_37
REMARK                            x       y       z     vdW  Elec       q    Type
REMARK                         _______ _______ _______ _____ _____    ______ ____
ROOT
ATOM      1  C   UNL     1       1.862  -2.591  -2.710  0.00  0.00    +0.080 C 
ATOM      2  C   UNL     1       1.972  -3.927  -2.874  0.00  0.00    +0.041 C 
ATOM      3  N   UNL     1       2.456  -4.457  -4.036  0.00  0.00    -0.260 N 
ATOM      4  C   UNL     1       2.852  -3.718  -5.080  0.00  0.00    +0.307 C 
ATOM      5  O   UNL     1       3.269  -4.281  -6.074  0.00  0.00    -0.252 OA
ATOM      6  N   UNL     1       2.802  -2.372  -5.067  0.00  0.00    -0.288 N 
ATOM      7  C   UNL     1       2.289  -1.701  -3.860  0.00  0.00    +0.144 C 
ATOM      8  C   UNL     1       2.547  -5.915  -4.146  0.00  0.00    +0.139 C 
ATOM      9  H   UNL     1       3.094  -1.856  -5.835  0.00  0.00    +0.151 HD
ENDROOT
BRANCH   7  10
ATOM     10  C   UNL     1       3.365  -0.774  -3.356  0.00  0.00    -0.021 A 
ATOM     11  C   UNL     1       4.668  -1.223  -3.247  0.00  0.00    +0.007 A 
ATOM     12  C   UNL     1       5.655  -0.374  -2.784  0.00  0.00    +0.022 A 
ATOM     13  C   UNL     1       5.340   0.926  -2.431  0.00  0.00    +0.059 A 
ATOM     14  C   UNL     1       4.035   1.375  -2.541  0.00  0.00    +0.060 A 
ATOM     15  C   UNL     1       3.049   0.526  -3.009  0.00  0.00    +0.027 A 
ATOM     16 CL   UNL     1       3.638   3.006  -2.097  0.00  0.00    -0.082 Cl
ATOM     17 CL   UNL     1       6.580   1.993  -1.849  0.00  0.00    -0.082 Cl
ENDBRANCH   7  10
BRANCH   1  18
ATOM     18  C   UNL     1       1.361  -2.041  -1.507  0.00  0.00    +0.339 C 
ATOM     19  O   UNL     1       0.229  -1.597  -1.467  0.00  0.00    -0.245 OA
BRANCH  18  20
ATOM     20  O   UNL     1       2.138  -2.009  -0.404  0.00  0.00    -0.462 OA
BRANCH  20  22
ATOM     21  C   UNL     1       2.589  -1.490   1.913  0.00  0.00    +0.048 C 
ATOM     22  C   UNL     1       1.567  -1.439   0.775  0.00  0.00    +0.229 C 
ENDBRANCH  20  22
ENDBRANCH  18  20
ENDBRANCH   1  18
BRANCH   2  23
ATOM     23  C   UNL     1       1.554  -4.848  -1.757  0.00  0.00    +0.136 C 
BRANCH  23  24
ATOM     24  N   UNL     1       0.410  -5.659  -2.193  0.00  0.00    -0.294 NA
ATOM     25  C   UNL     1      -0.773  -4.819  -2.425  0.00  0.00    +0.104 C 
ATOM     26  C   UNL     1      -1.885  -5.670  -3.049  0.00  0.00    +0.123 C 
ATOM     27  N   UNL     1      -2.113  -6.843  -2.191  0.00  0.00    -0.296 N 
ATOM     28  C   UNL     1      -0.952  -7.657  -1.802  0.00  0.00    +0.087 C 
ATOM     29  C   UNL     1       0.123  -6.728  -1.228  0.00  0.00    +0.107 C 
ATOM     30  C   UNL     1      -1.372  -8.680  -0.745  0.00  0.00    +0.029 C 
ATOM     31  C   UNL     1      -3.354  -7.163  -1.773  0.00  0.00    +0.216 C 
ATOM     32  O   UNL     1      -3.514  -8.084  -1.000  0.00  0.00    -0.276 OA
BRANCH  31  33
ATOM     33  C   UNL     1      -4.541  -6.376  -2.264  0.00  0.00    +0.099 C 
BRANCH  33  34
ATOM     34  C   UNL     1      -5.820  -6.941  -1.642  0.00  0.00    -0.008 C 
ATOM     35  C   UNL     1      -5.789  -6.723  -0.128  0.00  0.00    +0.008 C 
ATOM     36  C   UNL     1      -7.035  -6.225  -2.236  0.00  0.00    +0.008 C 
ENDBRANCH  33  34
ENDBRANCH  31  33
ENDBRANCH  23  24
ENDBRANCH   2  23
TORSDOF 8
