REMARK  Name = ZINC03360413
REMARK  7 active torsions:
REMARK  status: ('A' for Active; 'I' for Inactive)
REMARK    1  A    between atoms: C_1  and  N_2
REMARK    2  A    between atoms: C_3  and  N_26
REMARK    3  A    between atoms: C_4  and  C_11
REMARK    4  A    between atoms: N_7  and  C_10
REMARK    5  A    between atoms: C_11  and  C_13
REMARK    6  A    between atoms: C_13  and  S_14
REMARK    7  A    between atoms: S_14  and  C_15
REMARK                            x       y       z     vdW  Elec       q    Type
REMARK                         _______ _______ _______ _____ _____    ______ ____
ROOT
ATOM      1  C   UNL     1       5.649  -1.488  -0.082  0.00  0.00    +0.182 C 
ATOM      2  O   UNL     1       6.402  -0.535  -0.073  0.00  0.00    -0.291 OA
ENDROOT
BRANCH   1   6
ATOM      3  C   UNL     1       9.451  -4.566  -0.299  0.00  0.00    +0.155 C 
ATOM      4  N   UNL     1       8.012  -4.316  -0.186  0.00  0.00    -0.284 N 
ATOM      5  C   UNL     1       7.553  -3.030  -0.196  0.00  0.00    +0.116 A 
ATOM      6  C   UNL     1       6.171  -2.799  -0.082  0.00  0.00    +0.120 A 
ATOM      7  C   UNL     1       5.288  -3.967   0.031  0.00  0.00    +0.269 A 
ATOM      8  O   UNL     1       4.083  -3.827   0.127  0.00  0.00    -0.267 OA
ATOM      9  N   UNL     1       5.840  -5.198   0.026  0.00  0.00    -0.263 N 
ATOM     10  C   UNL     1       7.170  -5.356  -0.080  0.00  0.00    +0.333 A 
ATOM     11  O   UNL     1       7.627  -6.482  -0.081  0.00  0.00    -0.246 OA
ATOM     12  C   UNL     1       4.979  -6.377   0.138  0.00  0.00    +0.157 C 
BRANCH   5  13
ATOM     13  N   UNL     1       8.421  -1.988  -0.309  0.00  0.00    -0.344 N 
ATOM     14  H   UNL     1       8.097  -1.077  -0.231  0.00  0.00    +0.144 HD
ATOM     15  H   UNL     1       9.363  -2.156  -0.468  0.00  0.00    +0.144 HD
ENDBRANCH   5  13
ENDBRANCH   1   6
BRANCH   1  16
ATOM     16  C   UNL     1       4.158  -1.271  -0.092  0.00  0.00    +0.157 C 
BRANCH  16  17
ATOM     17  S   UNL     1       3.806   0.508  -0.089  0.00  0.00    -0.078 S 
BRANCH  17  18
ATOM     18  C   UNL     1       2.046   0.595  -0.101  0.00  0.00    +0.196 A 
ATOM     19  N   UNL     1       1.216  -0.425  -0.111  0.00  0.00    -0.122 NA
ATOM     20  N   UNL     1      -0.001  -0.009  -0.118  0.00  0.00    -0.127 NA
ATOM     21  C   UNL     1      -0.020   1.311  -0.114  0.00  0.00    +0.180 A 
ATOM     22  N   UNL     1       1.293   1.731  -0.103  0.00  0.00    -0.275 N 
ATOM     23  C   UNL     1       1.593   3.066  -0.096  0.00  0.00    +0.115 A 
ATOM     24  C   UNL     1       0.609   3.988  -0.099  0.00  0.00    +0.059 A 
ATOM     25  C   UNL     1      -0.741   3.590  -0.110  0.00  0.00    +0.045 A 
ATOM     26  C   UNL     1      -1.057   2.267  -0.113  0.00  0.00    +0.087 A 
ATOM     27 CL   UNL     1      -2.718   1.761  -0.118  0.00  0.00    -0.080 Cl
ATOM     28 CL   UNL     1       1.010   5.677  -0.089  0.00  0.00    -0.082 Cl
ENDBRANCH  17  18
ENDBRANCH  16  17
ENDBRANCH   1  16
TORSDOF 5
