REMARK  Name = ZINC59972047
REMARK  7 active torsions:
REMARK  status: ('A' for Active; 'I' for Inactive)
REMARK    1  A    between atoms: C_1  and  C_2
REMARK    2  A    between atoms: C_2  and  C_3
REMARK    3  A    between atoms: C_3  and  C_4
REMARK    4  A    between atoms: C_4  and  C_5
REMARK    5  A    between atoms: C_5  and  N_6
REMARK    6  A    between atoms: C_7  and  C_9
REMARK    7  A    between atoms: C_13  and  N_19
REMARK                            x       y       z     vdW  Elec       q    Type
REMARK                         _______ _______ _______ _____ _____    ______ ____
ROOT
ATOM      1  C   UNL     1       2.145  -6.154   3.458  0.00  0.00    +0.103 A 
ATOM      2  C   UNL     1       2.714  -6.939   4.410  0.00  0.00    +0.041 A 
ATOM      3  C   UNL     1       2.514  -8.289   4.032  0.00  0.00    +0.002 A 
ATOM      4  C   UNL     1       2.874  -9.513   4.613  0.00  0.00    +0.032 A 
ATOM      5  C   UNL     1       2.529 -10.693   3.988  0.00  0.00    +0.025 A 
ATOM      6  C   UNL     1       1.825 -10.673   2.783  0.00  0.00    +0.025 A 
ATOM      7  C   UNL     1       1.466  -9.478   2.202  0.00  0.00    +0.028 A 
ATOM      8  C   UNL     1       1.804  -8.275   2.816  0.00  0.00    +0.047 A 
ATOM      9  N   UNL     1       1.583  -6.957   2.485  0.00  0.00    -0.351 N 
ATOM     10  H   UNL     1       1.113  -6.644   1.696  0.00  0.00    +0.166 HD
ENDROOT
BRANCH   1  12
ATOM     11  N   UNL     1       1.523  -4.012   2.465  0.00  0.00    -0.310 N 
ATOM     12  C   UNL     1       2.125  -4.684   3.466  0.00  0.00    +0.260 C 
ATOM     13  O   UNL     1       2.652  -4.073   4.377  0.00  0.00    -0.269 OA
ATOM     14  H   UNL     1       1.102  -4.499   1.738  0.00  0.00    +0.149 HD
BRANCH  11  15
ATOM     15  C   UNL     1       1.503  -2.548   2.473  0.00  0.00    +0.104 C 
BRANCH  15  16
ATOM     16  C   UNL     1       0.763  -2.041   1.233  0.00  0.00    +0.019 C 
BRANCH  16  17
ATOM     17  C   UNL     1       0.742  -0.511   1.242  0.00  0.00    +0.001 C 
BRANCH  17  19
ATOM     18  C   UNL     1      -0.019   1.526   0.010  0.00  0.00    +0.004 C 
ATOM     19  C   UNL     1       0.002  -0.004   0.002  0.00  0.00    -0.003 C 
ENDBRANCH  17  19
ENDBRANCH  16  17
ENDBRANCH  15  16
ENDBRANCH  11  15
ENDBRANCH   1  12
BRANCH   5  20
ATOM     20  N   UNL     1       2.886 -11.917   4.564  0.00  0.00    -0.358 N 
ATOM     21  H   UNL     1       3.376 -11.934   5.402  0.00  0.00    +0.142 HD
ATOM     22  H   UNL     1       2.644 -12.749   4.127  0.00  0.00    +0.142 HD
ENDBRANCH   5  20
TORSDOF 6
