REMARK  Name = ZINC39676158
REMARK  4 active torsions:
REMARK  status: ('A' for Active; 'I' for Inactive)
REMARK    1  A    between atoms: C_11  and  C_13
REMARK    2  A    between atoms: C_13  and  N_14
REMARK    3  A    between atoms: C_15  and  C_17
REMARK    4  A    between atoms: C_28  and  C_30
REMARK                            x       y       z     vdW  Elec       q    Type
REMARK                         _______ _______ _______ _____ _____    ______ ____
ROOT
ATOM      1  C   UNL     1       8.425  -0.887  -0.091  0.00  0.00    +0.100 C 
ATOM      2  C   UNL     1       8.426  -0.121  -1.433  0.00  0.00    +0.121 C 
ATOM      3  N   UNL     1       9.858   0.124  -1.724  0.00  0.00    -0.296 N 
ATOM      4  C   UNL     1      10.538  -1.125  -1.305  0.00  0.00    +0.115 C 
ATOM      5  C   UNL     1       9.813  -1.545  -0.011  0.00  0.00    -0.004 C 
ATOM      6  C   UNL     1       9.676  -3.063   0.047  0.00  0.00    -0.010 C 
ATOM      7  C   UNL     1      11.065  -3.692   0.185  0.00  0.00    -0.082 C 
ATOM      8  N   UNL     1      11.712  -3.192   1.404  0.00  0.00    +0.379 N 
ATOM      9  C   UNL     1      11.925  -1.743   1.300  0.00  0.00    -0.082 C 
ATOM     10  C   UNL     1      10.572  -1.032   1.209  0.00  0.00    -0.010 C 
ATOM     11  C   UNL     1      10.416   1.233  -2.249  0.00  0.00    +0.248 C 
ATOM     12  O   UNL     1       9.734   2.219  -2.452  0.00  0.00    -0.270 OA
ATOM     13  H   UNL     1      11.123  -3.388   2.200  0.00  0.00    -0.086 HD
ATOM     14  H   UNL     1      12.601  -3.654   1.525  0.00  0.00    -0.086 HD
ENDROOT
BRANCH  11  15
ATOM     15  C   UNL     1      11.856   1.250  -2.579  0.00  0.00    +0.055 A 
ATOM     16  C   UNL     1      12.479   0.095  -3.058  0.00  0.00    +0.016 A 
ATOM     17  C   UNL     1      13.823   0.117  -3.364  0.00  0.00    +0.021 A 
ATOM     18  C   UNL     1      14.556   1.280  -3.197  0.00  0.00    +0.042 A 
ATOM     19  C   UNL     1      13.946   2.429  -2.723  0.00  0.00    +0.040 A 
ATOM     20  C   UNL     1      12.599   2.422  -2.419  0.00  0.00    +0.054 A 
ATOM     21 CL   UNL     1      11.832   3.865  -1.832  0.00  0.00    -0.083 Cl
ATOM     22 CL   UNL     1      16.248   1.298  -3.585  0.00  0.00    -0.083 Cl
ENDBRANCH  11  15
BRANCH   1  24
ATOM     23  N   UNL     1       6.888  -2.429   1.082  0.00  0.00    -0.308 N 
ATOM     24  C   UNL     1       7.345  -1.938  -0.086  0.00  0.00    +0.219 C 
ATOM     25  O   UNL     1       6.888  -2.341  -1.135  0.00  0.00    -0.275 OA
ATOM     26  H   UNL     1       7.254  -2.106   1.921  0.00  0.00    +0.149 HD
BRANCH  23  27
ATOM     27  C   UNL     1       5.838  -3.451   1.086  0.00  0.00    +0.178 C 
BRANCH  27  38
ATOM     28  C   UNL     1       5.363  -4.160   7.420  0.00  0.00    +0.001 A 
ATOM     29  C   UNL     1       6.328  -3.210   7.111  0.00  0.00    +0.002 A 
ATOM     30  C   UNL     1       6.607  -2.888   5.802  0.00  0.00    +0.028 A 
ATOM     31  C   UNL     1       5.913  -3.523   4.770  0.00  0.00    +0.078 A 
ATOM     32  C   UNL     1       4.933  -4.489   5.088  0.00  0.00    +0.065 A 
ATOM     33  C   UNL     1       4.665  -4.801   6.420  0.00  0.00    +0.015 A 
ATOM     34  C   UNL     1       4.219  -5.140   3.979  0.00  0.00    +0.259 A 
ATOM     35  O   UNL     1       3.363  -5.980   4.184  0.00  0.00    -0.267 OA
ATOM     36  N   UNL     1       4.551  -4.767   2.721  0.00  0.00    -0.309 N 
ATOM     37  H   UNL     1       4.102  -5.175   1.964  0.00  0.00    +0.170 HD
ATOM     38  C   UNL     1       5.509  -3.827   2.508  0.00  0.00    +0.128 A 
ATOM     39  N   UNL     1       6.155  -3.237   3.467  0.00  0.00    -0.232 NA
ENDBRANCH  27  38
ENDBRANCH  23  27
ENDBRANCH   1  24
TORSDOF 4
