REMARK  Name = ZINC02962837
REMARK  8 active torsions:
REMARK  status: ('A' for Active; 'I' for Inactive)
REMARK    1  A    between atoms: C_1  and  C_2
REMARK    2  A    between atoms: C_3  and  C_27
REMARK    3  A    between atoms: C_9  and  O_14
REMARK    4  A    between atoms: O_14  and  C_15
REMARK    5  A    between atoms: N_19  and  C_20
REMARK    6  A    between atoms: N_29  and  C_30
REMARK    7  A    between atoms: C_33  and  O_36
REMARK    8  A    between atoms: O_36  and  C_37
REMARK                            x       y       z     vdW  Elec       q    Type
REMARK                         _______ _______ _______ _____ _____    ______ ____
ROOT
ATOM      1  C   UNL     1      -1.048  -4.401   1.895  0.00  0.00    +0.079 C 
ATOM      2  C   UNL     1      -0.432  -3.451   0.867  0.00  0.00    +0.194 C 
ATOM      3  C   UNL     1      -1.269  -2.165   0.806  0.00  0.00    +0.163 C 
ATOM      4  C   UNL     1      -0.685  -1.306  -0.328  0.00  0.00    +0.123 C 
ATOM      5  C   UNL     1       0.796  -1.130  -0.074  0.00  0.00    +0.019 A 
ATOM      6  C   UNL     1       1.445  -0.043  -0.631  0.00  0.00    +0.054 A 
ATOM      7  C   UNL     1       2.805   0.133  -0.429  0.00  0.00    +0.121 A 
ATOM      8  C   UNL     1       3.514  -0.784   0.334  0.00  0.00    +0.049 A 
ATOM      9  C   UNL     1       2.864  -1.865   0.892  0.00  0.00    +0.049 A 
ATOM     10  C   UNL     1       1.498  -2.043   0.692  0.00  0.00    +0.129 A 
ATOM     11  O   UNL     1       0.893  -3.115   1.268  0.00  0.00    -0.467 OA
ATOM     12  N   UNL     1      -0.828  -2.067  -1.580  0.00  0.00    -0.318 N 
ATOM     13  C   UNL     1      -0.661  -3.400  -1.573  0.00  0.00    +0.141 C 
ATOM     14  S   UNL     1      -0.744  -4.249  -3.058  0.00  0.00    -0.018 S 
ATOM     15  N   UNL     1      -0.433  -4.090  -0.446  0.00  0.00    -0.243 N 
ATOM     16  H   UNL     1      -1.072  -1.544  -2.517  0.00  0.00    +0.148 HD
ENDROOT
BRANCH  15  17
ATOM     17  C   UNL     1      -0.188  -5.466  -0.530  0.00  0.00    +0.039 A 
ATOM     18  C   UNL     1       1.115  -5.944  -0.481  0.00  0.00    +0.025 A 
ATOM     19  C   UNL     1       1.354  -7.302  -0.560  0.00  0.00    +0.022 A 
ATOM     20  C   UNL     1       0.297  -8.185  -0.698  0.00  0.00    +0.041 A 
ATOM     21  C   UNL     1      -1.002  -7.710  -0.752  0.00  0.00    +0.022 A 
ATOM     22  C   UNL     1      -1.246  -6.354  -0.669  0.00  0.00    +0.025 A 
ATOM     23 CL   UNL     1       0.601  -9.891  -0.803  0.00  0.00    -0.084 Cl
ENDBRANCH  15  17
BRANCH   3  24
ATOM     24  C   UNL     1      -2.708  -2.500   0.509  0.00  0.00    +0.228 C 
ATOM     25  O   UNL     1      -2.984  -3.537  -0.057  0.00  0.00    -0.275 OA
ATOM     26  N   UNL     1      -3.687  -1.648   0.871  0.00  0.00    -0.285 N 
ATOM     27  H   UNL     1      -3.442  -0.738   1.438  0.00  0.00    +0.155 HD
BRANCH  26  28
ATOM     28  C   UNL     1      -5.017  -1.922   0.525  0.00  0.00    +0.034 A 
ATOM     29  C   UNL     1      -5.303  -2.597  -0.654  0.00  0.00    +0.027 A 
ATOM     30  C   UNL     1      -6.614  -2.871  -0.991  0.00  0.00    +0.047 A 
ATOM     31  C   UNL     1      -7.645  -2.462  -0.158  0.00  0.00    +0.120 A 
ATOM     32  C   UNL     1      -7.360  -1.782   1.017  0.00  0.00    +0.047 A 
ATOM     33  C   UNL     1      -6.049  -1.512   1.359  0.00  0.00    +0.027 A 
BRANCH  31  34
ATOM     34  O   UNL     1      -8.936  -2.727  -0.494  0.00  0.00    -0.495 OA
ATOM     35  C   UNL     1      -9.156  -3.430  -1.718  0.00  0.00    +0.277 C 
ENDBRANCH  31  34
ENDBRANCH  26  28
ENDBRANCH   3  24
BRANCH   7  36
ATOM     36  O   UNL     1       3.443   1.202  -0.976  0.00  0.00    -0.495 OA
ATOM     37  C   UNL     1       4.845   1.319  -0.726  0.00  0.00    +0.277 C 
ENDBRANCH   7  36
TORSDOF 5
