REMARK  Name = ZINC36304321
REMARK  19 active torsions:
REMARK  status: ('A' for Active; 'I' for Inactive)
REMARK    1  A    between atoms: C_1  and  C_2
REMARK    2  A    between atoms: C_3  and  C_22
REMARK    3  A    between atoms: C_4  and  O_13
REMARK    4  A    between atoms: N_5  and  C_7
REMARK    5  A    between atoms: O_13  and  C_14
REMARK    6  A    between atoms: C_19  and  O_20
REMARK    7  A    between atoms: O_20  and  C_21
REMARK    8  A    between atoms: C_22  and  N_23
REMARK    9  A    between atoms: N_23  and  C_24
REMARK   10  A    between atoms: N_23  and  C_28
REMARK   11  A    between atoms: C_24  and  C_25
REMARK   12  A    between atoms: C_25  and  O_26
REMARK   13  A    between atoms: O_26  and  C_27
REMARK   14  A    between atoms: C_28  and  C_29
REMARK   15  A    between atoms: C_29  and  C_31
REMARK   16  A    between atoms: C_29  and  O_40
REMARK   17  A    between atoms: C_31  and  O_32
REMARK   18  A    between atoms: O_32  and  C_33
REMARK   19  A    between atoms: C_33  and  C_34
REMARK                            x       y       z     vdW  Elec       q    Type
REMARK                         _______ _______ _______ _____ _____    ______ ____
ROOT
ATOM      1  C   UNL     1       0.366   2.186   0.390  0.00  0.00    +0.068 C 
ATOM      2  C   UNL     1       0.658   0.709   0.450  0.00  0.00    +0.065 A 
ATOM      3  C   UNL     1       0.607  -0.179  -0.629  0.00  0.00    +0.021 A 
ATOM      4  C   UNL     1       0.935  -1.416  -0.169  0.00  0.00    +0.225 A 
ATOM      5  N   UNL     1       1.185  -1.303   1.163  0.00  0.00    -0.200 N 
ATOM      6  N   UNL     1       1.009   0.041   1.519  0.00  0.00    -0.168 NA
ENDROOT
BRANCH   5   7
ATOM      7  C   UNL     1       1.557  -2.344   2.025  0.00  0.00    +0.069 A 
ATOM      8  C   UNL     1       0.936  -3.582   1.928  0.00  0.00    +0.028 A 
ATOM      9  C   UNL     1       1.305  -4.606   2.779  0.00  0.00    +0.002 A 
ATOM     10  C   UNL     1       2.292  -4.399   3.726  0.00  0.00    +0.000 A 
ATOM     11  C   UNL     1       2.911  -3.166   3.825  0.00  0.00    +0.002 A 
ATOM     12  C   UNL     1       2.550  -2.140   2.974  0.00  0.00    +0.028 A 
ENDBRANCH   5   7
BRANCH   3  13
ATOM     13  C   UNL     1       0.250   0.172  -2.051  0.00  0.00    -0.036 C 
BRANCH  13  14
ATOM     14  N   UNL     1       1.468   0.539  -2.785  0.00  0.00    +0.386 N 
ATOM     15  H   UNL     1       1.946   1.281  -2.295  0.00  0.00    -0.081 HD
BRANCH  14  16
ATOM     16  C   UNL     1       2.351  -0.630  -2.884  0.00  0.00    -0.050 C 
BRANCH  16  17
ATOM     17  C   UNL     1       3.680  -0.214  -3.517  0.00  0.00    +0.141 C 
BRANCH  17  18
ATOM     18  O   UNL     1       4.343   0.721  -2.663  0.00  0.00    -0.385 OA
ATOM     19  C   UNL     1       5.601   1.176  -3.164  0.00  0.00    +0.193 C 
ENDBRANCH  17  18
ENDBRANCH  16  17
ENDBRANCH  14  16
BRANCH  14  20
ATOM     20  C   UNL     1       1.108   0.997  -4.134  0.00  0.00    -0.044 C 
BRANCH  20  21
ATOM     21  C   UNL     1       0.312   2.300  -4.035  0.00  0.00    +0.124 C 
BRANCH  21  22
ATOM     22  O   UNL     1       1.120   3.305  -3.420  0.00  0.00    -0.391 OA
ATOM     23  H   UNL     1       1.896   3.558  -3.939  0.00  0.00    +0.210 HD
ENDBRANCH  21  22
BRANCH  21  24
ATOM     24  C   UNL     1      -0.092   2.758  -5.438  0.00  0.00    +0.189 C 
BRANCH  24  25
ATOM     25  O   UNL     1      -0.933   3.909  -5.339  0.00  0.00    -0.373 OA
BRANCH  25  26
ATOM     26  C   UNL     1      -1.369   4.420  -6.600  0.00  0.00    +0.195 C 
BRANCH  26  27
ATOM     27  C   UNL     1      -2.244   5.627  -6.378  0.00  0.00    -0.022 A 
ATOM     28  C   UNL     1      -3.609   5.472  -6.223  0.00  0.00    +0.006 A 
ATOM     29  C   UNL     1      -4.412   6.579  -6.019  0.00  0.00    +0.000 A 
ATOM     30  C   UNL     1      -3.849   7.840  -5.969  0.00  0.00    +0.000 A 
ATOM     31  C   UNL     1      -2.484   7.995  -6.123  0.00  0.00    +0.000 A 
ATOM     32  C   UNL     1      -1.681   6.888  -6.322  0.00  0.00    +0.006 A 
ENDBRANCH  26  27
ENDBRANCH  25  26
ENDBRANCH  24  25
ENDBRANCH  21  24
ENDBRANCH  20  21
ENDBRANCH  14  20
ENDBRANCH  13  14
ENDBRANCH   3  13
BRANCH   4  33
ATOM     33  O   UNL     1       1.001  -2.555  -0.904  0.00  0.00    -0.434 OA
BRANCH  33  34
ATOM     34  C   UNL     1      -0.145  -3.264  -1.087  0.00  0.00    +0.172 A 
ATOM     35  C   UNL     1      -1.352  -2.766  -0.621  0.00  0.00    +0.050 A 
ATOM     36  C   UNL     1      -2.516  -3.488  -0.808  0.00  0.00    +0.004 A 
ATOM     37  C   UNL     1      -2.479  -4.707  -1.460  0.00  0.00    +0.004 A 
ATOM     38  C   UNL     1      -1.279  -5.209  -1.927  0.00  0.00    +0.049 A 
ATOM     39  C   UNL     1      -0.110  -4.488  -1.748  0.00  0.00    +0.162 A 
BRANCH  39  40
ATOM     40  O   UNL     1       1.071  -4.978  -2.212  0.00  0.00    -0.491 OA
ATOM     41  C   UNL     1       1.031  -6.241  -2.880  0.00  0.00    +0.277 C 
ENDBRANCH  39  40
ENDBRANCH  33  34
ENDBRANCH   4  33
TORSDOF 16
