REMARK  Name = ZINC64338180
REMARK  7 active torsions:
REMARK  status: ('A' for Active; 'I' for Inactive)
REMARK    1  A    between atoms: C_1  and  C_2
REMARK    2  A    between atoms: C_3  and  C_13
REMARK    3  A    between atoms: N_5  and  C_7
REMARK    4  A    between atoms: N_15  and  C_16
REMARK    5  A    between atoms: C_16  and  C_17
REMARK    6  A    between atoms: C_17  and  C_19
REMARK    7  A    between atoms: C_17  and  C_25
REMARK                            x       y       z     vdW  Elec       q    Type
REMARK                         _______ _______ _______ _____ _____    ______ ____
ROOT
ATOM      1  C   UNL     1      -2.476  -0.341   0.012  0.00  0.00    +0.261 C 
ATOM      2  O   UNL     1      -2.725   0.851   0.020  0.00  0.00    -0.269 OA
ATOM      3  N   UNL     1      -3.480  -1.239   0.012  0.00  0.00    -0.309 N 
ATOM      4  H   UNL     1      -3.282  -2.189   0.005  0.00  0.00    +0.149 HD
ENDROOT
BRANCH   1   7
ATOM      5  C   UNL     1      -0.018   1.503   0.010  0.00  0.00    +0.064 C 
ATOM      6  C   UNL     1       0.002  -0.004   0.002  0.00  0.00    +0.048 C 
ATOM      7  C   UNL     1      -1.087  -0.797   0.003  0.00  0.00    +0.126 C 
ATOM      8  N   UNL     1      -0.662  -2.143  -0.006  0.00  0.00    -0.241 N 
ATOM      9  N   UNL     1       0.742  -2.128  -0.013  0.00  0.00    -0.171 N 
ATOM     10  N   UNL     1       1.133  -0.781  -0.013  0.00  0.00    -0.250 N 
ATOM     11  H   UNL     1      -1.230  -2.929  -0.008  0.00  0.00    +0.172 HD
ATOM     12  H   UNL     1       2.047  -0.455  -0.021  0.00  0.00    +0.171 HD
BRANCH   9  13
ATOM     13  C   UNL     1       1.587  -3.240  -0.022  0.00  0.00    +0.069 A 
ATOM     14  C   UNL     1       2.965  -3.067  -0.022  0.00  0.00    +0.026 A 
ATOM     15  C   UNL     1       3.798  -4.170  -0.031  0.00  0.00    +0.002 A 
ATOM     16  C   UNL     1       3.261  -5.444  -0.041  0.00  0.00    +0.000 A 
ATOM     17  C   UNL     1       1.889  -5.619  -0.041  0.00  0.00    +0.002 A 
ATOM     18  C   UNL     1       1.051  -4.522  -0.026  0.00  0.00    +0.026 A 
ENDBRANCH   9  13
ENDBRANCH   1   7
BRANCH   3  19
ATOM     19  C   UNL     1      -4.872  -0.782   0.021  0.00  0.00    +0.117 C 
BRANCH  19  20
ATOM     20  C   UNL     1      -5.807  -1.993   0.019  0.00  0.00    +0.064 C 
BRANCH  20  21
ATOM     21  C   UNL     1      -7.234  -1.526   0.152  0.00  0.00    -0.033 C 
ATOM     22  C   UNL     1      -8.102  -1.838   1.141  0.00  0.00    -0.000 A 
ATOM     23  C   UNL     1      -7.983  -2.674   2.342  0.00  0.00    +0.010 A 
ATOM     24  C   UNL     1      -9.051  -2.799   3.163  0.00  0.00    +0.001 A 
ATOM     25  C   UNL     1     -10.265  -2.152   2.896  0.00  0.00    +0.002 A 
ATOM     26  C   UNL     1     -10.451  -1.367   1.813  0.00  0.00    +0.026 A 
ATOM     27  C   UNL     1      -9.395  -1.165   0.882  0.00  0.00    +0.043 A 
ATOM     28  N   UNL     1      -9.329  -0.464  -0.224  0.00  0.00    -0.380 N 
ATOM     29  C   UNL     1      -7.982  -0.609  -0.789  0.00  0.00    +0.145 C 
ATOM     30  H   UNL     1     -10.048   0.065  -0.603  0.00  0.00    +0.160 HD
ENDBRANCH  20  21
BRANCH  20  31
ATOM     31  C   UNL     1      -5.645  -2.750  -1.274  0.00  0.00    -0.039 A 
ATOM     32  C   UNL     1      -5.900  -2.123  -2.479  0.00  0.00    +0.004 A 
ATOM     33  C   UNL     1      -5.752  -2.817  -3.665  0.00  0.00    +0.000 A 
ATOM     34  C   UNL     1      -5.347  -4.139  -3.646  0.00  0.00    +0.000 A 
ATOM     35  C   UNL     1      -5.091  -4.766  -2.441  0.00  0.00    +0.000 A 
ATOM     36  C   UNL     1      -5.236  -4.070  -1.255  0.00  0.00    +0.004 A 
ENDBRANCH  20  31
ENDBRANCH  19  20
ENDBRANCH   3  19
TORSDOF 6
