REMARK  Name = ZINC17252531
REMARK  12 active torsions:
REMARK  status: ('A' for Active; 'I' for Inactive)
REMARK    1  A    between atoms: C_1  and  C_2
REMARK    2  A    between atoms: C_5  and  N_8
REMARK    3  A    between atoms: N_9  and  C_10
REMARK    4  A    between atoms: C_11  and  C_41
REMARK    5  A    between atoms: C_12  and  C_39
REMARK    6  A    between atoms: N_15  and  C_23
REMARK    7  A    between atoms: C_16  and  C_17
REMARK    8  A    between atoms: C_25  and  O_38
REMARK    9  A    between atoms: C_27  and  O_37
REMARK   10  A    between atoms: C_29  and  O_36
REMARK   11  A    between atoms: C_31  and  C_34
REMARK   12  A    between atoms: C_34  and  O_35
REMARK                            x       y       z     vdW  Elec       q    Type
REMARK                         _______ _______ _______ _____ _____    ______ ____
ROOT
ATOM      1  C   UNL     1       1.654  -2.352  -2.195  0.00  0.00    +0.114 A 
ATOM      2  C   UNL     1       2.848  -1.657  -2.462  0.00  0.00    -0.001 A 
ATOM      3  C   UNL     1       3.054  -0.419  -1.863  0.00  0.00    +0.088 A 
ATOM      4  C   UNL     1       2.022   0.119  -0.976  0.00  0.00    +0.107 A 
ATOM      5  S   UNL     1       2.246   1.641  -0.224  0.00  0.00    -0.031 S 
ATOM      6  N   UNL     1       0.896  -0.585  -0.753  0.00  0.00    -0.303 N 
ATOM      7  C   UNL     1       0.700  -1.800  -1.336  0.00  0.00    +0.080 A 
ATOM      8  C   UNL     1       3.887  -2.245  -3.381  0.00  0.00    +0.047 C 
ENDROOT
BRANCH   7   9
ATOM      9  C   UNL     1      -0.543  -2.542  -1.062  0.00  0.00    +0.001 A 
ATOM     10  C   UNL     1      -0.933  -2.797   0.256  0.00  0.00    +0.010 A 
ATOM     11  C   UNL     1      -2.100  -3.487   0.505  0.00  0.00    +0.001 A 
ATOM     12  C   UNL     1      -2.880  -3.937  -0.546  0.00  0.00    +0.000 A 
ATOM     13  C   UNL     1      -2.498  -3.693  -1.854  0.00  0.00    +0.001 A 
ATOM     14  C   UNL     1      -1.336  -3.000  -2.119  0.00  0.00    +0.010 A 
ENDBRANCH   7   9
BRANCH   6  15
ATOM     15  C   UNL     1      -0.131  -0.038   0.137  0.00  0.00    +0.252 C 
ATOM     16  C   UNL     1       0.297   1.351   0.618  0.00  0.00    +0.195 C 
ATOM     17  C   UNL     1       0.414   2.287  -0.588  0.00  0.00    +0.178 C 
ATOM     18  C   UNL     1      -0.926   2.317  -1.329  0.00  0.00    +0.177 C 
ATOM     19  C   UNL     1      -1.307   0.891  -1.736  0.00  0.00    +0.177 C 
ATOM     20  O   UNL     1      -1.368   0.065  -0.571  0.00  0.00    -0.346 OA
BRANCH  18  21
ATOM     21  O   UNL     1      -1.934   2.856  -0.472  0.00  0.00    -0.386 OA
ATOM     22  H   UNL     1      -1.754   3.757  -0.172  0.00  0.00    +0.210 HD
ENDBRANCH  18  21
BRANCH  17  23
ATOM     23  O   UNL     1       0.745   3.604  -0.141  0.00  0.00    -0.386 OA
ATOM     24  H   UNL     1       0.834   4.250  -0.854  0.00  0.00    +0.210 HD
ENDBRANCH  17  23
BRANCH  16  25
ATOM     25  O   UNL     1       1.563   1.258   1.276  0.00  0.00    -0.385 OA
ATOM     26  H   UNL     1       1.833   2.071   1.725  0.00  0.00    +0.210 HD
ENDBRANCH  16  25
BRANCH  19  27
ATOM     27  C   UNL     1      -2.673   0.904  -2.424  0.00  0.00    +0.190 C 
BRANCH  27  28
ATOM     28  O   UNL     1      -2.977  -0.406  -2.905  0.00  0.00    -0.392 OA
ATOM     29  H   UNL     1      -3.831  -0.472  -3.354  0.00  0.00    +0.210 HD
ENDBRANCH  27  28
ENDBRANCH  19  27
ENDBRANCH   6  15
BRANCH   1  31
ATOM     30  N   UNL     1       2.365  -4.139  -3.449  0.00  0.00    -0.149 NA
ATOM     31  N   UNL     1       1.430  -3.565  -2.771  0.00  0.00    -0.147 NA
BRANCH  30  36
ATOM     32  C   UNL     1       1.438  -9.169  -5.834  0.00  0.00    +0.044 C 
ATOM     33  C   UNL     1       1.685  -7.826  -5.197  0.00  0.00    -0.050 A 
ATOM     34  C   UNL     1       2.917  -7.212  -5.343  0.00  0.00    +0.005 A 
ATOM     35  C   UNL     1       3.151  -5.982  -4.763  0.00  0.00    +0.030 A 
ATOM     36  C   UNL     1       2.140  -5.357  -4.027  0.00  0.00    +0.086 A 
ATOM     37  C   UNL     1       0.901  -5.987  -3.880  0.00  0.00    +0.030 A 
ATOM     38  C   UNL     1       0.680  -7.213  -4.470  0.00  0.00    +0.005 A 
ENDBRANCH  30  36
ENDBRANCH   1  31
BRANCH   3  39
ATOM     39  C   UNL     1       4.257   0.318  -2.111  0.00  0.00    +0.102 C 
ATOM     40  N   UNL     1       5.212   0.902  -2.307  0.00  0.00    -0.191 NA
ENDBRANCH   3  39
TORSDOF 10
