REMARK  Name = ZINC13679750
REMARK  10 active torsions:
REMARK  status: ('A' for Active; 'I' for Inactive)
REMARK    1  A    between atoms: C_1  and  C_2
REMARK    2  A    between atoms: C_4  and  C_33
REMARK    3  A    between atoms: C_6  and  C_8
REMARK    4  A    between atoms: C_8  and  C_10
REMARK    5  A    between atoms: C_15  and  O_16
REMARK    6  A    between atoms: O_16  and  C_17
REMARK    7  A    between atoms: C_17  and  C_18
REMARK    8  A    between atoms: C_22  and  C_31
REMARK    9  A    between atoms: C_24  and  S_27
REMARK   10  A    between atoms: S_27  and  N_30
REMARK                            x       y       z     vdW  Elec       q    Type
REMARK                         _______ _______ _______ _____ _____    ______ ____
ROOT
ATOM      1  O   UNL     1      -0.179   4.290  -0.174  0.00  0.00    -0.482 OA
ENDROOT
BRANCH   1   7
ATOM      2  C   UNL     1      -1.307   2.190   0.016  0.00  0.00    +0.065 A 
ATOM      3  C   UNL     1      -2.506   1.479   0.122  0.00  0.00    +0.035 A 
ATOM      4  C   UNL     1      -3.707   2.155   0.127  0.00  0.00    +0.042 A 
ATOM      5  C   UNL     1      -3.732   3.538   0.028  0.00  0.00    +0.023 A 
ATOM      6  C   UNL     1      -2.555   4.252  -0.077  0.00  0.00    +0.048 A 
ATOM      7  C   UNL     1      -1.337   3.589  -0.078  0.00  0.00    +0.132 A 
ATOM      8 CL   UNL     1      -5.196   1.271   0.259  0.00  0.00    -0.084 Cl
BRANCH   2   9
ATOM      9  C   UNL     1      -0.018   1.474   0.010  0.00  0.00    +0.197 C 
ATOM     10  O   UNL     1       1.014   2.081  -0.202  0.00  0.00    -0.287 OA
BRANCH   9  16
ATOM     11  C   UNL     1       2.015  -2.994  -0.885  0.00  0.00    +0.044 C 
ATOM     12  C   UNL     1       0.997  -2.141  -0.173  0.00  0.00    -0.049 A 
ATOM     13  C   UNL     1       0.105  -2.725   0.706  0.00  0.00    +0.022 A 
ATOM     14  C   UNL     1      -0.841  -1.940   1.370  0.00  0.00    +0.053 A 
ATOM     15  C   UNL     1      -0.881  -0.564   1.147  0.00  0.00    +0.030 A 
ATOM     16  C   UNL     1       0.019   0.017   0.256  0.00  0.00    +0.024 A 
ATOM     17  C   UNL     1       0.960  -0.781  -0.402  0.00  0.00    +0.015 A 
BRANCH  14  18
ATOM     18  C   UNL     1      -1.766  -2.546   2.280  0.00  0.00    +0.099 C 
ATOM     19  N   UNL     1      -2.498  -3.027   3.002  0.00  0.00    -0.191 NA
ENDBRANCH  14  18
ENDBRANCH   9  16
ENDBRANCH   2   9
ENDBRANCH   1   7
BRANCH   1  20
ATOM     20  C   UNL     1      -0.288   5.712  -0.267  0.00  0.00    +0.325 C 
BRANCH  20  21
ATOM     21  C   UNL     1       1.089   6.316  -0.366  0.00  0.00    +0.256 C 
ATOM     22  O   UNL     1       2.067   5.599  -0.358  0.00  0.00    -0.272 OA
ATOM     23  N   UNL     1       1.233   7.652  -0.463  0.00  0.00    -0.267 N 
ATOM     24  C   UNL     1       2.507   8.211  -0.555  0.00  0.00    +0.128 A 
ATOM     25  C   UNL     1       2.648   9.590  -0.661  0.00  0.00    -0.008 A 
ATOM     26  C   UNL     1       3.919  10.132  -0.747  0.00  0.00    +0.036 A 
ATOM     27  C   UNL     1       5.008   9.271  -0.734  0.00  0.00    +0.123 A 
ATOM     28  C   UNL     1       4.794   7.911  -0.632  0.00  0.00    +0.141 A 
ATOM     29  N   UNL     1       3.571   7.423  -0.546  0.00  0.00    -0.238 NA
ATOM     30  C   UNL     1       1.435  10.483  -0.677  0.00  0.00    +0.047 C 
ATOM     31  H   UNL     1       0.451   8.226  -0.469  0.00  0.00    +0.156 HD
BRANCH  27  32
ATOM     32  S   UNL     1       6.647   9.908  -0.848  0.00  0.00    +0.057 S 
ATOM     33  O   UNL     1       6.594  11.250  -0.385  0.00  0.00    -0.153 OA
ATOM     34  O   UNL     1       7.502   8.934  -0.265  0.00  0.00    -0.153 OA
BRANCH  32  35
ATOM     35  N   UNL     1       7.035   9.977  -2.456  0.00  0.00    -0.203 NA
ATOM     36  H   UNL     1       6.391   9.690  -3.123  0.00  0.00    +0.144 HD
ATOM     37  H   UNL     1       7.906  10.304  -2.731  0.00  0.00    +0.144 HD
ENDBRANCH  32  35
ENDBRANCH  27  32
ENDBRANCH  20  21
ENDBRANCH   1  20
TORSDOF 8
