REMARK  Name = ZINC58952660
REMARK  9 active torsions:
REMARK  status: ('A' for Active; 'I' for Inactive)
REMARK    1  A    between atoms: C_1  and  C_2
REMARK    2  A    between atoms: N_8  and  C_9
REMARK    3  A    between atoms: C_9  and  C_10
REMARK    4  A    between atoms: C_15  and  C_16
REMARK    5  A    between atoms: C_16  and  N_17
REMARK    6  A    between atoms: C_18  and  C_20
REMARK    7  A    between atoms: C_22  and  S_27
REMARK    8  A    between atoms: S_27  and  N_30
REMARK    9  A    between atoms: N_30  and  C_31
REMARK                            x       y       z     vdW  Elec       q    Type
REMARK                         _______ _______ _______ _____ _____    ______ ____
ROOT
ATOM      1  N   UNL     1       4.392  -2.176   0.331  0.00  0.00    -0.307 N 
ATOM      2  C   UNL     1       4.610  -2.878  -0.799  0.00  0.00    +0.246 C 
ATOM      3  O   UNL     1       3.885  -3.811  -1.084  0.00  0.00    -0.270 OA
ATOM      4  H   UNL     1       4.970  -1.432   0.559  0.00  0.00    +0.149 HD
ENDROOT
BRANCH   2   5
ATOM      5  C   UNL     1       5.731  -2.513  -1.690  0.00  0.00    +0.057 A 
ATOM      6  C   UNL     1       6.569  -1.445  -1.362  0.00  0.00    +0.043 A 
ATOM      7  C   UNL     1       7.613  -1.110  -2.198  0.00  0.00    +0.106 A 
ATOM      8  C   UNL     1       7.832  -1.828  -3.361  0.00  0.00    +0.030 A 
ATOM      9  C   UNL     1       7.006  -2.886  -3.693  0.00  0.00    +0.022 A 
ATOM     10  C   UNL     1       5.960  -3.237  -2.862  0.00  0.00    +0.053 A 
ATOM     11 CL   UNL     1       4.929  -4.571  -3.276  0.00  0.00    -0.083 Cl
BRANCH   7  12
ATOM     12  S   UNL     1       8.672   0.237  -1.785  0.00  0.00    +0.058 S 
ATOM     13  O   UNL     1       9.243   0.693  -3.003  0.00  0.00    -0.153 OA
ATOM     14  O   UNL     1       7.927   1.090  -0.926  0.00  0.00    -0.153 OA
BRANCH  12  15
ATOM     15  N   UNL     1       9.915  -0.378  -0.880  0.00  0.00    -0.193 NA
ATOM     16  C   UNL     1      10.860  -1.323  -1.480  0.00  0.00    +0.127 C 
ATOM     17  H   UNL     1      10.018  -0.111   0.047  0.00  0.00    +0.148 HD
ENDBRANCH  12  15
ENDBRANCH   7  12
ENDBRANCH   2   5
BRANCH   1  18
ATOM     18  C   UNL     1       3.281  -2.538   1.215  0.00  0.00    +0.140 C 
BRANCH  18  24
ATOM     19  C   UNL     1       2.505  -0.329   2.101  0.00  0.00    -0.059 A 
ATOM     20  C   UNL     1       2.397   0.601   3.118  0.00  0.00    +0.002 A 
ATOM     21  C   UNL     1       2.956   0.340   4.355  0.00  0.00    +0.000 A 
ATOM     22  C   UNL     1       3.623  -0.851   4.575  0.00  0.00    +0.000 A 
ATOM     23  C   UNL     1       3.731  -1.780   3.558  0.00  0.00    +0.005 A 
ATOM     24  C   UNL     1       3.168  -1.522   2.322  0.00  0.00    -0.029 A 
BRANCH  19  25
ATOM     25  C   UNL     1       1.895  -0.045   0.752  0.00  0.00    -0.042 C 
BRANCH  25  32
ATOM     26  C   UNL     1       1.746  -0.681  -1.979  0.00  0.00    -0.013 C 
ATOM     27  C   UNL     1       2.360   0.635  -1.499  0.00  0.00    -0.071 C 
ATOM     28  C   UNL     1       3.457   1.071  -2.472  0.00  0.00    -0.016 C 
ATOM     29  C   UNL     1       4.068   2.389  -1.988  0.00  0.00    -0.003 C 
ATOM     30  C   UNL     1       4.597   2.202  -0.563  0.00  0.00    -0.019 C 
ATOM     31  C   UNL     1       3.458   1.725   0.340  0.00  0.00    -0.078 C 
ATOM     32  N   UNL     1       2.935   0.448  -0.161  0.00  0.00    +0.384 N 
ATOM     33  H   UNL     1       3.684  -0.226  -0.210  0.00  0.00    -0.081 HD
ENDBRANCH  25  32
ENDBRANCH  19  25
ENDBRANCH  18  24
ENDBRANCH   1  18
TORSDOF 7
