REMARK  Name = ZINC12532950
REMARK  5 active torsions:
REMARK  status: ('A' for Active; 'I' for Inactive)
REMARK    1  A    between atoms: C_3  and  S_24
REMARK    2  A    between atoms: C_6  and  N_7
REMARK    3  A    between atoms: C_8  and  C_10
REMARK    4  A    between atoms: C_10  and  N_11
REMARK    5  A    between atoms: S_24  and  N_27
REMARK                            x       y       z     vdW  Elec       q    Type
REMARK                         _______ _______ _______ _____ _____    ______ ____
ROOT
ATOM      1  C   UNL     1      -0.013   1.374   0.193  0.00  0.00    +0.025 A 
ATOM      2  C   UNL     1       1.174   2.082   0.190  0.00  0.00    +0.031 A 
ATOM      3  C   UNL     1       2.374   1.421   0.002  0.00  0.00    +0.113 A 
ATOM      4  C   UNL     1       2.391   0.051  -0.183  0.00  0.00    +0.031 A 
ATOM      5  C   UNL     1       1.208  -0.663  -0.180  0.00  0.00    +0.025 A 
ATOM      6  C   UNL     1       0.001  -0.002   0.007  0.00  0.00    +0.034 A 
ENDROOT
BRANCH   6   7
ATOM      7  N   UNL     1      -1.199  -0.722   0.010  0.00  0.00    -0.284 N 
ATOM      8  C   UNL     1      -2.325  -0.156  -0.469  0.00  0.00    +0.235 C 
ATOM      9  O   UNL     1      -2.280   0.938  -0.990  0.00  0.00    -0.274 OA
ATOM     10  H   UNL     1      -1.221  -1.627   0.357  0.00  0.00    +0.155 HD
BRANCH   8  11
ATOM     11  C   UNL     1      -3.640  -0.884  -0.358  0.00  0.00    +0.212 C 
BRANCH  11  12
ATOM     12  N   UNL     1      -4.702  -0.066  -0.948  0.00  0.00    -0.233 N 
ATOM     13  C   UNL     1      -5.423   0.842  -0.239  0.00  0.00    +0.226 C 
ATOM     14  O   UNL     1      -5.178   1.258   0.873  0.00  0.00    -0.275 OA
ATOM     15  C   UNL     1      -6.582   1.226  -1.108  0.00  0.00    +0.091 C 
ATOM     16  C   UNL     1      -7.087   2.652  -1.042  0.00  0.00    +0.040 C 
ATOM     17  C   UNL     1      -7.993   2.855  -2.238  0.00  0.00    -0.030 C 
ATOM     18  C   UNL     1      -7.998   2.093  -3.290  0.00  0.00    -0.030 C 
ATOM     19  C   UNL     1      -7.083   0.903  -3.490  0.00  0.00    +0.040 C 
ATOM     20  C   UNL     1      -5.939   1.044  -2.518  0.00  0.00    +0.091 C 
ATOM     21  C   UNL     1      -5.058  -0.138  -2.257  0.00  0.00    +0.226 C 
ATOM     22  O   UNL     1      -4.729  -0.989  -3.054  0.00  0.00    -0.275 OA
ENDBRANCH  11  12
ENDBRANCH   8  11
ENDBRANCH   6   7
BRANCH   3  23
ATOM     23  S   UNL     1       3.885   2.327  -0.002  0.00  0.00    +0.100 S 
ATOM     24  O   UNL     1       4.821   1.553  -0.740  0.00  0.00    -0.146 OA
ATOM     25  O   UNL     1       3.556   3.664  -0.354  0.00  0.00    -0.146 OA
BRANCH  23  26
ATOM     26  N   UNL     1       4.434   2.370   1.560  0.00  0.00    -0.118 NA
ATOM     27  C   UNL     1       5.539   2.981   1.840  0.00  0.00    +0.117 C 
ATOM     28  N   UNL     1       6.289   3.620   0.840  0.00  0.00    -0.331 N 
ATOM     29  C   UNL     1       6.355   5.052   0.886  0.00  0.00    +0.102 C 
ATOM     30  C   UNL     1       7.494   5.644   1.732  0.00  0.00    +0.019 C 
ATOM     31  C   UNL     1       7.655   4.850   3.053  0.00  0.00    +0.002 C 
ATOM     32  C   UNL     1       6.340   4.460   3.668  0.00  0.00    +0.008 C 
ATOM     33  C   UNL     1       6.043   3.034   3.196  0.00  0.00    +0.073 C 
ATOM     34  H   UNL     1       6.744   3.115   0.148  0.00  0.00    +0.147 HD
ENDBRANCH  23  26
ENDBRANCH   3  23
TORSDOF 5
