REMARK  Name = ZINC31001711
REMARK  9 active torsions:
REMARK  status: ('A' for Active; 'I' for Inactive)
REMARK    1  A    between atoms: C_1  and  C_2
REMARK    2  A    between atoms: C_5  and  C_8
REMARK    3  A    between atoms: C_8  and  C_30
REMARK    4  A    between atoms: N_11  and  C_15
REMARK    5  A    between atoms: C_15  and  C_16
REMARK    6  A    between atoms: N_18  and  C_19
REMARK    7  A    between atoms: C_19  and  C_20
REMARK    8  A    between atoms: C_20  and  N_21
REMARK    9  A    between atoms: C_22  and  C_24
REMARK                            x       y       z     vdW  Elec       q    Type
REMARK                         _______ _______ _______ _____ _____    ______ ____
ROOT
ATOM      1  C   UNL     1       0.206   3.461  -3.138  0.00  0.00    +0.213 C 
ENDROOT
BRANCH   1   5
ATOM      2  C   UNL     1      -0.018   1.503   0.010  0.00  0.00    +0.135 C 
ATOM      3  C   UNL     1      -0.619   2.035  -1.276  0.00  0.00    +0.251 C 
ATOM      4  O   UNL     1      -1.742   1.847  -1.692  0.00  0.00    -0.272 OA
ATOM      5  N   UNL     1       0.355   2.760  -1.860  0.00  0.00    -0.215 N 
ATOM      6  C   UNL     1       1.476   2.759  -1.130  0.00  0.00    +0.310 C 
ATOM      7  O   UNL     1       2.492   3.344  -1.451  0.00  0.00    -0.252 OA
ATOM      8  N   UNL     1       1.353   2.040   0.000  0.00  0.00    -0.281 N 
ATOM      9  C   UNL     1      -0.791   2.022   1.224  0.00  0.00    +0.047 C 
ATOM     10  H   UNL     1       2.039   1.812   0.829  0.00  0.00    +0.152 HD
BRANCH   2  15
ATOM     11  C   UNL     1       0.060  -4.275  -0.021  0.00  0.00    +0.044 C 
ATOM     12  C   UNL     1       0.039  -2.768  -0.013  0.00  0.00    -0.050 A 
ATOM     13  C   UNL     1       1.057  -2.067   0.606  0.00  0.00    +0.004 A 
ATOM     14  C   UNL     1       1.038  -0.685   0.613  0.00  0.00    +0.006 A 
ATOM     15  C   UNL     1       0.002  -0.004   0.002  0.00  0.00    -0.015 A 
ATOM     16  C   UNL     1      -1.018  -0.706  -0.612  0.00  0.00    +0.006 A 
ATOM     17  C   UNL     1      -0.998  -2.088  -0.623  0.00  0.00    +0.004 A 
ENDBRANCH   2  15
ENDBRANCH   1   5
BRANCH   1  18
ATOM     18  C   UNL     1       0.603   2.542  -4.264  0.00  0.00    +0.231 C 
ATOM     19  O   UNL     1       0.975   1.413  -4.024  0.00  0.00    -0.274 OA
ATOM     20  N   UNL     1       0.546   2.975  -5.539  0.00  0.00    -0.313 N 
ATOM     21  H   UNL     1       0.209   3.999  -5.758  0.00  0.00    +0.149 HD
BRANCH  20  22
ATOM     22  C   UNL     1       0.932   2.082  -6.635  0.00  0.00    +0.123 C 
BRANCH  22  23
ATOM     23  C   UNL     1       0.776   2.814  -7.969  0.00  0.00    +0.123 C 
BRANCH  23  24
ATOM     24  N   UNL     1       1.162   1.921  -9.064  0.00  0.00    -0.310 N 
ATOM     25  C   UNL     1       1.105   2.354 -10.339  0.00  0.00    +0.244 C 
ATOM     26  O   UNL     1       0.732   3.486 -10.580  0.00  0.00    -0.270 OA
ATOM     27  H   UNL     1       1.499   0.897  -8.846  0.00  0.00    +0.149 HD
BRANCH  25  28
ATOM     28  C   UNL     1       1.495   1.453 -11.444  0.00  0.00    +0.037 A 
ATOM     29  C   UNL     1       1.928   0.155 -11.170  0.00  0.00    +0.013 A 
ATOM     30  C   UNL     1       2.285  -0.683 -12.207  0.00  0.00    +0.001 A 
ATOM     31  C   UNL     1       2.225  -0.235 -13.514  0.00  0.00    +0.000 A 
ATOM     32  C   UNL     1       1.802   1.052 -13.792  0.00  0.00    +0.001 A 
ATOM     33  C   UNL     1       1.436   1.898 -12.766  0.00  0.00    +0.013 A 
ENDBRANCH  25  28
ENDBRANCH  23  24
ENDBRANCH  22  23
ENDBRANCH  20  22
ENDBRANCH   1  18
TORSDOF 7
