REMARK  Name = ZINC38831876
REMARK  7 active torsions:
REMARK  status: ('A' for Active; 'I' for Inactive)
REMARK    1  A    between atoms: C_1  and  S_2
REMARK    2  A    between atoms: S_2  and  N_5
REMARK    3  A    between atoms: C_7  and  C_17
REMARK    4  A    between atoms: N_19  and  C_20
REMARK    5  A    between atoms: C_20  and  C_21
REMARK    6  A    between atoms: C_24  and  C_27
REMARK    7  A    between atoms: C_27  and  N_28
REMARK                            x       y       z     vdW  Elec       q    Type
REMARK                         _______ _______ _______ _____ _____    ______ ____
ROOT
ATOM      1  C   UNL     1       0.592  -2.046  -4.640  0.00  0.00    +0.256 C 
ATOM      2  O   UNL     1       1.352  -1.939  -5.580  0.00  0.00    -0.272 OA
ATOM      3  N   UNL     1      -0.703  -2.353  -4.853  0.00  0.00    -0.308 N 
ATOM      4  H   UNL     1      -1.311  -2.439  -4.101  0.00  0.00    +0.149 HD
ENDROOT
BRANCH   1   7
ATOM      5  N   UNL     1       0.975  -0.409  -1.275  0.00  0.00    -0.200 N 
ATOM      6  C   UNL     1       0.420  -0.600  -2.626  0.00  0.00    +0.185 C 
ATOM      7  C   UNL     1       1.096  -1.836  -3.236  0.00  0.00    +0.277 C 
ATOM      8  O   UNL     1       2.510  -1.624  -3.258  0.00  0.00    -0.476 OA
ATOM      9  C   UNL     1       3.104  -1.196  -2.112  0.00  0.00    +0.144 A 
ATOM     10  C   UNL     1       2.359  -0.578  -1.109  0.00  0.00    +0.094 A 
ATOM     11  C   UNL     1       2.978  -0.138   0.050  0.00  0.00    +0.048 A 
ATOM     12  C   UNL     1       4.342  -0.308   0.210  0.00  0.00    +0.043 A 
ATOM     13  C   UNL     1       5.085  -0.918  -0.784  0.00  0.00    +0.024 A 
ATOM     14  C   UNL     1       4.468  -1.370  -1.941  0.00  0.00    +0.049 A 
ATOM     15 CL   UNL     1       5.121   0.244   1.660  0.00  0.00    -0.083 Cl
BRANCH   5  17
ATOM     16  C   UNL     1      -0.022   1.810   0.012  0.00  0.00    +0.218 C 
ATOM     17  S   UNL     1       0.002  -0.004   0.002  0.00  0.00    +0.043 S 
ATOM     18  O   UNL     1       0.687  -0.491   1.148  0.00  0.00    -0.155 OA
ATOM     19  O   UNL     1      -1.280  -0.509  -0.345  0.00  0.00    -0.155 OA
ENDBRANCH   5  17
ENDBRANCH   1   7
BRANCH   3  20
ATOM     20  C   UNL     1      -1.193  -2.558  -6.218  0.00  0.00    +0.139 C 
BRANCH  20  21
ATOM     21  C   UNL     1      -2.663  -2.887  -6.180  0.00  0.00    -0.030 A 
ATOM     22  C   UNL     1      -3.074  -4.203  -6.077  0.00  0.00    +0.005 A 
ATOM     23  C   UNL     1      -4.423  -4.505  -6.042  0.00  0.00    +0.002 A 
ATOM     24  C   UNL     1      -5.360  -3.491  -6.110  0.00  0.00    -0.064 A 
ATOM     25  C   UNL     1      -4.949  -2.175  -6.212  0.00  0.00    +0.002 A 
ATOM     26  C   UNL     1      -3.600  -1.873  -6.243  0.00  0.00    +0.005 A 
BRANCH  24  27
ATOM     27  C   UNL     1      -6.830  -3.821  -6.073  0.00  0.00    -0.043 C 
BRANCH  27  28
ATOM     28  N   UNL     1      -7.296  -3.825  -4.680  0.00  0.00    +0.382 N 
ATOM     29  C   UNL     1      -6.629  -4.906  -3.945  0.00  0.00    -0.078 C 
ATOM     30  C   UNL     1      -7.049  -4.864  -2.475  0.00  0.00    -0.019 C 
ATOM     31  C   UNL     1      -8.568  -5.040  -2.378  0.00  0.00    -0.004 C 
ATOM     32  C   UNL     1      -9.252  -3.951  -3.209  0.00  0.00    -0.019 C 
ATOM     33  C   UNL     1      -8.750  -4.027  -4.653  0.00  0.00    -0.078 C 
ATOM     34  H   UNL     1      -7.073  -2.940  -4.249  0.00  0.00    -0.081 HD
ENDBRANCH  27  28
ENDBRANCH  24  27
ENDBRANCH  20  21
ENDBRANCH   3  20
TORSDOF 6
