REMARK  Name = ZINC08832463
REMARK  5 active torsions:
REMARK  status: ('A' for Active; 'I' for Inactive)
REMARK    1  A    between atoms: C_1  and  C_2
REMARK    2  A    between atoms: C_9  and  N_14
REMARK    3  A    between atoms: C_10  and  C_11
REMARK    4  A    between atoms: C_15  and  C_17
REMARK    5  A    between atoms: C_20  and  C_22
REMARK                            x       y       z     vdW  Elec       q    Type
REMARK                         _______ _______ _______ _____ _____    ______ ____
ROOT
ATOM      1  N   UNL     1      -1.439  -0.889   2.497  0.00  0.00    -0.273 N 
ATOM      2  C   UNL     1      -2.168  -1.335   3.539  0.00  0.00    +0.284 C 
ATOM      3  O   UNL     1      -3.201  -1.947   3.341  0.00  0.00    -0.266 OA
ATOM      4  H   UNL     1      -0.616  -0.401   2.654  0.00  0.00    +0.156 HD
ENDROOT
BRANCH   1  12
ATOM      5  C   UNL     1      -4.237  -2.367  -4.655  0.00  0.00    +0.008 C 
ATOM      6  C   UNL     1      -3.567  -1.651  -3.482  0.00  0.00    -0.009 C 
ATOM      7  C   UNL     1      -2.045  -1.717  -3.638  0.00  0.00    +0.008 C 
ATOM      8  C   UNL     1      -1.376  -0.799  -2.613  0.00  0.00    +0.037 C 
ATOM      9  C   UNL     1      -1.919  -1.128  -1.228  0.00  0.00    -0.023 A 
ATOM     10  C   UNL     1      -3.069  -1.821  -1.079  0.00  0.00    -0.004 A 
ATOM     11  S   UNL     1      -3.285  -1.969   0.672  0.00  0.00    -0.077 S 
ATOM     12  C   UNL     1      -1.865  -1.129   1.201  0.00  0.00    +0.085 A 
ATOM     13  C   UNL     1      -1.257  -0.754   0.010  0.00  0.00    +0.068 A 
ATOM     14  C   UNL     1      -3.960  -2.338  -2.166  0.00  0.00    +0.046 C 
BRANCH  13  15
ATOM     15  C   UNL     1       0.002  -0.004   0.002  0.00  0.00    +0.244 C 
ATOM     16  O   UNL     1       1.064  -0.598  -0.011  0.00  0.00    -0.270 OA
ATOM     17  N   UNL     1      -0.016   1.344   0.009  0.00  0.00    -0.325 N 
ATOM     18  H   UNL     1       0.817   1.840   0.004  0.00  0.00    +0.145 HD
ATOM     19  H   UNL     1      -0.863   1.817   0.016  0.00  0.00    +0.145 HD
ENDBRANCH  13  15
ENDBRANCH   1  12
BRANCH   2  20
ATOM     20  C   UNL     1      -1.718  -1.081   4.909  0.00  0.00    +0.190 A 
ATOM     21  C   UNL     1      -2.364  -1.478   6.060  0.00  0.00    +0.055 A 
ATOM     22  C   UNL     1      -1.589  -1.029   7.133  0.00  0.00    +0.051 A 
ATOM     23  C   UNL     1      -0.509  -0.381   6.605  0.00  0.00    +0.137 A 
ATOM     24  O   UNL     1      -0.594  -0.424   5.265  0.00  0.00    -0.450 OA
BRANCH  23  25
ATOM     25  C   UNL     1       0.576   0.254   7.379  0.00  0.00    +0.037 A 
ATOM     26  C   UNL     1       0.273   1.143   8.414  0.00  0.00    +0.013 A 
ATOM     27  C   UNL     1       1.291   1.729   9.136  0.00  0.00    +0.002 A 
ATOM     28  C   UNL     1       2.611   1.448   8.833  0.00  0.00    +0.021 A 
ATOM     29  C   UNL     1       2.921   0.574   7.805  0.00  0.00    +0.060 A 
ATOM     30  C   UNL     1       1.911  -0.025   7.076  0.00  0.00    +0.070 A 
ATOM     31 CL   UNL     1       2.300  -1.123   5.788  0.00  0.00    -0.081 Cl
ATOM     32 CL   UNL     1       4.581   0.229   7.432  0.00  0.00    -0.082 Cl
ENDBRANCH  23  25
ENDBRANCH   2  20
TORSDOF 4
