REMARK  Name = ZINC15967846
REMARK  6 active torsions:
REMARK  status: ('A' for Active; 'I' for Inactive)
REMARK    1  A    between atoms: C_1  and  C_2
REMARK    2  A    between atoms: C_16  and  C_19
REMARK    3  A    between atoms: C_19  and  C_20
REMARK    4  A    between atoms: N_25  and  C_28
REMARK    5  A    between atoms: C_28  and  C_29
REMARK    6  A    between atoms: C_29  and  C_30
REMARK                            x       y       z     vdW  Elec       q    Type
REMARK                         _______ _______ _______ _____ _____    ______ ____
ROOT
ATOM      1  C   UNL     1       3.791   0.792   0.047  0.00  0.00    +0.045 C 
ATOM      2  C   UNL     1       3.153  -0.573   0.019  0.00  0.00    -0.029 A 
ATOM      3  C   UNL     1       3.216  -1.338  -1.128  0.00  0.00    +0.005 A 
ATOM      4  C   UNL     1       2.634  -2.591  -1.164  0.00  0.00    +0.001 A 
ATOM      5  C   UNL     1       1.984  -3.081  -0.044  0.00  0.00    +0.008 A 
ATOM      6  C   UNL     1       1.919  -2.322   1.103  0.00  0.00    +0.004 A 
ATOM      7  C   UNL     1       2.506  -1.061   1.151  0.00  0.00    +0.042 A 
ATOM      8  N   UNL     1       2.315  -0.487   2.411  0.00  0.00    -0.283 N 
ATOM      9  C   UNL     1       1.628  -1.298   3.239  0.00  0.00    +0.243 C 
ATOM     10  O   UNL     1       1.316  -1.064   4.387  0.00  0.00    -0.273 OA
ATOM     11  C   UNL     1       1.311  -2.545   2.458  0.00  0.00    +0.136 C 
ATOM     12  C   UNL     1      -0.199  -2.795   2.366  0.00  0.00    +0.122 C 
ATOM     13  C   UNL     1      -0.493  -3.825   3.492  0.00  0.00    +0.107 C 
ATOM     14  C   UNL     1       0.872  -4.074   4.168  0.00  0.00    +0.076 C 
ATOM     15  N   UNL     1       1.879  -3.735   3.119  0.00  0.00    -0.295 NA
ATOM     16  C   UNL     1      -0.923  -5.059   2.732  0.00  0.00    +0.227 C 
ATOM     17  O   UNL     1      -1.240  -6.116   3.235  0.00  0.00    -0.275 OA
ATOM     18  N   UNL     1      -0.899  -4.804   1.419  0.00  0.00    -0.241 N 
ATOM     19  C   UNL     1      -0.512  -3.549   1.093  0.00  0.00    +0.228 C 
ATOM     20  O   UNL     1      -0.426  -3.097  -0.028  0.00  0.00    -0.275 OA
ATOM     21  H   UNL     1       2.639   0.392   2.660  0.00  0.00    +0.155 HD
ATOM     22  H   UNL     1       1.998  -4.491   2.461  0.00  0.00    +0.124 HD
ENDROOT
BRANCH  14  23
ATOM     23  C   UNL     1       1.027  -3.179   5.399  0.00  0.00    +0.115 C 
BRANCH  23  24
ATOM     24  C   UNL     1       0.540  -3.916   6.620  0.00  0.00    +0.212 C 
ATOM     25  O   UNL     1       0.111  -5.046   6.516  0.00  0.00    -0.276 OA
ATOM     26  N   UNL     1       0.581  -3.320   7.828  0.00  0.00    -0.329 N 
ATOM     27  H   UNL     1       0.924  -2.416   7.912  0.00  0.00    +0.145 HD
ATOM     28  H   UNL     1       0.268  -3.794   8.614  0.00  0.00    +0.145 HD
ENDBRANCH  23  24
ENDBRANCH  14  23
BRANCH  18  29
ATOM     29  C   UNL     1      -1.269  -5.801   0.411  0.00  0.00    +0.121 C 
BRANCH  29  30
ATOM     30  C   UNL     1      -2.768  -5.702   0.122  0.00  0.00    +0.054 C 
BRANCH  30  31
ATOM     31  C   UNL     1      -3.148  -6.728  -0.915  0.00  0.00    -0.046 A 
ATOM     32  C   UNL     1      -3.097  -6.405  -2.258  0.00  0.00    +0.004 A 
ATOM     33  C   UNL     1      -3.446  -7.346  -3.209  0.00  0.00    +0.000 A 
ATOM     34  C   UNL     1      -3.845  -8.610  -2.817  0.00  0.00    +0.000 A 
ATOM     35  C   UNL     1      -3.895  -8.933  -1.474  0.00  0.00    +0.000 A 
ATOM     36  C   UNL     1      -3.542  -7.993  -0.523  0.00  0.00    +0.004 A 
ENDBRANCH  30  31
ENDBRANCH  29  30
ENDBRANCH  18  29
TORSDOF 5
