REMARK  Name = ZINC20895483
REMARK  9 active torsions:
REMARK  status: ('A' for Active; 'I' for Inactive)
REMARK    1  A    between atoms: C_1  and  C_2
REMARK    2  A    between atoms: C_9  and  N_15
REMARK    3  A    between atoms: C_10  and  C_11
REMARK    4  A    between atoms: C_11  and  O_13
REMARK    5  A    between atoms: O_13  and  C_14
REMARK    6  A    between atoms: C_16  and  C_18
REMARK    7  A    between atoms: C_18  and  N_19
REMARK    8  A    between atoms: C_22  and  C_26
REMARK    9  A    between atoms: C_22  and  C_27
REMARK                            x       y       z     vdW  Elec       q    Type
REMARK                         _______ _______ _______ _____ _____    ______ ____
ROOT
ATOM      1  N   UNL     1      -3.678   6.439   3.033  0.00  0.00    -0.278 N 
ATOM      2  C   UNL     1      -3.328   5.368   2.293  0.00  0.00    +0.236 C 
ATOM      3  O   UNL     1      -3.905   5.136   1.252  0.00  0.00    -0.274 OA
ATOM      4  H   UNL     1      -3.155   6.649   3.977  0.00  0.00    +0.155 HD
ENDROOT
BRANCH   1  12
ATOM      5  C   UNL     1      -9.409  10.957   0.215  0.00  0.00    +0.008 C 
ATOM      6  C   UNL     1      -8.111  10.518   0.896  0.00  0.00    -0.009 C 
ATOM      7  C   UNL     1      -8.286  10.573   2.417  0.00  0.00    +0.008 C 
ATOM      8  C   UNL     1      -6.932  10.381   3.103  0.00  0.00    +0.037 C 
ATOM      9  C   UNL     1      -6.279   9.118   2.555  0.00  0.00    -0.021 A 
ATOM     10  C   UNL     1      -6.688   8.574   1.388  0.00  0.00    -0.004 A 
ATOM     11  S   UNL     1      -5.658   7.151   1.167  0.00  0.00    -0.077 S 
ATOM     12  C   UNL     1      -4.697   7.275   2.603  0.00  0.00    +0.086 A 
ATOM     13  C   UNL     1      -5.199   8.411   3.223  0.00  0.00    +0.091 A 
ATOM     14  C   UNL     1      -7.774   9.077   0.488  0.00  0.00    +0.046 C 
BRANCH  13  15
ATOM     15  C   UNL     1      -4.659   8.882   4.500  0.00  0.00    +0.342 C 
ATOM     16  O   UNL     1      -3.732   9.670   4.515  0.00  0.00    -0.245 OA
BRANCH  15  17
ATOM     17  O   UNL     1      -5.188   8.443   5.660  0.00  0.00    -0.464 OA
ATOM     18  C   UNL     1      -4.603   8.952   6.887  0.00  0.00    +0.280 C 
ENDBRANCH  15  17
ENDBRANCH  13  15
ENDBRANCH   1  12
BRANCH   2  19
ATOM     19  C   UNL     1      -2.220   4.459   2.760  0.00  0.00    +0.214 C 
BRANCH  19  20
ATOM     20  N   UNL     1      -2.033   3.378   1.788  0.00  0.00    -0.215 N 
ATOM     21  C   UNL     1      -1.194   3.443   0.736  0.00  0.00    +0.251 C 
ATOM     22  O   UNL     1      -0.477   4.370   0.427  0.00  0.00    -0.272 OA
ATOM     23  C   UNL     1      -1.332   2.114   0.020  0.00  0.00    +0.135 C 
ATOM     24  N   UNL     1      -2.326   1.387   0.828  0.00  0.00    -0.281 N 
ATOM     25  C   UNL     1      -2.676   2.206   1.836  0.00  0.00    +0.310 C 
ATOM     26  O   UNL     1      -3.484   1.913   2.695  0.00  0.00    -0.252 OA
ATOM     27  C   UNL     1      -1.842   2.322  -1.408  0.00  0.00    +0.047 C 
ATOM     28  H   UNL     1      -2.631   0.370   0.540  0.00  0.00    +0.152 HD
BRANCH  23  29
ATOM     29  C   UNL     1      -0.017   1.378   0.010  0.00  0.00    -0.016 A 
ATOM     30  C   UNL     1       1.171   2.086   0.002  0.00  0.00    +0.006 A 
ATOM     31  C   UNL     1       2.377   1.411  -0.014  0.00  0.00    +0.000 A 
ATOM     32  C   UNL     1       2.396   0.029  -0.021  0.00  0.00    +0.000 A 
ATOM     33  C   UNL     1       1.208  -0.679  -0.014  0.00  0.00    +0.000 A 
ATOM     34  C   UNL     1       0.002  -0.004   0.002  0.00  0.00    +0.006 A 
ENDBRANCH  23  29
ENDBRANCH  19  20
ENDBRANCH   2  19
TORSDOF 6
