REMARK  Name = ZINC10693204
REMARK  8 active torsions:
REMARK  status: ('A' for Active; 'I' for Inactive)
REMARK    1  A    between atoms: C_1  and  C_2
REMARK    2  A    between atoms: N_11  and  C_15
REMARK    3  A    between atoms: C_15  and  C_16
REMARK    4  A    between atoms: C_16  and  O_18
REMARK    5  A    between atoms: O_18  and  C_19
REMARK    6  A    between atoms: C_19  and  C_20
REMARK    7  A    between atoms: C_20  and  C_22
REMARK    8  A    between atoms: C_31  and  C_32
REMARK                            x       y       z     vdW  Elec       q    Type
REMARK                         _______ _______ _______ _____ _____    ______ ____
ROOT
ATOM      1  C   UNL     1      -0.870   4.342   0.036  0.00  0.00    +0.311 C 
ENDROOT
BRANCH   1   2
ATOM      2  C   UNL     1       0.615   4.600   0.024  0.00  0.00    +0.203 C 
ATOM      3  O   UNL     1       1.033   5.741   0.028  0.00  0.00    -0.288 OA
BRANCH   2   4
ATOM      4  C   UNL     1       1.521   3.516   0.008  0.00  0.00    +0.054 A 
ATOM      5  C   UNL     1       1.184   2.080   0.002  0.00  0.00    +0.011 A 
ATOM      6  C   UNL     1      -0.017   1.374   0.010  0.00  0.00    +0.011 A 
ATOM      7  C   UNL     1       0.002  -0.004   0.002  0.00  0.00    +0.001 A 
ATOM      8  C   UNL     1       1.210  -0.687  -0.014  0.00  0.00    +0.002 A 
ATOM      9  C   UNL     1       2.404  -0.001  -0.021  0.00  0.00    +0.026 A 
ATOM     10  C   UNL     1       2.407   1.391  -0.013  0.00  0.00    +0.048 A 
ATOM     11  N   UNL     1       3.424   2.326  -0.017  0.00  0.00    -0.354 N 
ATOM     12  H   UNL     1       4.370   2.113  -0.028  0.00  0.00    +0.166 HD
ATOM     13  C   UNL     1       2.912   3.588  -0.005  0.00  0.00    +0.058 A 
BRANCH  13  14
ATOM     14  C   UNL     1       3.705   4.832  -0.004  0.00  0.00    -0.001 A 
ATOM     15  C   UNL     1       3.366   5.880   0.856  0.00  0.00    +0.010 A 
ATOM     16  C   UNL     1       4.115   7.038   0.856  0.00  0.00    +0.001 A 
ATOM     17  C   UNL     1       5.193   7.168  -0.002  0.00  0.00    +0.000 A 
ATOM     18  C   UNL     1       5.530   6.137  -0.862  0.00  0.00    +0.001 A 
ATOM     19  C   UNL     1       4.794   4.971  -0.868  0.00  0.00    +0.010 A 
ENDBRANCH  13  14
ENDBRANCH   2   4
ENDBRANCH   1   2
BRANCH   1  20
ATOM     20  O   UNL     1      -1.581   5.607   0.052  0.00  0.00    -0.455 OA
BRANCH  20  21
ATOM     21  C   UNL     1      -2.922   5.552   0.064  0.00  0.00    +0.326 C 
ATOM     22  O   UNL     1      -3.483   4.482   0.062  0.00  0.00    -0.249 OA
BRANCH  21  23
ATOM     23  C   UNL     1      -3.728   6.825   0.081  0.00  0.00    +0.238 C 
BRANCH  23  33
ATOM     24  C   UNL     1      -7.808   8.457  -0.513  0.00  0.00    +0.010 C 
ATOM     25  C   UNL     1      -8.286   7.082  -0.983  0.00  0.00    +0.018 C 
ATOM     26  C   UNL     1      -8.381   7.069  -2.510  0.00  0.00    +0.006 C 
ATOM     27  C   UNL     1      -8.839   5.686  -2.980  0.00  0.00    +0.000 C 
ATOM     28  C   UNL     1      -7.825   4.632  -2.532  0.00  0.00    +0.003 C 
ATOM     29  C   UNL     1      -7.728   4.635  -1.004  0.00  0.00    +0.035 C 
ATOM     30  C   UNL     1      -7.298   6.016  -0.522  0.00  0.00    +0.115 C 
ATOM     31  C   UNL     1      -5.907   6.343  -1.018  0.00  0.00    +0.247 C 
ATOM     32  O   UNL     1      -5.543   6.441  -2.170  0.00  0.00    -0.273 OA
ATOM     33  N   UNL     1      -5.157   6.499   0.092  0.00  0.00    -0.213 N 
ATOM     34  C   UNL     1      -5.880   6.324   1.205  0.00  0.00    +0.310 C 
ATOM     35  O   UNL     1      -5.425   6.418   2.328  0.00  0.00    -0.252 OA
ATOM     36  N   UNL     1      -7.168   6.033   0.940  0.00  0.00    -0.285 N 
ATOM     37  H   UNL     1      -7.870   5.867   1.588  0.00  0.00    +0.151 HD
ENDBRANCH  23  33
ENDBRANCH  21  23
ENDBRANCH  20  21
ENDBRANCH   1  20
TORSDOF 7
