REMARK  Name = ZINC44783792
REMARK  6 active torsions:
REMARK  status: ('A' for Active; 'I' for Inactive)
REMARK    1  A    between atoms: C_1  and  C_2
REMARK    2  A    between atoms: C_2  and  C_3
REMARK    3  A    between atoms: C_2  and  C_4
REMARK    4  A    between atoms: C_2  and  C_8
REMARK    5  A    between atoms: N_5  and  O_6
REMARK    6  A    between atoms: N_10  and  C_11
REMARK                            x       y       z     vdW  Elec       q    Type
REMARK                         _______ _______ _______ _____ _____    ______ ____
ROOT
ATOM      1  C   UNL     1       0.707  -0.490  -1.238  0.00  0.00    +0.226 C 
ATOM      2  O   UNL     1       0.120  -1.191  -2.034  0.00  0.00    -0.275 OA
ATOM      3  N   UNL     1       1.991  -0.146  -1.462  0.00  0.00    -0.309 N 
ATOM      4  H   UNL     1       2.461   0.415  -0.825  0.00  0.00    +0.149 HD
ENDROOT
BRANCH   3   5
ATOM      5  C   UNL     1       2.677  -0.618  -2.667  0.00  0.00    +0.035 C 
ATOM      6  C   UNL     1       1.937  -0.111  -3.906  0.00  0.00    +0.029 C 
ATOM      7  C   UNL     1       2.653  -0.605  -5.165  0.00  0.00    -0.008 C 
ATOM      8  C   UNL     1       4.088  -0.075  -5.176  0.00  0.00    +0.007 C 
ATOM      9  C   UNL     1       4.828  -0.582  -3.937  0.00  0.00    -0.008 C 
ATOM     10  C   UNL     1       4.112  -0.089  -2.678  0.00  0.00    +0.029 C 
ATOM     11  C   UNL     1       4.849  -2.112  -3.945  0.00  0.00    +0.007 C 
ATOM     12  C   UNL     1       3.414  -2.642  -3.934  0.00  0.00    -0.008 C 
ATOM     13  C   UNL     1       2.674  -2.135  -5.174  0.00  0.00    +0.007 C 
ATOM     14  C   UNL     1       2.698  -2.148  -2.675  0.00  0.00    +0.029 C 
ENDBRANCH   3   5
BRANCH   1  16
ATOM     15  C   UNL     1      -0.019   1.526   0.010  0.00  0.00    +0.028 C 
ATOM     16  C   UNL     1       0.002  -0.004   0.002  0.00  0.00    +0.099 C 
ATOM     17  C   UNL     1       0.742  -0.511   1.242  0.00  0.00    +0.028 C 
BRANCH  16  18
ATOM     18  C   UNL     1      -1.412  -0.526   0.013  0.00  0.00    +0.146 C 
ATOM     19  N   UNL     1      -2.405   0.300   0.027  0.00  0.00    -0.076 NA
ATOM     20  N   UNL     1      -1.645  -1.883   0.008  0.00  0.00    -0.343 N 
ATOM     21  H   UNL     1      -0.899  -2.503  -0.003  0.00  0.00    +0.144 HD
ATOM     22  H   UNL     1      -2.555  -2.219   0.015  0.00  0.00    +0.144 HD
BRANCH  19  23
ATOM     23  O   UNL     1      -3.733  -0.190   0.037  0.00  0.00    -0.408 OA
ATOM     24  H   UNL     1      -4.408   0.503   0.047  0.00  0.00    +0.328 HD
ENDBRANCH  19  23
ENDBRANCH  16  18
ENDBRANCH   1  16
TORSDOF 4
