REMARK  Name = ZINC12635571
REMARK  12 active torsions:
REMARK  status: ('A' for Active; 'I' for Inactive)
REMARK    1  A    between atoms: C_1  and  C_2
REMARK    2  A    between atoms: C_2  and  O_3
REMARK    3  A    between atoms: O_3  and  C_4
REMARK    4  A    between atoms: C_4  and  C_6
REMARK    5  A    between atoms: C_6  and  C_35
REMARK    6  A    between atoms: C_11  and  C_13
REMARK    7  A    between atoms: C_16  and  C_19
REMARK    8  A    between atoms: C_19  and  C_20
REMARK    9  A    between atoms: C_19  and  C_21
REMARK   10  A    between atoms: N_24  and  C_27
REMARK   11  A    between atoms: C_30  and  O_33
REMARK   12  A    between atoms: O_33  and  C_34
REMARK                            x       y       z     vdW  Elec       q    Type
REMARK                         _______ _______ _______ _____ _____    ______ ____
ROOT
ATOM      1  C   UNL     1       1.280   1.975   0.000  0.00  0.00    +0.041 C 
ATOM      2  C   UNL     1       2.375   1.180  -0.670  0.00  0.00    +0.086 C 
ATOM      3  C   UNL     1       1.866   1.326  -2.159  0.00  0.00    +0.077 C 
ATOM      4  C   UNL     1       1.655   2.793  -2.247  0.00  0.00    -0.027 C 
ATOM      5  C   UNL     1       2.779   0.396  -2.819  0.00  0.00    +0.229 C 
ATOM      6  O   UNL     1       3.271   0.500  -3.922  0.00  0.00    -0.275 OA
ATOM      7  N   UNL     1       2.956  -0.623  -1.916  0.00  0.00    -0.210 N 
ATOM      8  C   UNL     1       2.522  -0.293  -0.659  0.00  0.00    +0.229 C 
ATOM      9  O   UNL     1       2.304  -1.047   0.265  0.00  0.00    -0.275 OA
ATOM     10  C   UNL     1       1.687   2.367   1.423  0.00  0.00    +0.002 C 
ATOM     11  N   UNL     1       1.178   3.175  -0.882  0.00  0.00    +0.395 N 
ATOM     12  H   UNL     1       1.763   3.932  -0.509  0.00  0.00    -0.083 HD
ATOM     13  H   UNL     1       0.202   3.489  -0.930  0.00  0.00    -0.083 HD
ENDROOT
BRANCH   4  14
ATOM     14  C   UNL     1       2.949   3.493  -2.571  0.00  0.00    -0.061 A 
ATOM     15  C   UNL     1       3.872   3.738  -1.571  0.00  0.00    +0.002 A 
ATOM     16  C   UNL     1       5.061   4.376  -1.869  0.00  0.00    +0.004 A 
ATOM     17  C   UNL     1       5.324   4.777  -3.166  0.00  0.00    -0.045 A 
ATOM     18  C   UNL     1       4.400   4.536  -4.165  0.00  0.00    +0.004 A 
ATOM     19  C   UNL     1       3.212   3.895  -3.867  0.00  0.00    +0.002 A 
BRANCH  17  20
ATOM     20  C   UNL     1       6.619   5.477  -3.490  0.00  0.00    +0.013 C 
ATOM     21  C   UNL     1       6.718   6.769  -2.675  0.00  0.00    +0.012 C 
ATOM     22  C   UNL     1       7.795   4.563  -3.140  0.00  0.00    +0.012 C 
ENDBRANCH  17  20
ENDBRANCH   4  14
BRANCH   7  23
ATOM     23  C   UNL     1       3.520  -1.866  -2.245  0.00  0.00    +0.044 A 
ATOM     24  C   UNL     1       3.668  -2.841  -1.268  0.00  0.00    +0.027 A 
ATOM     25  C   UNL     1       4.218  -4.065  -1.593  0.00  0.00    +0.047 A 
ATOM     26  C   UNL     1       4.632  -4.317  -2.893  0.00  0.00    +0.120 A 
ATOM     27  C   UNL     1       4.489  -3.341  -3.868  0.00  0.00    +0.047 A 
ATOM     28  C   UNL     1       3.934  -2.118  -3.546  0.00  0.00    +0.027 A 
BRANCH  26  29
ATOM     29  O   UNL     1       5.178  -5.520  -3.211  0.00  0.00    -0.495 OA
ATOM     30  C   UNL     1       5.295  -6.479  -2.157  0.00  0.00    +0.277 C 
ENDBRANCH  26  29
ENDBRANCH   7  23
BRANCH   1  31
ATOM     31  C   UNL     1      -0.014   1.204   0.009  0.00  0.00    +0.297 C 
ATOM     32  O   UNL     1       0.002  -0.004   0.002  0.00  0.00    -0.252 OA
BRANCH  31  33
ATOM     33  O   UNL     1      -1.186   1.859   0.018  0.00  0.00    -0.466 OA
BRANCH  33  35
ATOM     34  C   UNL     1      -3.619   1.968   0.030  0.00  0.00    +0.048 C 
ATOM     35  C   UNL     1      -2.393   1.052   0.019  0.00  0.00    +0.228 C 
ENDBRANCH  33  35
ENDBRANCH  31  33
ENDBRANCH   1  31
TORSDOF 7
