REMARK  Name = ZINC06244776
REMARK  10 active torsions:
REMARK  status: ('A' for Active; 'I' for Inactive)
REMARK    1  A    between atoms: C_1  and  C_2
REMARK    2  A    between atoms: C_5  and  C_40
REMARK    3  A    between atoms: C_9  and  C_14
REMARK    4  A    between atoms: C_14  and  C_16
REMARK    5  A    between atoms: C_14  and  N_72
REMARK    6  A    between atoms: N_20  and  C_21
REMARK    7  A    between atoms: C_26  and  C_27
REMARK    8  A    between atoms: C_26  and  N_72
REMARK    9  A    between atoms: C_33  and  C_34
REMARK   10  A    between atoms: C_33  and  N_72
REMARK                            x       y       z     vdW  Elec       q    Type
REMARK                         _______ _______ _______ _____ _____    ______ ____
ROOT
ATOM      1  C   UNL     1      -0.335   1.433   0.130  0.00  0.00    +0.040 C 
ENDROOT
BRANCH   1  10
ATOM      2  C   UNL     1      -2.462  -2.245  -2.879  0.00  0.00    +0.044 C 
ATOM      3  C   UNL     1      -2.934  -0.913  -3.400  0.00  0.00    -0.041 A 
ATOM      4  C   UNL     1      -3.770  -0.855  -4.480  0.00  0.00    +0.004 A 
ATOM      5  C   UNL     1      -4.211   0.368  -4.967  0.00  0.00    +0.005 A 
ATOM      6  C   UNL     1      -3.816   1.546  -4.372  0.00  0.00    -0.026 A 
ATOM      7  C   UNL     1      -2.965   1.512  -3.271  0.00  0.00    +0.052 A 
ATOM      8  C   UNL     1      -2.520   0.270  -2.780  0.00  0.00    +0.002 A 
ATOM      9  C   UNL     1      -1.621   0.245  -1.625  0.00  0.00    +0.018 A 
ATOM     10  C   UNL     1      -1.256   1.424  -1.063  0.00  0.00    +0.011 A 
ATOM     11  C   UNL     1      -1.730   2.642  -1.594  0.00  0.00    +0.251 A 
ATOM     12  O   UNL     1      -1.387   3.691  -1.076  0.00  0.00    -0.268 OA
ATOM     13  N   UNL     1      -2.553   2.676  -2.657  0.00  0.00    -0.322 N 
ATOM     14  H   UNL     1      -2.860   3.531  -2.997  0.00  0.00    +0.169 HD
ATOM     15  C   UNL     1      -4.302   2.867  -4.911  0.00  0.00    +0.046 C 
ENDBRANCH   1  10
BRANCH   1  16
ATOM     16  C   UNL     1       0.968   2.090  -0.246  0.00  0.00    +0.143 A 
ATOM     17  N   UNL     1       1.225   3.376  -0.248  0.00  0.00    -0.115 NA
ATOM     18  N   UNL     1       2.445   3.537  -0.629  0.00  0.00    -0.023 NA
ATOM     19  N   UNL     1       2.974   2.389  -0.870  0.00  0.00    -0.044 NA
ATOM     20  N   UNL     1       2.096   1.471  -0.640  0.00  0.00    -0.227 N 
BRANCH  20  21
ATOM     21  C   UNL     1       2.291   0.026  -0.785  0.00  0.00    +0.111 C 
ATOM     22  C   UNL     1       3.458  -0.443   0.107  0.00  0.00    +0.027 C 
ATOM     23  C   UNL     1       4.163  -1.536  -0.734  0.00  0.00    +0.002 C 
ATOM     24  C   UNL     1       4.074  -0.972  -2.174  0.00  0.00    +0.002 C 
ATOM     25  C   UNL     1       2.681  -0.311  -2.235  0.00  0.00    +0.027 C 
ENDBRANCH  20  21
ENDBRANCH   1  16
BRANCH   1  26
ATOM     26  N   UNL     1      -0.960   2.211   1.221  0.00  0.00    +0.395 N 
ATOM     27  H   UNL     1      -0.905   3.210   0.992  0.00  0.00    -0.079 HD
BRANCH  26  28
ATOM     28  C   UNL     1      -0.243   1.968   2.490  0.00  0.00    -0.041 C 
BRANCH  28  29
ATOM     29  C   UNL     1       1.022   2.788   2.494  0.00  0.00    -0.064 A 
ATOM     30  C   UNL     1       2.226   2.203   2.149  0.00  0.00    +0.002 A 
ATOM     31  C   UNL     1       3.385   2.956   2.147  0.00  0.00    +0.000 A 
ATOM     32  C   UNL     1       3.341   4.292   2.501  0.00  0.00    +0.000 A 
ATOM     33  C   UNL     1       2.138   4.875   2.852  0.00  0.00    +0.000 A 
ATOM     34  C   UNL     1       0.978   4.123   2.848  0.00  0.00    +0.002 A 
ENDBRANCH  28  29
ENDBRANCH  26  28
BRANCH  26  35
ATOM     35  C   UNL     1      -2.381   1.829   1.362  0.00  0.00    -0.040 C 
BRANCH  35  36
ATOM     36  C   UNL     1      -3.081   2.870   2.197  0.00  0.00    -0.046 A 
ATOM     37  C   UNL     1      -3.149   2.736   3.576  0.00  0.00    +0.005 A 
ATOM     38  C   UNL     1      -3.799   3.720   4.303  0.00  0.00    +0.020 A 
ATOM     39  C   UNL     1      -4.362   4.791   3.635  0.00  0.00    +0.111 A 
ATOM     40  N   UNL     1      -4.283   4.883   2.322  0.00  0.00    -0.263 NA
ATOM     41  C   UNL     1      -3.669   3.968   1.598  0.00  0.00    +0.112 A 
ENDBRANCH  35  36
ENDBRANCH  26  35
ENDBRANCH   1  26
TORSDOF 8
