REMARK  Name = ZINC25443965
REMARK  9 active torsions:
REMARK  status: ('A' for Active; 'I' for Inactive)
REMARK    1  A    between atoms: C_1  and  N_2
REMARK    2  A    between atoms: N_2  and  C_3
REMARK    3  A    between atoms: N_2  and  C_4
REMARK    4  A    between atoms: C_4  and  C_11
REMARK    5  A    between atoms: C_11  and  N_12
REMARK    6  A    between atoms: C_13  and  C_15
REMARK    7  A    between atoms: C_17  and  S_23
REMARK    8  A    between atoms: S_23  and  N_26
REMARK    9  A    between atoms: N_26  and  C_27
REMARK                            x       y       z     vdW  Elec       q    Type
REMARK                         _______ _______ _______ _____ _____    ______ ____
ROOT
ATOM      1  N   UNL     1       0.596  -0.862   1.497  0.00  0.00    -0.313 N 
ATOM      2  C   UNL     1       0.538   0.479   1.375  0.00  0.00    +0.246 C 
ATOM      3  O   UNL     1       1.531   1.105   1.057  0.00  0.00    -0.270 OA
ATOM      4  H   UNL     1      -0.302  -1.427   1.784  0.00  0.00    +0.149 HD
ENDROOT
BRANCH   2   5
ATOM      5  C   UNL     1      -0.734   1.189   1.621  0.00  0.00    +0.057 A 
ATOM      6  C   UNL     1      -1.878   0.473   1.980  0.00  0.00    +0.044 A 
ATOM      7  C   UNL     1      -3.062   1.141   2.209  0.00  0.00    +0.124 A 
ATOM      8  C   UNL     1      -3.120   2.519   2.082  0.00  0.00    +0.069 A 
ATOM      9  C   UNL     1      -1.990   3.236   1.726  0.00  0.00    +0.042 A 
ATOM     10  C   UNL     1      -0.796   2.580   1.501  0.00  0.00    +0.055 A 
ATOM     11 CL   UNL     1       0.622   3.480   1.062  0.00  0.00    -0.083 Cl
ATOM     12 CL   UNL     1      -4.616   3.352   2.370  0.00  0.00    -0.081 Cl
BRANCH   7  13
ATOM     13  S   UNL     1      -4.506   0.238   2.662  0.00  0.00    +0.060 S 
ATOM     14  O   UNL     1      -4.146  -1.136   2.651  0.00  0.00    -0.153 OA
ATOM     15  O   UNL     1      -5.039   0.877   3.814  0.00  0.00    -0.153 OA
BRANCH  13  16
ATOM     16  N   UNL     1      -5.615   0.447   1.450  0.00  0.00    -0.187 NA
ATOM     17  H   UNL     1      -6.471   1.118   1.614  0.00  0.00    +0.148 HD
BRANCH  16  18
ATOM     18  C   UNL     1      -5.342  -0.079   0.110  0.00  0.00    +0.077 C 
ATOM     19  C   UNL     1      -5.876   0.717  -1.083  0.00  0.00    +0.022 C 
ATOM     20  C   UNL     1      -6.530  -0.611  -0.695  0.00  0.00    +0.022 C 
ENDBRANCH  16  18
ENDBRANCH  13  16
ENDBRANCH   7  13
ENDBRANCH   2   5
BRANCH   1  21
ATOM     21  C   UNL     1       1.856  -1.566   1.247  0.00  0.00    +0.092 C 
BRANCH  21  22
ATOM     22  C   UNL     1       1.688  -3.048   1.586  0.00  0.00    -0.050 C 
ATOM     23  C   UNL     1       2.948  -3.567   2.224  0.00  0.00    -0.010 C 
ATOM     24  C   UNL     1       4.194  -2.760   1.804  0.00  0.00    -0.001 C 
ATOM     25  C   UNL     1       4.200  -2.400   0.306  0.00  0.00    -0.000 C 
ATOM     26  C   UNL     1       3.743  -3.540  -0.562  0.00  0.00    -0.000 C 
ATOM     27  C   UNL     1       2.231  -3.382  -0.823  0.00  0.00    -0.001 C 
ATOM     28  C   UNL     1       1.423  -3.848   0.294  0.00  0.00    -0.010 C 
BRANCH  22  30
ATOM     29  C   UNL     1       0.329  -4.638   2.806  0.00  0.00    -0.096 C 
ATOM     30  N   UNL     1       0.560  -3.218   2.511  0.00  0.00    +0.381 N 
ATOM     31  C   UNL     1       0.773  -2.452   3.747  0.00  0.00    -0.096 C 
ATOM     32  H   UNL     1      -0.342  -2.824   2.021  0.00  0.00    -0.082 HD
ENDBRANCH  22  30
ENDBRANCH  21  22
ENDBRANCH   1  21
TORSDOF 7
