REMARK  Name = ZINC44728499
REMARK  8 active torsions:
REMARK  status: ('A' for Active; 'I' for Inactive)
REMARK    1  A    between atoms: C_1  and  C_2
REMARK    2  A    between atoms: C_11  and  C_12
REMARK    3  A    between atoms: C_12  and  C_13
REMARK    4  A    between atoms: C_13  and  N_14
REMARK    5  A    between atoms: C_15  and  C_17
REMARK    6  A    between atoms: C_28  and  C_30
REMARK    7  A    between atoms: C_32  and  C_36
REMARK    8  A    between atoms: N_33  and  C_35
REMARK                            x       y       z     vdW  Elec       q    Type
REMARK                         _______ _______ _______ _____ _____    ______ ____
ROOT
ATOM      1  C   UNL     1       2.732  -7.928   4.225  0.00  0.00    +0.100 C 
ATOM      2  C   UNL     1       1.867  -8.831   3.317  0.00  0.00    +0.121 C 
ATOM      3  N   UNL     1       2.825  -9.419   2.352  0.00  0.00    -0.295 N 
ATOM      4  C   UNL     1       4.033  -9.709   3.162  0.00  0.00    +0.115 C 
ATOM      5  C   UNL     1       4.152  -8.510   4.123  0.00  0.00    -0.004 C 
ATOM      6  C   UNL     1       5.109  -7.469   3.550  0.00  0.00    -0.010 C 
ATOM      7  C   UNL     1       6.525  -8.052   3.511  0.00  0.00    -0.082 C 
ATOM      8  N   UNL     1       6.937  -8.431   4.868  0.00  0.00    +0.379 N 
ATOM      9  C   UNL     1       6.067  -9.498   5.376  0.00  0.00    -0.082 C 
ATOM     10  C   UNL     1       4.632  -8.977   5.494  0.00  0.00    -0.010 C 
ATOM     11  C   UNL     1       2.641  -9.641   1.035  0.00  0.00    +0.267 C 
ATOM     12  O   UNL     1       3.531 -10.136   0.372  0.00  0.00    -0.268 OA
ATOM     13  H   UNL     1       7.891  -8.758   4.849  0.00  0.00    -0.086 HD
ATOM     14  H   UNL     1       6.871  -7.628   5.475  0.00  0.00    -0.086 HD
ENDROOT
BRANCH  11  15
ATOM     15  C   UNL     1       1.357  -9.282   0.399  0.00  0.00    +0.147 A 
ATOM     16  C   UNL     1       1.014  -9.458  -0.963  0.00  0.00    +0.057 A 
ATOM     17  C   UNL     1      -0.250  -8.989  -1.081  0.00  0.00    +0.037 A 
ATOM     18  N   UNL     1      -0.633  -8.559   0.141  0.00  0.00    -0.271 N 
ATOM     19  N   UNL     1       0.311  -8.742   0.992  0.00  0.00    -0.167 NA
ATOM     20  C   UNL     1      -1.940  -7.975   0.452  0.00  0.00    +0.172 C 
ATOM     21  C   UNL     1      -1.076  -8.951  -2.341  0.00  0.00    +0.065 C 
ENDBRANCH  11  15
BRANCH   1  23
ATOM     22  N   UNL     1       2.879  -5.486   4.589  0.00  0.00    -0.315 N 
ATOM     23  C   UNL     1       2.710  -6.506   3.725  0.00  0.00    +0.218 C 
ATOM     24  O   UNL     1       2.540  -6.281   2.546  0.00  0.00    -0.275 OA
ATOM     25  H   UNL     1       3.015  -5.666   5.532  0.00  0.00    +0.149 HD
BRANCH  22  26
ATOM     26  C   UNL     1       2.858  -4.104   4.103  0.00  0.00    +0.109 C 
BRANCH  26  27
ATOM     27  C   UNL     1       3.072  -3.147   5.277  0.00  0.00    +0.056 C 
BRANCH  27  38
ATOM     28  C   UNL     1       1.909   2.690   3.302  0.00  0.00    +0.046 C 
ATOM     29  C   UNL     1       1.423   1.356   3.807  0.00  0.00    -0.027 A 
ATOM     30  C   UNL     1       0.075   1.132   3.981  0.00  0.00    +0.005 A 
ATOM     31  C   UNL     1      -0.385  -0.092   4.446  0.00  0.00    +0.001 A 
ATOM     32  C   UNL     1       0.492  -1.098   4.738  0.00  0.00    +0.010 A 
ATOM     33  C   UNL     1       1.863  -0.893   4.568  0.00  0.00    +0.003 A 
ATOM     34  C   UNL     1       2.334   0.344   4.093  0.00  0.00    +0.050 A 
ATOM     35  N   UNL     1       3.706   0.256   4.021  0.00  0.00    -0.360 N 
ATOM     36  H   UNL     1       4.296   0.968   3.728  0.00  0.00    +0.165 HD
ATOM     37  C   UNL     1       4.114  -0.986   4.427  0.00  0.00    +0.087 A 
ATOM     38  C   UNL     1       3.050  -1.725   4.777  0.00  0.00    -0.021 A 
ENDBRANCH  27  38
ENDBRANCH  26  27
ENDBRANCH  22  26
ENDBRANCH   1  23
TORSDOF 5
