REMARK  Name = ZINC02374727
REMARK  8 active torsions:
REMARK  status: ('A' for Active; 'I' for Inactive)
REMARK    1  A    between atoms: C_1  and  C_2
REMARK    2  A    between atoms: N_4  and  C_5
REMARK    3  A    between atoms: C_8  and  C_11
REMARK    4  A    between atoms: N_12  and  N_13
REMARK    5  A    between atoms: C_14  and  C_16
REMARK    6  A    between atoms: C_17  and  C_27
REMARK    7  A    between atoms: C_27  and  S_28
REMARK    8  A    between atoms: S_28  and  C_29
REMARK                            x       y       z     vdW  Elec       q    Type
REMARK                         _______ _______ _______ _____ _____    ______ ____
ROOT
ATOM      1  C   UNL     1       2.052   0.711   0.049  0.00  0.00    +0.173 A 
ATOM      2  C   UNL     1       1.286   1.842   0.072  0.00  0.00    +0.089 A 
ATOM      3  N   UNL     1      -0.004   1.439   0.086  0.00  0.00    -0.191 N 
ATOM      4  N   UNL     1       0.009   0.037   0.070  0.00  0.00    -0.058 NA
ATOM      5  N   UNL     1       1.235  -0.357   0.048  0.00  0.00    -0.124 NA
ATOM      6  C   UNL     1      -1.136   2.262   0.107  0.00  0.00    +0.240 A 
ATOM      7  C   UNL     1      -2.529   1.806   0.116  0.00  0.00    +0.206 A 
ATOM      8  N   UNL     1      -3.304   2.855   0.135  0.00  0.00    -0.032 NA
ATOM      9  O   UNL     1      -2.477   4.005   0.139  0.00  0.00    -0.239 OA
ATOM     10  N   UNL     1      -1.131   3.565   0.127  0.00  0.00    -0.027 NA
ATOM     11  N   UNL     1      -2.951   0.481   0.105  0.00  0.00    -0.337 N 
ATOM     12  H   UNL     1      -2.299  -0.236   0.090  0.00  0.00    +0.144 HD
ATOM     13  H   UNL     1      -3.899   0.274   0.112  0.00  0.00    +0.144 HD
ENDROOT
BRANCH   1  15
ATOM     14  N   UNL     1       4.166  -0.517   0.004  0.00  0.00    -0.202 N 
ATOM     15  C   UNL     1       3.526   0.669   0.027  0.00  0.00    +0.285 C 
ATOM     16  O   UNL     1       4.164   1.704   0.030  0.00  0.00    -0.267 OA
ATOM     17  H   UNL     1       3.657  -1.343   0.002  0.00  0.00    +0.178 HD
BRANCH  14  19
ATOM     18  C   UNL     1       6.183  -1.699  -0.039  0.00  0.00    +0.138 C 
ATOM     19  N   UNL     1       5.566  -0.557  -0.017  0.00  0.00    -0.187 NA
BRANCH  18  23
ATOM     20  C   UNL     1      10.426  -1.820  -0.103  0.00  0.00    +0.033 A 
ATOM     21  C   UNL     1       9.698  -3.005  -0.105  0.00  0.00    +0.024 A 
ATOM     22  C   UNL     1       8.321  -2.970  -0.085  0.00  0.00    +0.011 A 
ATOM     23  C   UNL     1       7.656  -1.741  -0.061  0.00  0.00    -0.005 A 
ATOM     24  C   UNL     1       8.391  -0.552  -0.063  0.00  0.00    +0.011 A 
ATOM     25  C   UNL     1       9.768  -0.596  -0.079  0.00  0.00    +0.024 A 
BRANCH  20  29
ATOM     26  C   UNL     1      14.013  -1.018  -0.906  0.00  0.00    +0.109 C 
ATOM     27  C   UNL     1      12.514  -0.918  -0.796  0.00  0.00    +0.214 C 
ATOM     28  O   UNL     1      11.928   0.011  -1.311  0.00  0.00    -0.276 OA
ATOM     29  N   UNL     1      11.823  -1.860  -0.124  0.00  0.00    -0.286 N 
ATOM     30  H   UNL     1      12.295  -2.566   0.344  0.00  0.00    +0.155 HD
ENDBRANCH  20  29
ENDBRANCH  18  23
ENDBRANCH  14  19
ENDBRANCH   1  15
BRANCH   2  31
ATOM     31  C   UNL     1       1.783   3.264   0.081  0.00  0.00    +0.132 C 
BRANCH  31  32
ATOM     32  S   UNL     1       2.007   3.816   1.794  0.00  0.00    -0.119 S 
BRANCH  32  33
ATOM     33  C   UNL     1       2.583   5.474   1.636  0.00  0.00    +0.008 A 
ATOM     34  C   UNL     1       2.762   6.032   0.376  0.00  0.00    +0.015 A 
ATOM     35  C   UNL     1       3.207   7.333   0.256  0.00  0.00    +0.001 A 
ATOM     36  C   UNL     1       3.488   8.077   1.387  0.00  0.00    +0.000 A 
ATOM     37  C   UNL     1       3.317   7.523   2.643  0.00  0.00    +0.001 A 
ATOM     38  C   UNL     1       2.866   6.224   2.771  0.00  0.00    +0.015 A 
ENDBRANCH  32  33
ENDBRANCH  31  32
ENDBRANCH   2  31
TORSDOF 7
