REMARK  Name = ZINC09007517
REMARK  19 active torsions:
REMARK  status: ('A' for Active; 'I' for Inactive)
REMARK    1  A    between atoms: C_1  and  C_2
REMARK    2  A    between atoms: C_2  and  N_75
REMARK    3  A    between atoms: C_3  and  C_4
REMARK    4  A    between atoms: C_3  and  N_75
REMARK    5  A    between atoms: C_5  and  C_6
REMARK    6  A    between atoms: C_5  and  N_75
REMARK    7  A    between atoms: C_6  and  C_7
REMARK    8  A    between atoms: C_7  and  N_8
REMARK    9  A    between atoms: C_9  and  C_26
REMARK   10  A    between atoms: C_12  and  C_13
REMARK   11  A    between atoms: C_12  and  O_21
REMARK   12  A    between atoms: C_16  and  O_19
REMARK   13  A    between atoms: O_19  and  C_20
REMARK   14  A    between atoms: C_29  and  O_35
REMARK   15  A    between atoms: C_30  and  O_32
REMARK   16  A    between atoms: O_32  and  C_33
REMARK   17  A    between atoms: C_33  and  C_34
REMARK   18  A    between atoms: O_35  and  C_36
REMARK   19  A    between atoms: C_36  and  C_37
REMARK                            x       y       z     vdW  Elec       q    Type
REMARK                         _______ _______ _______ _____ _____    ______ ____
ROOT
ATOM      1  N   UNL     1       4.120  -0.420  -1.898  0.00  0.00    -0.284 N 
ATOM      2  C   UNL     1       5.181  -1.413  -1.709  0.00  0.00    +0.145 C 
ATOM      3  C   UNL     1       6.493  -0.676  -1.852  0.00  0.00    +0.071 C 
ATOM      4  C   UNL     1       7.762  -1.214  -1.750  0.00  0.00    +0.133 C 
ATOM      5  C   UNL     1       6.163   0.663  -2.108  0.00  0.00    +0.249 C 
ATOM      6  O   UNL     1       6.954   1.573  -2.282  0.00  0.00    -0.282 OA
ATOM      7  C   UNL     1       4.680   0.778  -2.134  0.00  0.00    +0.288 C 
ATOM      8  O   UNL     1       4.066   1.806  -2.337  0.00  0.00    -0.266 OA
ENDROOT
BRANCH   4   9
ATOM      9  C   UNL     1       8.938  -0.385  -2.058  0.00  0.00    +0.017 A 
ATOM     10  C   UNL     1       9.001   0.325  -3.263  0.00  0.00    +0.015 A 
ATOM     11  C   UNL     1      10.101   1.103  -3.543  0.00  0.00    +0.046 A 
ATOM     12  C   UNL     1      11.154   1.175  -2.638  0.00  0.00    +0.120 A 
ATOM     13  C   UNL     1      11.099   0.467  -1.442  0.00  0.00    +0.046 A 
ATOM     14  C   UNL     1      10.001  -0.309  -1.149  0.00  0.00    +0.015 A 
BRANCH  12  15
ATOM     15  O   UNL     1      12.239   1.940  -2.921  0.00  0.00    -0.495 OA
ATOM     16  C   UNL     1      12.230   2.641  -4.167  0.00  0.00    +0.277 C 
ENDBRANCH  12  15
ENDBRANCH   4   9
BRANCH   2  17
ATOM     17  C   UNL     1       5.078  -2.024  -0.335  0.00  0.00    -0.019 A 
ATOM     18  C   UNL     1       4.769  -1.228   0.752  0.00  0.00    +0.009 A 
ATOM     19  C   UNL     1       4.668  -1.784   2.013  0.00  0.00    +0.050 A 
ATOM     20  C   UNL     1       4.887  -3.141   2.192  0.00  0.00    +0.162 A 
ATOM     21  C   UNL     1       5.203  -3.941   1.098  0.00  0.00    +0.162 A 
ATOM     22  C   UNL     1       5.298  -3.378  -0.164  0.00  0.00    +0.055 A 
BRANCH  21  23
ATOM     23  O   UNL     1       5.419  -5.273   1.268  0.00  0.00    -0.489 OA
BRANCH  23  24
ATOM     24  C   UNL     1       5.739  -6.033   0.100  0.00  0.00    +0.226 C 
ATOM     25  C   UNL     1       5.945  -7.499   0.486  0.00  0.00    +0.048 C 
ENDBRANCH  23  24
ENDBRANCH  21  23
BRANCH  20  26
ATOM     26  O   UNL     1       4.793  -3.689   3.433  0.00  0.00    -0.489 OA
BRANCH  26  27
ATOM     27  C   UNL     1       4.465  -2.808   4.508  0.00  0.00    +0.226 C 
ATOM     28  C   UNL     1       4.405  -3.599   5.816  0.00  0.00    +0.048 C 
ENDBRANCH  26  27
ENDBRANCH  20  26
ENDBRANCH   2  17
BRANCH   4  29
ATOM     29  O   UNL     1       7.923  -2.499  -1.369  0.00  0.00    -0.506 OA
ATOM     30  H   UNL     1       8.897  -2.721  -1.349  0.00  0.00    +0.292 HD
ENDBRANCH   4  29
BRANCH   1  31
ATOM     31  C   UNL     1       2.681  -0.691  -1.844  0.00  0.00    +0.107 C 
BRANCH  31  32
ATOM     32  C   UNL     1       2.182  -0.515  -0.409  0.00  0.00    +0.000 C 
BRANCH  32  33
ATOM     33  C   UNL     1       0.680  -0.798  -0.353  0.00  0.00    -0.077 C 
BRANCH  33  34
ATOM     34  N   UNL     1       0.213  -0.610   1.037  0.00  0.00    +0.379 N 
ATOM     35  H   UNL     1       0.614   0.259   1.409  0.00  0.00    -0.082 HD
BRANCH  34  37
ATOM     36  C   UNL     1      -1.671   0.861   0.520  0.00  0.00    -0.017 C 
ATOM     37  C   UNL     1      -1.262  -0.509   1.065  0.00  0.00    -0.082 C 
ENDBRANCH  34  37
BRANCH  34  38
ATOM     38  C   UNL     1       0.658  -1.742   1.877  0.00  0.00    -0.082 C 
ATOM     39  C   UNL     1       0.359  -1.417   3.342  0.00  0.00    -0.017 C 
ENDBRANCH  34  38
ENDBRANCH  33  34
ENDBRANCH  32  33
ENDBRANCH  31  32
ENDBRANCH   1  31
TORSDOF 14
