REMARK  Name = ZINC21228814
REMARK  12 active torsions:
REMARK  status: ('A' for Active; 'I' for Inactive)
REMARK    1  A    between atoms: C_1  and  C_2
REMARK    2  A    between atoms: C_2  and  O_3
REMARK    3  A    between atoms: O_3  and  C_4
REMARK    4  A    between atoms: C_7  and  C_13
REMARK    5  A    between atoms: C_9  and  O_10
REMARK    6  A    between atoms: O_10  and  C_11
REMARK    7  A    between atoms: C_11  and  C_12
REMARK    8  A    between atoms: C_18  and  C_23
REMARK    9  A    between atoms: C_26  and  C_29
REMARK   10  A    between atoms: C_29  and  C_30
REMARK   11  A    between atoms: C_29  and  C_31
REMARK   12  A    between atoms: C_29  and  C_32
REMARK                            x       y       z     vdW  Elec       q    Type
REMARK                         _______ _______ _______ _____ _____    ______ ____
ROOT
ATOM      1  C   UNL     1       3.671   2.193  -0.021  0.00  0.00    +0.136 C 
ATOM      2  C   UNL     1       3.965   2.649   1.389  0.00  0.00    +0.036 C 
ATOM      3  C   UNL     1       3.903   3.913   1.838  0.00  0.00    +0.017 C 
ATOM      4  C   UNL     1       4.188   4.224   3.298  0.00  0.00    +0.059 C 
ATOM      5  C   UNL     1       5.242   3.259   3.839  0.00  0.00    +0.032 C 
ATOM      6  C   UNL     1       4.687   1.836   3.699  0.00  0.00    +0.088 C 
ATOM      7  C   UNL     1       4.336   1.599   2.262  0.00  0.00    +0.163 C 
ATOM      8  O   UNL     1       4.371   0.463   1.830  0.00  0.00    -0.292 OA
ATOM      9  N   UNL     1       3.581   4.992   1.081  0.00  0.00    -0.316 N 
ATOM     10  C   UNL     1       2.503   5.052   0.204  0.00  0.00    +0.052 A 
ATOM     11  C   UNL     1       1.469   5.957   0.367  0.00  0.00    +0.025 A 
ATOM     12  C   UNL     1       0.481   6.040  -0.600  0.00  0.00    +0.002 A 
ATOM     13  C   UNL     1       0.528   5.225  -1.716  0.00  0.00    +0.002 A 
ATOM     14  C   UNL     1       1.551   4.305  -1.870  0.00  0.00    +0.025 A 
ATOM     15  C   UNL     1       2.532   4.208  -0.896  0.00  0.00    +0.049 A 
ATOM     16  N   UNL     1       3.556   3.267  -0.985  0.00  0.00    -0.331 N 
ATOM     17  H   UNL     1       4.193   5.905   1.136  0.00  0.00    +0.152 HD
ATOM     18  H   UNL     1       4.284   3.350  -1.805  0.00  0.00    +0.147 HD
ENDROOT
BRANCH   1  22
ATOM     19  C   UNL     1       0.002  -0.004   0.004  0.00  0.00    +0.162 A 
ATOM     20  C   UNL     1       0.005   1.348   0.305  0.00  0.00    +0.050 A 
ATOM     21  C   UNL     1       1.193   2.056   0.297  0.00  0.00    +0.009 A 
ATOM     22  C   UNL     1       2.379   1.417  -0.013  0.00  0.00    -0.019 A 
ATOM     23  C   UNL     1       2.383   0.068  -0.315  0.00  0.00    +0.055 A 
ATOM     24  C   UNL     1       1.196  -0.647  -0.308  0.00  0.00    +0.162 A 
BRANCH  19  25
ATOM     25  O   UNL     1      -1.165  -0.702   0.011  0.00  0.00    -0.489 OA
BRANCH  25  27
ATOM     26  C   UNL     1      -3.555  -0.921   0.297  0.00  0.00    +0.048 C 
ATOM     27  C   UNL     1      -2.352   0.023   0.340  0.00  0.00    +0.226 C 
ENDBRANCH  25  27
ENDBRANCH  19  25
BRANCH  24  28
ATOM     28  O   UNL     1       1.199  -1.974  -0.605  0.00  0.00    -0.489 OA
BRANCH  28  29
ATOM     29  C   UNL     1       2.461  -2.567  -0.915  0.00  0.00    +0.226 C 
ATOM     30  C   UNL     1       2.265  -4.054  -1.219  0.00  0.00    +0.048 C 
ENDBRANCH  28  29
ENDBRANCH  24  28
ENDBRANCH   1  22
BRANCH   5  31
ATOM     31  C   UNL     1       5.515   3.562   5.290  0.00  0.00    -0.043 A 
ATOM     32  C   UNL     1       4.490   3.490   6.215  0.00  0.00    +0.004 A 
ATOM     33  C   UNL     1       4.742   3.764   7.547  0.00  0.00    +0.004 A 
ATOM     34  C   UNL     1       6.016   4.118   7.951  0.00  0.00    -0.042 A 
ATOM     35  C   UNL     1       7.039   4.194   7.025  0.00  0.00    +0.004 A 
ATOM     36  C   UNL     1       6.788   3.916   5.694  0.00  0.00    +0.004 A 
BRANCH  34  37
ATOM     37  C   UNL     1       6.289   4.421   9.402  0.00  0.00    -0.013 C 
ATOM     38  C   UNL     1       6.802   5.856   9.536  0.00  0.00    +0.015 C 
ATOM     39  C   UNL     1       4.997   4.264  10.208  0.00  0.00    +0.015 C 
ATOM     40  C   UNL     1       7.343   3.450   9.936  0.00  0.00    +0.015 C 
ENDBRANCH  34  37
ENDBRANCH   5  31
TORSDOF 7
