REMARK  Name = ZINC05118969
REMARK  7 active torsions:
REMARK  status: ('A' for Active; 'I' for Inactive)
REMARK    1  A    between atoms: C_1  and  C_2
REMARK    2  A    between atoms: C_2  and  C_31
REMARK    3  A    between atoms: C_3  and  O_30
REMARK    4  A    between atoms: C_5  and  N_64
REMARK    5  A    between atoms: C_11  and  C_14
REMARK    6  A    between atoms: C_12  and  O_13
REMARK    7  A    between atoms: C_15  and  C_16
REMARK                            x       y       z     vdW  Elec       q    Type
REMARK                         _______ _______ _______ _____ _____    ______ ____
ROOT
ATOM      1  C   UNL     1       2.063  -6.255  -2.270  0.00  0.00    +0.058 C 
ATOM      2  C   UNL     1       1.901  -6.510  -0.770  0.00  0.00    +0.129 C 
ATOM      3  C   UNL     1       3.248  -6.312  -0.064  0.00  0.00    +0.149 C 
ATOM      4  C   UNL     1       3.769  -4.914  -0.406  0.00  0.00    +0.002 C 
ATOM      5  C   UNL     1       2.672  -3.900  -0.204  0.00  0.00    +0.025 A 
ATOM      6  C   UNL     1       1.342  -4.279  -0.129  0.00  0.00    +0.127 A 
ATOM      7  C   UNL     1       0.349  -3.314   0.051  0.00  0.00    +0.047 A 
ATOM      8  C   UNL     1       0.678  -1.985   0.164  0.00  0.00    +0.015 A 
ATOM      9  C   UNL     1       2.019  -1.590   0.087  0.00  0.00    +0.017 A 
ATOM     10  C   UNL     1       3.017  -2.561  -0.097  0.00  0.00    +0.129 A 
ATOM     11  O   UNL     1       0.965  -5.580  -0.223  0.00  0.00    -0.483 OA
ATOM     12  C   UNL     1       1.403  -7.938  -0.542  0.00  0.00    +0.058 C 
ENDROOT
BRANCH   4  18
ATOM     13  C   UNL     1       5.380  -5.750  -2.008  0.00  0.00    -0.078 C 
ATOM     14  C   UNL     1       5.721  -5.811  -3.498  0.00  0.00    -0.019 C 
ATOM     15  C   UNL     1       6.013  -4.397  -4.008  0.00  0.00    -0.004 C 
ATOM     16  C   UNL     1       4.797  -3.505  -3.743  0.00  0.00    -0.019 C 
ATOM     17  C   UNL     1       4.483  -3.511  -2.245  0.00  0.00    -0.078 C 
ATOM     18  N   UNL     1       4.187  -4.897  -1.823  0.00  0.00    +0.386 N 
ATOM     19  H   UNL     1       3.421  -5.265  -2.400  0.00  0.00    -0.081 HD
ENDBRANCH   4  18
BRANCH  10  20
ATOM     20  O   UNL     1       4.319  -2.188  -0.170  0.00  0.00    -0.506 OA
ATOM     21  H   UNL     1       4.772  -2.169   0.684  0.00  0.00    +0.292 HD
ENDBRANCH  10  20
BRANCH   9  22
ATOM     22  C   UNL     1       2.379  -0.172   0.203  0.00  0.00    +0.016 C 
ATOM     23  C   UNL     1       1.415   0.758   0.380  0.00  0.00    +0.068 C 
BRANCH  23  24
ATOM     24  C   UNL     1       1.763   2.128   0.492  0.00  0.00    +0.239 C 
ATOM     25  O   UNL     1       2.918   2.478   0.329  0.00  0.00    -0.271 OA
ATOM     26  N   UNL     1       0.815   3.043   0.773  0.00  0.00    -0.298 N 
ATOM     27  C   UNL     1      -0.560   2.627   1.081  0.00  0.00    +0.108 C 
ATOM     28  C   UNL     1      -0.970   3.249   2.425  0.00  0.00    +0.019 C 
ATOM     29  C   UNL     1      -0.773   4.766   2.359  0.00  0.00    +0.003 C 
ATOM     30  C   UNL     1       0.705   5.079   2.114  0.00  0.00    +0.019 C 
ATOM     31  C   UNL     1       1.135   4.477   0.773  0.00  0.00    +0.108 C 
ENDBRANCH  23  24
ENDBRANCH   9  22
BRANCH   3  32
ATOM     32  O   UNL     1       3.073  -6.429   1.350  0.00  0.00    -0.389 OA
ATOM     33  H   UNL     1       2.744  -7.292   1.636  0.00  0.00    +0.210 HD
ENDBRANCH   3  32
TORSDOF 5
