REMARK  Name = ZINC09311103
REMARK  11 active torsions:
REMARK  status: ('A' for Active; 'I' for Inactive)
REMARK    1  A    between atoms: C_1  and  C_2
REMARK    2  A    between atoms: C_3  and  C_28
REMARK    3  A    between atoms: C_4  and  C_23
REMARK    4  A    between atoms: C_6  and  C_21
REMARK    5  A    between atoms: C_7  and  S_9
REMARK    6  A    between atoms: S_9  and  C_10
REMARK    7  A    between atoms: C_10  and  C_11
REMARK    8  A    between atoms: C_11  and  O_13
REMARK    9  A    between atoms: O_13  and  C_14
REMARK   10  A    between atoms: C_14  and  C_15
REMARK   11  A    between atoms: N_30  and  C_31
REMARK                            x       y       z     vdW  Elec       q    Type
REMARK                         _______ _______ _______ _____ _____    ______ ____
ROOT
ATOM      1  C   UNL     1      -3.583  -2.028   0.119  0.00  0.00    +0.061 C 
ATOM      2  C   UNL     1      -2.283  -2.783   0.221  0.00  0.00    +0.015 C 
ATOM      3  C   UNL     1      -1.123  -2.106   0.214  0.00  0.00    +0.047 C 
ATOM      4  C   UNL     1       0.201  -2.807   0.310  0.00  0.00    +0.134 C 
ATOM      5  C   UNL     1       0.025  -4.219   0.790  0.00  0.00    +0.072 C 
ATOM      6  C   UNL     1      -1.193  -4.824   0.771  0.00  0.00    +0.080 C 
ATOM      7  N   UNL     1      -2.302  -4.148   0.315  0.00  0.00    -0.312 N 
ATOM      8  H   UNL     1      -3.204  -4.706   0.025  0.00  0.00    +0.152 HD
ENDROOT
BRANCH   4   9
ATOM      9  C   UNL     1       0.853  -2.822  -1.049  0.00  0.00    +0.118 A 
ATOM     10  C   UNL     1       2.042  -2.275  -1.357  0.00  0.00    +0.045 A 
ATOM     11  C   UNL     1       2.264  -2.523  -2.731  0.00  0.00    +0.041 A 
ATOM     12  C   UNL     1       1.196  -3.207  -3.180  0.00  0.00    +0.195 A 
ATOM     13  O   UNL     1       0.348  -3.390  -2.156  0.00  0.00    -0.467 OA
ENDBRANCH   4   9
BRANCH   3  14
ATOM     14  C   UNL     1      -1.151  -0.694   0.120  0.00  0.00    +0.247 C 
ATOM     15  O   UNL     1      -2.215  -0.103   0.139  0.00  0.00    -0.270 OA
ATOM     16  N   UNL     1       0.002  -0.003   0.010  0.00  0.00    -0.282 N 
ATOM     17  H   UNL     1       0.958  -0.539  -0.080  0.00  0.00    +0.155 HD
BRANCH  16  18
ATOM     18  C   UNL     1      -0.018   1.396   0.011  0.00  0.00    +0.034 A 
ATOM     19  C   UNL     1      -1.070   2.077  -0.589  0.00  0.00    +0.025 A 
ATOM     20  C   UNL     1      -1.090   3.458  -0.582  0.00  0.00    +0.022 A 
ATOM     21  C   UNL     1      -0.058   4.163   0.013  0.00  0.00    +0.041 A 
ATOM     22  C   UNL     1       0.994   3.487   0.606  0.00  0.00    +0.022 A 
ATOM     23  C   UNL     1       1.016   2.106   0.606  0.00  0.00    +0.025 A 
ATOM     24 CL   UNL     1      -0.083   5.899   0.014  0.00  0.00    -0.084 Cl
ENDBRANCH  16  18
ENDBRANCH   3  14
BRANCH   5  25
ATOM     25  C   UNL     1       1.161  -4.942   1.278  0.00  0.00    +0.098 C 
ATOM     26  N   UNL     1       2.062  -5.516   1.665  0.00  0.00    -0.191 NA
ENDBRANCH   5  25
BRANCH   6  27
ATOM     27  S   UNL     1      -1.352  -6.487   1.333  0.00  0.00    -0.098 S 
BRANCH  27  28
ATOM     28  C   UNL     1      -3.127  -6.735   1.079  0.00  0.00    +0.196 C 
BRANCH  28  29
ATOM     29  C   UNL     1      -3.505  -8.131   1.504  0.00  0.00    +0.318 C 
ATOM     30  O   UNL     1      -2.661  -8.880   1.935  0.00  0.00    -0.250 OA
BRANCH  29  31
ATOM     31  O   UNL     1      -4.779  -8.541   1.404  0.00  0.00    -0.459 OA
BRANCH  31  32
ATOM     32  C   UNL     1      -5.070  -9.898   1.833  0.00  0.00    +0.267 C 
BRANCH  32  33
ATOM     33  C   UNL     1      -6.539 -10.178   1.649  0.00  0.00    -0.010 A 
ATOM     34  C   UNL     1      -7.427  -9.916   2.675  0.00  0.00    +0.007 A 
ATOM     35  C   UNL     1      -8.775 -10.169   2.505  0.00  0.00    +0.000 A 
ATOM     36  C   UNL     1      -9.234 -10.693   1.311  0.00  0.00    +0.000 A 
ATOM     37  C   UNL     1      -8.346 -10.960   0.286  0.00  0.00    +0.000 A 
ATOM     38  C   UNL     1      -6.998 -10.703   0.455  0.00  0.00    +0.007 A 
ENDBRANCH  32  33
ENDBRANCH  31  32
ENDBRANCH  29  31
ENDBRANCH  28  29
ENDBRANCH  27  28
ENDBRANCH   6  27
TORSDOF 10
