REMARK  Name = ZINC35982149
REMARK  8 active torsions:
REMARK  status: ('A' for Active; 'I' for Inactive)
REMARK    1  A    between atoms: C_1  and  C_2
REMARK    2  A    between atoms: C_10  and  O_36
REMARK    3  A    between atoms: C_21  and  N_23
REMARK    4  A    between atoms: N_23  and  C_24
REMARK    5  A    between atoms: C_24  and  C_25
REMARK    6  A    between atoms: C_25  and  N_26
REMARK    7  A    between atoms: C_30  and  N_33
REMARK    8  A    between atoms: O_36  and  C_37
REMARK                            x       y       z     vdW  Elec       q    Type
REMARK                         _______ _______ _______ _____ _____    ______ ____
ROOT
ATOM      1  C   UNL     1      -0.019   1.548   0.011  0.00  0.00    +0.010 C 
ATOM      2  C   UNL     1       0.002  -0.004   0.002  0.00  0.00    -0.041 C 
ATOM      3  C   UNL     1       0.657  -0.403  -1.296  0.00  0.00    +0.006 C 
ATOM      4  C   UNL     1       1.230  -1.811  -1.300  0.00  0.00    +0.009 C 
ATOM      5  C   UNL     1       2.213  -1.957  -0.133  0.00  0.00    +0.023 C 
ATOM      6  C   UNL     1       2.832  -3.331  -0.199  0.00  0.00    -0.041 A 
ATOM      7  C   UNL     1       3.824  -3.546  -1.148  0.00  0.00    +0.008 A 
ATOM      8  C   UNL     1       4.429  -4.780  -1.264  0.00  0.00    +0.046 A 
ATOM      9  C   UNL     1       4.044  -5.815  -0.425  0.00  0.00    +0.120 A 
ATOM     10  C   UNL     1       3.057  -5.600   0.522  0.00  0.00    +0.049 A 
ATOM     11  C   UNL     1       2.449  -4.356   0.635  0.00  0.00    -0.040 A 
ATOM     12  C   UNL     1       1.381  -4.195   1.685  0.00  0.00    +0.036 C 
ATOM     13  C   UNL     1       0.521  -2.962   1.389  0.00  0.00    +0.009 C 
ATOM     14  C   UNL     1       1.453  -1.775   1.173  0.00  0.00    +0.000 C 
ATOM     15  C   UNL     1       0.754  -0.435   1.264  0.00  0.00    -0.003 C 
ATOM     16  C   UNL     1      -0.350  -0.518   2.351  0.00  0.00    +0.003 C 
ATOM     17  C   UNL     1      -1.616  -0.962   1.594  0.00  0.00    -0.015 C 
ATOM     18  C   UNL     1      -1.451  -0.455   0.149  0.00  0.00    -0.065 C 
ENDROOT
BRANCH  18  19
ATOM     19  N   UNL     1      -1.825  -1.498  -0.807  0.00  0.00    +0.382 N 
ATOM     20  H   UNL     1      -1.628  -1.181  -1.745  0.00  0.00    -0.085 HD
ATOM     21  H   UNL     1      -1.295  -2.335  -0.617  0.00  0.00    -0.085 HD
BRANCH  19  22
ATOM     22  C   UNL     1      -3.260  -1.787  -0.679  0.00  0.00    -0.063 C 
BRANCH  22  23
ATOM     23  C   UNL     1      -3.651  -2.877  -1.679  0.00  0.00    +0.084 C 
BRANCH  23  24
ATOM     24  N   UNL     1      -5.082  -3.165  -1.552  0.00  0.00    -0.331 N 
ATOM     25  C   UNL     1      -5.672  -4.128  -2.362  0.00  0.00    +0.119 A 
ATOM     26  C   UNL     1      -4.896  -4.819  -3.288  0.00  0.00    +0.046 A 
ATOM     27  C   UNL     1      -5.496  -5.774  -4.088  0.00  0.00    +0.037 A 
ATOM     28  C   UNL     1      -6.856  -6.009  -3.934  0.00  0.00    +0.144 A 
ATOM     29  C   UNL     1      -7.565  -5.287  -2.995  0.00  0.00    +0.145 A 
ATOM     30  N   UNL     1      -6.965  -4.384  -2.242  0.00  0.00    -0.238 NA
ATOM     31  H   UNL     1      -5.618  -2.684  -0.901  0.00  0.00    +0.147 HD
BRANCH  28  32
ATOM     32  N   UNL     1      -7.540  -7.022  -4.769  0.00  0.00    +0.058 N 
ATOM     33  O   UNL     1      -6.913  -7.651  -5.591  0.00  0.00    -0.126 OA
ATOM     34  O   UNL     1      -8.724  -7.221  -4.630  0.00  0.00    -0.126 OA
ENDBRANCH  28  32
ENDBRANCH  23  24
ENDBRANCH  22  23
ENDBRANCH  19  22
ENDBRANCH  18  19
BRANCH   9  35
ATOM     35  O   UNL     1       4.631  -7.036  -0.533  0.00  0.00    -0.495 OA
ATOM     36  C   UNL     1       5.639  -7.184  -1.534  0.00  0.00    +0.277 C 
ENDBRANCH   9  35
TORSDOF 6
