REMARK  Name = ZINC02813176
REMARK  10 active torsions:
REMARK  status: ('A' for Active; 'I' for Inactive)
REMARK    1  A    between atoms: C_1  and  C_2
REMARK    2  A    between atoms: C_4  and  C_18
REMARK    3  A    between atoms: C_5  and  C_17
REMARK    4  A    between atoms: N_6  and  C_7
REMARK    5  A    between atoms: C_10  and  S_13
REMARK    6  A    between atoms: S_13  and  N_16
REMARK    7  A    between atoms: N_22  and  C_26
REMARK    8  A    between atoms: C_26  and  C_27
REMARK    9  A    between atoms: C_27  and  O_29
REMARK   10  A    between atoms: O_29  and  C_30
REMARK                            x       y       z     vdW  Elec       q    Type
REMARK                         _______ _______ _______ _____ _____    ______ ____
ROOT
ATOM      1  C   UNL     1      -2.194   8.372   1.424  0.00  0.00    +0.064 C 
ATOM      2  C   UNL     1      -1.171   8.157   2.509  0.00  0.00    +0.022 A 
ATOM      3  C   UNL     1      -0.650   9.119   3.291  0.00  0.00    +0.031 A 
ATOM      4  C   UNL     1       0.297   8.457   4.196  0.00  0.00    -0.003 A 
ATOM      5  C   UNL     1       0.259   7.115   3.873  0.00  0.00    +0.028 A 
ATOM      6  N   UNL     1      -0.624   6.953   2.855  0.00  0.00    -0.317 N 
ATOM      7  C   UNL     1       1.058   6.022   4.534  0.00  0.00    +0.064 C 
ENDROOT
BRANCH   4   8
ATOM      8  C   UNL     1       1.115   9.091   5.235  0.00  0.00    +0.030 C 
ATOM      9  C   UNL     1       0.624  10.148   5.935  0.00  0.00    +0.080 C 
ATOM     10  C   UNL     1      -0.731  10.726   5.935  0.00  0.00    +0.261 C 
ATOM     11  O   UNL     1      -1.622  10.267   5.243  0.00  0.00    -0.269 OA
ATOM     12  N   UNL     1      -0.933  11.768   6.725  0.00  0.00    -0.218 N 
ATOM     13  C   UNL     1       0.055  12.273   7.490  0.00  0.00    +0.286 C 
ATOM     14  O   UNL     1       0.011  13.218   8.255  0.00  0.00    -0.262 OA
ATOM     15  S   UNL     1       1.443  11.214   7.114  0.00  0.00    -0.026 S 
BRANCH  12  16
ATOM     16  C   UNL     1      -2.261  12.386   6.768  0.00  0.00    +0.238 C 
BRANCH  16  17
ATOM     17  C   UNL     1      -3.088  11.725   7.840  0.00  0.00    +0.325 C 
ATOM     18  O   UNL     1      -2.617  10.829   8.500  0.00  0.00    -0.249 OA
BRANCH  17  19
ATOM     19  O   UNL     1      -4.348  12.132   8.062  0.00  0.00    -0.467 OA
ATOM     20  C   UNL     1      -5.086  11.450   9.111  0.00  0.00    +0.280 C 
ENDBRANCH  17  19
ENDBRANCH  16  17
ENDBRANCH  12  16
ENDBRANCH   4   8
BRANCH   6  21
ATOM     21  C   UNL     1      -0.935   5.728   2.250  0.00  0.00    +0.047 A 
ATOM     22  C   UNL     1      -0.615   5.510   0.917  0.00  0.00    +0.028 A 
ATOM     23  C   UNL     1      -0.923   4.301   0.323  0.00  0.00    +0.030 A 
ATOM     24  C   UNL     1      -1.549   3.309   1.055  0.00  0.00    +0.105 A 
ATOM     25  C   UNL     1      -1.873   3.525   2.382  0.00  0.00    +0.030 A 
ATOM     26  C   UNL     1      -1.562   4.729   2.983  0.00  0.00    +0.028 A 
BRANCH  24  27
ATOM     27  S   UNL     1      -1.940   1.769   0.294  0.00  0.00    +0.056 S 
ATOM     28  O   UNL     1      -2.031   2.017  -1.102  0.00  0.00    -0.153 OA
ATOM     29  O   UNL     1      -3.012   1.208   1.040  0.00  0.00    -0.153 OA
BRANCH  27  30
ATOM     30  N   UNL     1      -0.638   0.769   0.513  0.00  0.00    -0.204 NA
ATOM     31  H   UNL     1      -0.768  -0.189   0.580  0.00  0.00    +0.144 HD
ATOM     32  H   UNL     1       0.256   1.143   0.571  0.00  0.00    +0.144 HD
ENDBRANCH  27  30
ENDBRANCH  24  27
ENDBRANCH   6  21
TORSDOF 7
