REMARK  Name = ZINC21659086
REMARK  8 active torsions:
REMARK  status: ('A' for Active; 'I' for Inactive)
REMARK    1  A    between atoms: C_1  and  C_2
REMARK    2  A    between atoms: C_7  and  C_8
REMARK    3  A    between atoms: C_20  and  C_22
REMARK    4  A    between atoms: C_24  and  O_29
REMARK    5  A    between atoms: C_27  and  O_28
REMARK    6  A    between atoms: O_29  and  C_30
REMARK    7  A    between atoms: N_31  and  C_38
REMARK    8  A    between atoms: N_34  and  C_37
REMARK                            x       y       z     vdW  Elec       q    Type
REMARK                         _______ _______ _______ _____ _____    ______ ____
ROOT
ATOM      1  C   UNL     1       1.331   1.492   2.827  0.00  0.00    +0.069 A 
ATOM      2  C   UNL     1       2.227   2.428   2.374  0.00  0.00    +0.089 A 
ATOM      3  C   UNL     1       3.578   1.832   2.533  0.00  0.00    +0.082 A 
ATOM      4  C   UNL     1       3.401   0.626   3.052  0.00  0.00    +0.073 A 
ATOM      5  N   UNL     1       2.042   0.405   3.229  0.00  0.00    -0.306 N 
ATOM      6  C   UNL     1       1.566  -0.808   3.750  0.00  0.00    +0.068 A 
ATOM      7  C   UNL     1       0.258  -0.949   4.171  0.00  0.00    +0.028 A 
ATOM      8  C   UNL     1      -0.157  -2.145   4.732  0.00  0.00    +0.002 A 
ATOM      9  C   UNL     1       0.734  -3.194   4.869  0.00  0.00    +0.002 A 
ATOM     10  C   UNL     1       2.042  -3.063   4.439  0.00  0.00    +0.025 A 
ATOM     11  C   UNL     1       2.465  -1.872   3.869  0.00  0.00    +0.052 A 
ATOM     12  N   UNL     1       3.780  -1.730   3.411  0.00  0.00    -0.330 N 
ATOM     13  C   UNL     1       4.432  -0.412   3.440  0.00  0.00    +0.154 C 
ATOM     14  N   UNL     1       4.698   2.582   2.143  0.00  0.00    -0.294 N 
ATOM     15  C   UNL     1       4.472   3.817   1.643  0.00  0.00    +0.332 A 
ATOM     16  O   UNL     1       5.443   4.467   1.307  0.00  0.00    -0.246 OA
ATOM     17  N   UNL     1       3.272   4.385   1.487  0.00  0.00    -0.263 N 
ATOM     18  C   UNL     1       2.102   3.780   1.818  0.00  0.00    +0.266 A 
ATOM     19  O   UNL     1       1.024   4.322   1.664  0.00  0.00    -0.267 OA
ATOM     20  C   UNL     1       3.216   5.737   0.927  0.00  0.00    +0.157 C 
ATOM     21  C   UNL     1       6.056   2.048   2.272  0.00  0.00    +0.154 C 
ATOM     22  H   UNL     1       4.326  -2.606   3.029  0.00  0.00    +0.147 HD
ENDROOT
BRANCH   1  29
ATOM     23  C   UNL     1      -0.265   0.679   0.555  0.00  0.00    +0.044 C 
ATOM     24  C   UNL     1      -0.918   1.253   1.786  0.00  0.00    -0.041 A 
ATOM     25  C   UNL     1      -2.288   1.402   1.837  0.00  0.00    +0.004 A 
ATOM     26  C   UNL     1      -2.890   1.923   2.969  0.00  0.00    +0.000 A 
ATOM     27  C   UNL     1      -2.121   2.311   4.053  0.00  0.00    +0.001 A 
ATOM     28  C   UNL     1      -0.750   2.174   4.014  0.00  0.00    +0.010 A 
ATOM     29  C   UNL     1      -0.136   1.642   2.877  0.00  0.00    +0.003 A 
ENDBRANCH   1  29
BRANCH  13  30
ATOM     30  C   UNL     1       4.946  -0.126   4.827  0.00  0.00    +0.023 A 
ATOM     31  C   UNL     1       4.248   0.727   5.660  0.00  0.00    +0.055 A 
ATOM     32  C   UNL     1       4.721   0.989   6.937  0.00  0.00    +0.121 A 
ATOM     33  C   UNL     1       5.894   0.395   7.378  0.00  0.00    +0.049 A 
ATOM     34  C   UNL     1       6.591  -0.459   6.546  0.00  0.00    +0.049 A 
ATOM     35  C   UNL     1       6.116  -0.725   5.270  0.00  0.00    +0.122 A 
BRANCH  35  36
ATOM     36  O   UNL     1       6.799  -1.569   4.452  0.00  0.00    -0.506 OA
ATOM     37  H   UNL     1       7.727  -2.044   4.803  0.00  0.00    +0.292 HD
ENDBRANCH  35  36
BRANCH  32  38
ATOM     38  O   UNL     1       4.035   1.829   7.757  0.00  0.00    -0.495 OA
ATOM     39  C   UNL     1       4.579   2.054   9.059  0.00  0.00    +0.277 C 
ENDBRANCH  32  38
ENDBRANCH  13  30
TORSDOF 4
