REMARK  Name = ZINC39750693
REMARK  11 active torsions:
REMARK  status: ('A' for Active; 'I' for Inactive)
REMARK    1  A    between atoms: C_1  and  C_2
REMARK    2  A    between atoms: C_2  and  N_3
REMARK    3  A    between atoms: C_4  and  C_22
REMARK    4  A    between atoms: C_7  and  S_8
REMARK    5  A    between atoms: S_8  and  C_9
REMARK    6  A    between atoms: C_9  and  C_11
REMARK    7  A    between atoms: C_9  and  C_12
REMARK    8  A    between atoms: N_14  and  C_15
REMARK    9  A    between atoms: C_20  and  O_21
REMARK   10  A    between atoms: C_22  and  N_23
REMARK   11  A    between atoms: C_24  and  C_26
REMARK                            x       y       z     vdW  Elec       q    Type
REMARK                         _______ _______ _______ _____ _____    ______ ____
ROOT
ATOM      1  N   UNL     1      -1.339  -0.550   0.009  0.00  0.00    -0.305 N 
ATOM      2  C   UNL     1      -2.100  -0.843   1.107  0.00  0.00    +0.151 A 
ATOM      3  N   UNL     1      -3.256  -1.264   0.677  0.00  0.00    -0.132 NA
ATOM      4  N   UNL     1      -3.278  -1.256  -0.608  0.00  0.00    -0.122 NA
ATOM      5  C   UNL     1      -2.129  -0.822  -1.071  0.00  0.00    +0.192 A 
ENDROOT
BRANCH   1   7
ATOM      6  C   UNL     1       0.015   1.486   0.012  0.00  0.00    +0.027 C 
ATOM      7  C   UNL     1       0.035  -0.044  -0.006  0.00  0.00    +0.122 C 
ENDBRANCH   1   7
BRANCH   5   8
ATOM      8  S   UNL     1      -1.689  -0.630  -2.767  0.00  0.00    -0.074 S 
BRANCH   8   9
ATOM      9  C   UNL     1      -3.171  -1.160  -3.668  0.00  0.00    +0.137 C 
ATOM     10  C   UNL     1      -4.321  -0.195  -3.371  0.00  0.00    +0.029 C 
BRANCH   9  11
ATOM     11  C   UNL     1      -2.886  -1.161  -5.148  0.00  0.00    +0.230 C 
ATOM     12  O   UNL     1      -1.958  -0.514  -5.587  0.00  0.00    -0.274 OA
ATOM     13  N   UNL     1      -3.661  -1.881  -5.983  0.00  0.00    -0.282 N 
ATOM     14  H   UNL     1      -4.361  -2.449  -5.626  0.00  0.00    +0.155 HD
BRANCH  13  15
ATOM     15  C   UNL     1      -3.454  -1.808  -7.367  0.00  0.00    +0.075 A 
ATOM     16  C   UNL     1      -2.171  -1.653  -7.872  0.00  0.00    +0.027 A 
ATOM     17  C   UNL     1      -1.970  -1.583  -9.237  0.00  0.00    +0.002 A 
ATOM     18  C   UNL     1      -3.045  -1.666 -10.103  0.00  0.00    +0.004 A 
ATOM     19  C   UNL     1      -4.327  -1.820  -9.608  0.00  0.00    +0.047 A 
ATOM     20  C   UNL     1      -4.536  -1.897  -8.240  0.00  0.00    +0.138 A 
BRANCH  20  21
ATOM     21  O   UNL     1      -5.795  -2.055  -7.751  0.00  0.00    -0.505 OA
ATOM     22  H   UNL     1      -6.257  -1.223  -7.579  0.00  0.00    +0.292 HD
ENDBRANCH  20  21
ENDBRANCH  13  15
ENDBRANCH   9  11
ENDBRANCH   8   9
ENDBRANCH   5   8
BRANCH   2  23
ATOM     23  C   UNL     1      -1.678  -0.707   2.547  0.00  0.00    +0.181 C 
BRANCH  23  24
ATOM     24  N   UNL     1      -2.018   0.634   3.030  0.00  0.00    -0.304 N 
ATOM     25  C   UNL     1      -1.732   0.986   4.300  0.00  0.00    +0.245 C 
ATOM     26  O   UNL     1      -1.193   0.190   5.044  0.00  0.00    -0.270 OA
ATOM     27  H   UNL     1      -2.449   1.269   2.436  0.00  0.00    +0.149 HD
BRANCH  25  28
ATOM     28  C   UNL     1      -2.075   2.338   4.787  0.00  0.00    +0.051 A 
ATOM     29  C   UNL     1      -2.700   3.252   3.936  0.00  0.00    +0.014 A 
ATOM     30  C   UNL     1      -3.018   4.513   4.397  0.00  0.00    +0.001 A 
ATOM     31  C   UNL     1      -2.719   4.873   5.700  0.00  0.00    +0.001 A 
ATOM     32  C   UNL     1      -2.099   3.974   6.548  0.00  0.00    +0.016 A 
ATOM     33  C   UNL     1      -1.781   2.706   6.101  0.00  0.00    +0.030 A 
ATOM     34 BR   UNL     1      -0.941   1.474   7.265  0.00  0.00    -0.050 Br
ENDBRANCH  25  28
ENDBRANCH  23  24
ENDBRANCH   2  23
TORSDOF 9
