REMARK  Name = ZINC39559475
REMARK  5 active torsions:
REMARK  status: ('A' for Active; 'I' for Inactive)
REMARK    1  A    between atoms: C_5  and  C_7
REMARK    2  A    between atoms: C_8  and  C_9
REMARK    3  A    between atoms: N_11  and  C_12
REMARK    4  A    between atoms: C_12  and  C_13
REMARK    5  A    between atoms: N_15  and  C_16
REMARK                            x       y       z     vdW  Elec       q    Type
REMARK                         _______ _______ _______ _____ _____    ______ ____
ROOT
ATOM      1  C   UNL     1      -2.408  -7.006  -0.012  0.00  0.00    +0.234 C 
ATOM      2  O   UNL     1      -3.345  -6.236   0.011  0.00  0.00    -0.274 OA
ATOM      3  N   UNL     1      -2.629  -8.336  -0.019  0.00  0.00    -0.284 N 
ATOM      4  H   UNL     1      -1.883  -8.951  -0.105  0.00  0.00    +0.155 HD
ENDROOT
BRANCH   3   5
ATOM      5  C   UNL     1      -3.934  -8.830   0.097  0.00  0.00    +0.036 A 
ATOM      6  C   UNL     1      -4.171 -10.009   0.795  0.00  0.00    +0.025 A 
ATOM      7  C   UNL     1      -5.455 -10.501   0.912  0.00  0.00    +0.029 A 
ATOM      8  C   UNL     1      -6.514  -9.818   0.333  0.00  0.00    +0.067 A 
ATOM      9  C   UNL     1      -6.280  -8.634  -0.369  0.00  0.00    +0.069 A 
ATOM     10  C   UNL     1      -4.989  -8.139  -0.481  0.00  0.00    +0.051 A 
ATOM     11  N   UNL     1      -7.516  -8.186  -0.829  0.00  0.00    -0.306 N 
ATOM     12  H   UNL     1      -7.671  -7.383  -1.351  0.00  0.00    +0.170 HD
ATOM     13  C   UNL     1      -8.460  -9.058  -0.425  0.00  0.00    +0.325 A 
ATOM     14  O   UNL     1      -9.650  -8.960  -0.660  0.00  0.00    -0.247 OA
ATOM     15  N   UNL     1      -7.887 -10.053   0.278  0.00  0.00    -0.306 N 
ATOM     16  H   UNL     1      -8.351 -10.806   0.677  0.00  0.00    +0.170 HD
ENDBRANCH   3   5
BRANCH   1  17
ATOM     17  C   UNL     1      -0.998  -6.476  -0.031  0.00  0.00    +0.200 C 
BRANCH  17  20
ATOM     18  C   UNL     1       0.128  -4.315  -0.032  0.00  0.00    +0.237 C 
ATOM     19  O   UNL     1       1.193  -4.903  -0.055  0.00  0.00    -0.271 OA
ATOM     20  N   UNL     1      -1.026  -5.012  -0.018  0.00  0.00    -0.303 N 
ATOM     21  H   UNL     1      -1.875  -4.543   0.000  0.00  0.00    +0.149 HD
BRANCH  18  23
ATOM     22  C   UNL     1       1.254  -2.155  -0.033  0.00  0.00    +0.014 C 
ATOM     23  C   UNL     1       0.100  -2.852  -0.019  0.00  0.00    +0.068 C 
BRANCH  22  28
ATOM     24  C   UNL     1      -0.015   1.374   0.018  0.00  0.00    +0.001 A 
ATOM     25  C   UNL     1       1.172   2.087   0.004  0.00  0.00    +0.001 A 
ATOM     26  C   UNL     1       2.385   1.423  -0.022  0.00  0.00    +0.020 A 
ATOM     27  C   UNL     1       2.421   0.043  -0.034  0.00  0.00    +0.048 A 
ATOM     28  C   UNL     1       1.226  -0.684  -0.020  0.00  0.00    -0.007 A 
ATOM     29  C   UNL     1       0.003  -0.004   0.006  0.00  0.00    +0.009 A 
ATOM     30 CL   UNL     1       3.945  -0.788  -0.067  0.00  0.00    -0.083 Cl
ENDBRANCH  22  28
ENDBRANCH  18  23
ENDBRANCH  17  20
ENDBRANCH   1  17
TORSDOF 5
