REMARK  Name = ZINC28226148
REMARK  6 active torsions:
REMARK  status: ('A' for Active; 'I' for Inactive)
REMARK    1  A    between atoms: C_1  and  C_2
REMARK    2  A    between atoms: C_2  and  C_3
REMARK    3  A    between atoms: C_5  and  C_22
REMARK    4  A    between atoms: C_6  and  N_8
REMARK    5  A    between atoms: C_9  and  C_11
REMARK    6  A    between atoms: C_17  and  C_19
REMARK                            x       y       z     vdW  Elec       q    Type
REMARK                         _______ _______ _______ _____ _____    ______ ____
ROOT
ATOM      1  N   UNL     1       3.724   1.602  -0.025  0.00  0.00    -0.279 N 
ATOM      2  C   UNL     1       4.698   0.671  -0.040  0.00  0.00    +0.221 C 
ATOM      3  O   UNL     1       4.410  -0.507  -0.043  0.00  0.00    -0.275 OA
ATOM      4  H   UNL     1       3.985   2.671  -0.022  0.00  0.00    +0.155 HD
ENDROOT
BRANCH   2   5
ATOM      5  C   UNL     1       6.144   1.093  -0.051  0.00  0.00    +0.089 C 
ATOM      6  C   UNL     1       6.420   1.935  -1.299  0.00  0.00    +0.013 C 
ATOM      7  C   UNL     1       7.888   2.363  -1.311  0.00  0.00    +0.001 C 
ATOM      8  C   UNL     1       8.782   1.121  -1.326  0.00  0.00    +0.001 C 
ATOM      9  C   UNL     1       8.507   0.280  -0.079  0.00  0.00    +0.015 C 
ATOM     10  C   UNL     1       7.038  -0.149  -0.067  0.00  0.00    +0.114 C 
BRANCH  10  11
ATOM     11  C   UNL     1       6.767  -0.978   1.162  0.00  0.00    +0.360 C 
ATOM     12  O   UNL     1       5.943  -0.613   1.968  0.00  0.00    -0.246 OA
ATOM     13  O   UNL     1       7.440  -2.122   1.362  0.00  0.00    -0.246 OA
ENDBRANCH  10  11
ENDBRANCH   2   5
BRANCH   1  17
ATOM     14  C   UNL     1       0.002  -0.004   0.002  0.00  0.00    -0.008 A 
ATOM     15  C   UNL     1      -0.016   1.341   0.009  0.00  0.00    +0.026 A 
ATOM     16  C   UNL     1       1.259   2.017   0.001  0.00  0.00    +0.065 A 
ATOM     17  C   UNL     1       2.393   1.214  -0.014  0.00  0.00    +0.084 A 
ATOM     18  S   UNL     1       1.740  -0.390  -0.017  0.00  0.00    -0.078 S 
BRANCH  16  19
ATOM     19  C   UNL     1       1.353   3.481   0.007  0.00  0.00    +0.244 C 
ATOM     20  O   UNL     1       2.444   4.020  -0.001  0.00  0.00    -0.270 OA
ATOM     21  N   UNL     1       0.232   4.228   0.022  0.00  0.00    -0.325 N 
ATOM     22  H   UNL     1       0.303   5.326   0.027  0.00  0.00    +0.145 HD
ATOM     23  H   UNL     1      -0.754   3.741   0.029  0.00  0.00    +0.145 HD
ENDBRANCH  16  19
BRANCH  14  25
ATOM     24  C   UNL     1      -1.577  -1.269  -1.431  0.00  0.00    +0.009 C 
ATOM     25  C   UNL     1      -1.167  -0.955   0.009  0.00  0.00    +0.039 C 
ENDBRANCH  14  25
ENDBRANCH   1  17
TORSDOF 5
