REMARK  Name = ZINC08472743
REMARK  5 active torsions:
REMARK  status: ('A' for Active; 'I' for Inactive)
REMARK    1  A    between atoms: C_1  and  O_2
REMARK    2  A    between atoms: O_2  and  C_3
REMARK    3  A    between atoms: C_6  and  O_19
REMARK    4  A    between atoms: C_7  and  C_9
REMARK    5  A    between atoms: N_10  and  N_11
REMARK                            x       y       z     vdW  Elec       q    Type
REMARK                         _______ _______ _______ _____ _____    ______ ____
ROOT
ATOM      1  C   UNL     1      -2.553  -4.142   0.015  0.00  0.00    +0.142 C 
ATOM      2  N   UNL     1      -3.704  -4.742   0.022  0.00  0.00    -0.187 NA
ENDROOT
BRANCH   2   3
ATOM      3  N   UNL     1      -3.764  -6.142   0.021  0.00  0.00    -0.205 N 
ATOM      4  C   UNL     1      -4.995  -6.784   0.028  0.00  0.00    +0.235 A 
ATOM      5  N   UNL     1      -5.196  -8.136   0.033  0.00  0.00    -0.303 N 
ATOM      6  H   UNL     1      -4.503  -8.815   0.032  0.00  0.00    +0.171 HD
ATOM      7  C   UNL     1      -6.543  -8.362   0.041  0.00  0.00    +0.201 A 
ATOM      8  S   UNL     1      -7.328  -9.940   0.051  0.00  0.00    -0.009 SA
ATOM      9  N   UNL     1      -7.149  -7.199   0.041  0.00  0.00    -0.120 NA
ATOM     10  N   UNL     1      -6.168  -6.199   0.038  0.00  0.00    -0.111 NA
ATOM     11  H   UNL     1      -2.946  -6.663   0.014  0.00  0.00    +0.177 HD
ENDBRANCH   2   3
BRANCH   1  16
ATOM     12  C   UNL     1      -1.201  -0.638   0.010  0.00  0.00    +0.121 A 
ATOM     13  C   UNL     1      -2.375   0.104   0.019  0.00  0.00    +0.049 A 
ATOM     14  C   UNL     1      -3.602  -0.531   0.027  0.00  0.00    +0.049 A 
ATOM     15  C   UNL     1      -3.670  -1.914   0.026  0.00  0.00    +0.126 A 
ATOM     16  C   UNL     1      -2.489  -2.670   0.016  0.00  0.00    +0.039 A 
ATOM     17  C   UNL     1      -1.253  -2.020   0.003  0.00  0.00    +0.058 A 
BRANCH  12  19
ATOM     18  C   UNL     1      -0.017   1.425   0.010  0.00  0.00    +0.277 C 
ATOM     19  O   UNL     1       0.002  -0.004   0.002  0.00  0.00    -0.495 OA
ENDBRANCH  12  19
BRANCH  15  20
ATOM     20  O   UNL     1      -4.877  -2.538   0.034  0.00  0.00    -0.506 OA
ATOM     21  H   UNL     1      -5.233  -2.717  -0.847  0.00  0.00    +0.292 HD
ENDBRANCH  15  20
ENDBRANCH   1  16
TORSDOF 4
