REMARK  Name = ZINC19799385
REMARK  10 active torsions:
REMARK  status: ('A' for Active; 'I' for Inactive)
REMARK    1  A    between atoms: C_1  and  C_2
REMARK    2  A    between atoms: C_5  and  C_8
REMARK    3  A    between atoms: C_14  and  C_15
REMARK    4  A    between atoms: C_18  and  O_23
REMARK    5  A    between atoms: C_19  and  O_21
REMARK    6  A    between atoms: O_21  and  C_22
REMARK    7  A    between atoms: O_23  and  C_24
REMARK    8  A    between atoms: C_24  and  C_25
REMARK    9  A    between atoms: C_25  and  O_26
REMARK   10  A    between atoms: O_26  and  C_27
REMARK                            x       y       z     vdW  Elec       q    Type
REMARK                         _______ _______ _______ _____ _____    ______ ____
ROOT
ATOM      1  C   UNL     1      -1.702  -5.252  -0.534  0.00  0.00    +0.130 C 
ATOM      2  N   UNL     1      -1.027  -5.696   0.498  0.00  0.00    -0.164 NA
ATOM      3  N   UNL     1      -0.955  -7.045   0.773  0.00  0.00    -0.153 N 
ATOM      4  C   UNL     1      -0.339  -7.624   1.903  0.00  0.00    +0.132 C 
ATOM      5  N   UNL     1      -0.133  -6.976   3.019  0.00  0.00    -0.385 N 
ATOM      6  C   UNL     1       0.054  -9.047   1.698  0.00  0.00    +0.079 C 
ATOM      7  C   UNL     1       1.170  -9.586   2.297  0.00  0.00    +0.024 C 
ATOM      8  C   UNL     1      -0.824  -9.853   0.813  0.00  0.00    +0.273 C 
ATOM      9  O   UNL     1      -0.883 -11.067   0.924  0.00  0.00    -0.268 OA
ATOM     10  N   UNL     1      -1.554  -9.205  -0.117  0.00  0.00    -0.152 NA
ATOM     11  C   UNL     1      -1.565  -7.896  -0.125  0.00  0.00    +0.181 C 
ATOM     12  S   UNL     1      -2.325  -6.763  -1.258  0.00  0.00    -0.033 S 
ATOM     13  H   UNL     1      -0.408  -6.050   3.100  0.00  0.00    +0.157 HD
ATOM     14  H   UNL     1       0.296  -7.422   3.766  0.00  0.00    +0.157 HD
ENDROOT
BRANCH   1  19
ATOM     15  C   UNL     1      -2.483   0.178  -2.277  0.00  0.00    +0.044 C 
ATOM     16  C   UNL     1      -2.279  -1.244  -1.821  0.00  0.00    -0.050 A 
ATOM     17  C   UNL     1      -2.852  -2.284  -2.530  0.00  0.00    +0.004 A 
ATOM     18  C   UNL     1      -2.669  -3.588  -2.117  0.00  0.00    +0.011 A 
ATOM     19  C   UNL     1      -1.903  -3.856  -0.983  0.00  0.00    +0.009 A 
ATOM     20  C   UNL     1      -1.327  -2.803  -0.272  0.00  0.00    +0.011 A 
ATOM     21  C   UNL     1      -1.513  -1.503  -0.698  0.00  0.00    +0.004 A 
ENDBRANCH   1  19
BRANCH   7  22
ATOM     22  C   UNL     1       1.627 -10.926   1.925  0.00  0.00    -0.021 A 
ATOM     23  C   UNL     1       1.529 -11.358   0.594  0.00  0.00    +0.012 A 
ATOM     24  C   UNL     1       1.960 -12.619   0.247  0.00  0.00    +0.050 A 
ATOM     25  C   UNL     1       2.490 -13.466   1.212  0.00  0.00    +0.162 A 
ATOM     26  C   UNL     1       2.590 -13.045   2.539  0.00  0.00    +0.162 A 
ATOM     27  C   UNL     1       2.168 -11.781   2.896  0.00  0.00    +0.057 A 
BRANCH  26  28
ATOM     28  O   UNL     1       3.109 -13.879   3.479  0.00  0.00    -0.491 OA
ATOM     29  C   UNL     1       3.182 -13.383   4.817  0.00  0.00    +0.277 C 
ENDBRANCH  26  28
BRANCH  25  30
ATOM     30  O   UNL     1       2.912 -14.709   0.864  0.00  0.00    -0.485 OA
BRANCH  30  31
ATOM     31  C   UNL     1       2.780 -15.076  -0.511  0.00  0.00    +0.270 C 
BRANCH  31  32
ATOM     32  C   UNL     1       3.304 -16.500  -0.711  0.00  0.00    +0.270 C 
BRANCH  32  33
ATOM     33  O   UNL     1       2.476 -17.417   0.007  0.00  0.00    -0.489 OA
BRANCH  33  34
ATOM     34  C   UNL     1       2.806 -18.733  -0.066  0.00  0.00    +0.121 A 
ATOM     35  C   UNL     1       3.908 -19.133  -0.808  0.00  0.00    +0.045 A 
ATOM     36  C   UNL     1       4.242 -20.472  -0.880  0.00  0.00    +0.004 A 
ATOM     37  C   UNL     1       3.479 -21.413  -0.213  0.00  0.00    +0.000 A 
ATOM     38  C   UNL     1       2.380 -21.017   0.526  0.00  0.00    +0.004 A 
ATOM     39  C   UNL     1       2.045 -19.679   0.606  0.00  0.00    +0.045 A 
ENDBRANCH  33  34
ENDBRANCH  32  33
ENDBRANCH  31  32
ENDBRANCH  30  31
ENDBRANCH  25  30
ENDBRANCH   7  22
TORSDOF 8
