REMARK  Name = ZINC10247373
REMARK  13 active torsions:
REMARK  status: ('A' for Active; 'I' for Inactive)
REMARK    1  A    between atoms: C_1  and  C_2
REMARK    2  A    between atoms: C_4  and  C_18
REMARK    3  A    between atoms: C_5  and  C_17
REMARK    4  A    between atoms: N_6  and  C_7
REMARK    5  A    between atoms: C_10  and  S_13
REMARK    6  A    between atoms: S_13  and  N_16
REMARK    7  A    between atoms: C_18  and  C_20
REMARK    8  A    between atoms: C_20  and  O_21
REMARK    9  A    between atoms: O_21  and  C_22
REMARK   10  A    between atoms: C_22  and  C_24
REMARK   11  A    between atoms: C_26  and  N_32
REMARK   12  A    between atoms: C_29  and  N_30
REMARK   13  A    between atoms: N_30  and  C_31
REMARK                            x       y       z     vdW  Elec       q    Type
REMARK                         _______ _______ _______ _____ _____    ______ ____
ROOT
ATOM      1  C   UNL     1      -5.350   3.161   3.667  0.00  0.00    +0.064 C 
ATOM      2  C   UNL     1      -4.413   3.332   4.834  0.00  0.00    +0.022 A 
ATOM      3  C   UNL     1      -4.777   3.674   6.082  0.00  0.00    +0.034 A 
ATOM      4  C   UNL     1      -3.541   3.727   6.874  0.00  0.00    +0.042 A 
ATOM      5  C   UNL     1      -2.518   3.397   6.005  0.00  0.00    +0.032 A 
ATOM      6  N   UNL     1      -3.057   3.162   4.793  0.00  0.00    -0.317 N 
ATOM      7  C   UNL     1      -1.054   3.316   6.352  0.00  0.00    +0.064 C 
ENDROOT
BRANCH   6   8
ATOM      8  C   UNL     1      -2.330   2.799   3.651  0.00  0.00    +0.047 A 
ATOM      9  C   UNL     1      -2.520   1.551   3.073  0.00  0.00    +0.028 A 
ATOM     10  C   UNL     1      -1.802   1.196   1.948  0.00  0.00    +0.030 A 
ATOM     11  C   UNL     1      -0.895   2.082   1.397  0.00  0.00    +0.105 A 
ATOM     12  C   UNL     1      -0.700   3.324   1.973  0.00  0.00    +0.030 A 
ATOM     13  C   UNL     1      -1.419   3.687   3.095  0.00  0.00    +0.028 A 
BRANCH  11  14
ATOM     14  S   UNL     1       0.018   1.625  -0.039  0.00  0.00    +0.056 S 
ATOM     15  O   UNL     1       0.056   0.205  -0.062  0.00  0.00    -0.153 OA
ATOM     16  O   UNL     1       1.197   2.419  -0.040  0.00  0.00    -0.153 OA
BRANCH  14  17
ATOM     17  N   UNL     1      -0.870   2.096  -1.355  0.00  0.00    -0.204 NA
ATOM     18  H   UNL     1      -1.725   2.536  -1.231  0.00  0.00    +0.144 HD
ATOM     19  H   UNL     1      -0.534   1.933  -2.250  0.00  0.00    +0.144 HD
ENDBRANCH  14  17
ENDBRANCH  11  14
ENDBRANCH   6   8
BRANCH   4  20
ATOM     20  C   UNL     1      -3.418   4.062   8.294  0.00  0.00    +0.202 C 
ATOM     21  O   UNL     1      -2.326   4.068   8.824  0.00  0.00    -0.288 OA
BRANCH  20  22
ATOM     22  C   UNL     1      -4.647   4.399   9.098  0.00  0.00    +0.311 C 
BRANCH  22  23
ATOM     23  O   UNL     1      -4.264   4.692  10.468  0.00  0.00    -0.453 OA
BRANCH  23  24
ATOM     24  C   UNL     1      -5.253   5.015  11.324  0.00  0.00    +0.341 C 
ATOM     25  O   UNL     1      -6.405   5.051  10.937  0.00  0.00    -0.245 OA
BRANCH  24  26
ATOM     26  C   UNL     1      -4.940   5.324  12.730  0.00  0.00    +0.082 A 
ATOM     27  C   UNL     1      -3.637   5.166  13.211  0.00  0.00    +0.049 A 
ATOM     28  C   UNL     1      -3.349   5.463  14.524  0.00  0.00    +0.127 A 
ATOM     29  C   UNL     1      -4.347   5.907  15.377  0.00  0.00    +0.034 A 
ATOM     30  C   UNL     1      -5.639   6.063  14.920  0.00  0.00    +0.026 A 
ATOM     31  C   UNL     1      -5.948   5.774  13.596  0.00  0.00    +0.041 A 
BRANCH  31  32
ATOM     32  N   UNL     1      -7.248   5.931  13.133  0.00  0.00    -0.346 N 
ATOM     33  C   UNL     1      -8.271   6.515  14.005  0.00  0.00    +0.125 C 
ATOM     34  H   UNL     1      -7.479   5.654  12.233  0.00  0.00    +0.146 HD
ENDBRANCH  31  32
BRANCH  28  35
ATOM     35  N   UNL     1      -1.967   5.299  15.030  0.00  0.00    +0.056 N 
ATOM     36  O   UNL     1      -1.710   5.556  16.193  0.00  0.00    -0.126 OA
ATOM     37  O   UNL     1      -1.088   4.909  14.284  0.00  0.00    -0.126 OA
ENDBRANCH  28  35
ENDBRANCH  24  26
ENDBRANCH  23  24
ENDBRANCH  22  23
ENDBRANCH  20  22
ENDBRANCH   4  20
TORSDOF 10
