REMARK  Name = ZINC64097877
REMARK  9 active torsions:
REMARK  status: ('A' for Active; 'I' for Inactive)
REMARK    1  A    between atoms: C_1  and  C_2
REMARK    2  A    between atoms: C_2  and  O_3
REMARK    3  A    between atoms: O_3  and  C_4
REMARK    4  A    between atoms: C_9  and  N_10
REMARK    5  A    between atoms: C_11  and  O_37
REMARK    6  A    between atoms: C_14  and  O_36
REMARK    7  A    between atoms: C_15  and  C_19
REMARK    8  A    between atoms: C_26  and  O_31
REMARK    9  A    between atoms: O_31  and  C_32
REMARK                            x       y       z     vdW  Elec       q    Type
REMARK                         _______ _______ _______ _____ _____    ______ ____
ROOT
ATOM      1  N   UNL     1       2.168  -1.387  -3.414  0.00  0.00    -0.222 N 
ATOM      2  C   UNL     1       3.514  -0.836  -3.353  0.00  0.00    +0.339 C 
ATOM      3  N   UNL     1       3.647   0.374  -4.148  0.00  0.00    -0.204 NA
ATOM      4  C   UNL     1       2.856   0.700  -5.095  0.00  0.00    +0.200 C 
ATOM      5  C   UNL     1       1.679  -0.138  -5.501  0.00  0.00    +0.179 C 
ATOM      6  C   UNL     1       1.311  -1.092  -4.400  0.00  0.00    +0.237 C 
ATOM      7  O   UNL     1       0.211  -1.603  -4.401  0.00  0.00    -0.274 OA
ENDROOT
BRANCH   5   8
ATOM      8  C   UNL     1       2.037  -0.940  -6.754  0.00  0.00    +0.101 C 
ATOM      9  C   UNL     1       0.807  -1.709  -7.242  0.00  0.00    +0.124 C 
ATOM     10  C   UNL     1       1.288  -2.605  -8.379  0.00  0.00    -0.036 C 
ATOM     11  C   UNL     1       0.513  -2.339  -9.420  0.00  0.00    +0.003 A 
ATOM     12  C   UNL     1       0.430  -2.932 -10.763  0.00  0.00    +0.055 A 
ATOM     13  C   UNL     1      -0.491  -2.398 -11.612  0.00  0.00    +0.121 A 
ATOM     14  C   UNL     1      -1.344  -1.337 -11.276  0.00  0.00    +0.047 A 
ATOM     15  C   UNL     1      -1.356  -0.721 -10.066  0.00  0.00    +0.029 A 
ATOM     16  C   UNL     1      -0.406  -1.214  -9.060  0.00  0.00    +0.043 A 
ATOM     17  N   UNL     1      -0.215  -0.833  -7.814  0.00  0.00    -0.376 N 
ATOM     18  C   UNL     1       2.497  -3.496  -8.226  0.00  0.00    +0.048 C 
ATOM     19  C   UNL     1       3.604  -2.618  -7.615  0.00  0.00    +0.085 C 
ATOM     20  N   UNL     1       3.096  -1.911  -6.437  0.00  0.00    -0.310 NA
ATOM     21  H   UNL     1       3.847  -1.472  -5.926  0.00  0.00    +0.122 HD
ATOM     22  H   UNL     1      -0.661  -0.105  -7.353  0.00  0.00    +0.160 HD
BRANCH  13  23
ATOM     23  O   UNL     1      -0.590  -2.926 -12.860  0.00  0.00    -0.495 OA
ATOM     24  C   UNL     1      -1.564  -2.350 -13.733  0.00  0.00    +0.277 C 
ENDBRANCH  13  23
ENDBRANCH   5   8
BRANCH   1  30
ATOM     25  C   UNL     1       1.133  -1.772  -1.260  0.00  0.00    +0.142 A 
ATOM     26  C   UNL     1       0.722  -2.646  -0.266  0.00  0.00    +0.047 A 
ATOM     27  C   UNL     1       0.934  -4.005  -0.409  0.00  0.00    +0.004 A 
ATOM     28  C   UNL     1       1.556  -4.495  -1.543  0.00  0.00    +0.002 A 
ATOM     29  C   UNL     1       1.969  -3.630  -2.538  0.00  0.00    +0.027 A 
ATOM     30  C   UNL     1       1.755  -2.266  -2.404  0.00  0.00    +0.082 A 
BRANCH  25  31
ATOM     31  O   UNL     1       0.925  -0.435  -1.120  0.00  0.00    -0.490 OA
BRANCH  31  33
ATOM     32  C   UNL     1       0.135   1.522   0.057  0.00  0.00    +0.048 C 
ATOM     33  C   UNL     1       0.282  -0.001   0.080  0.00  0.00    +0.226 C 
ENDBRANCH  31  33
ENDBRANCH  25  31
ENDBRANCH   1  30
BRANCH   4  34
ATOM     34  O   UNL     1       3.088   1.850  -5.761  0.00  0.00    -0.495 OA
ATOM     35  H   UNL     1       3.861   2.338  -5.447  0.00  0.00    +0.293 HD
ENDBRANCH   4  34
BRANCH   2  36
ATOM     36  O   UNL     1       3.831  -0.533  -1.993  0.00  0.00    -0.356 OA
ATOM     37  H   UNL     1       4.714  -0.160  -1.869  0.00  0.00    +0.214 HD
ENDBRANCH   2  36
TORSDOF 7
