REMARK  Name = ZINC35993424
REMARK  12 active torsions:
REMARK  status: ('A' for Active; 'I' for Inactive)
REMARK    1  A    between atoms: C_1  and  C_2
REMARK    2  A    between atoms: C_2  and  O_3
REMARK    3  A    between atoms: O_3  and  C_4
REMARK    4  A    between atoms: C_4  and  C_6
REMARK    5  A    between atoms: C_7  and  C_22
REMARK    6  A    between atoms: N_8  and  C_21
REMARK    7  A    between atoms: C_12  and  C_14
REMARK    8  A    between atoms: C_19  and  C_20
REMARK    9  A    between atoms: C_22  and  N_23
REMARK   10  A    between atoms: C_30  and  C_32
REMARK   11  A    between atoms: C_36  and  O_38
REMARK   12  A    between atoms: O_38  and  C_39
REMARK                            x       y       z     vdW  Elec       q    Type
REMARK                         _______ _______ _______ _____ _____    ______ ____
ROOT
ATOM      1  C   UNL     1       1.042  -2.526  -3.237  0.00  0.00    +0.076 C 
ATOM      2  C   UNL     1       1.627  -3.694  -2.897  0.00  0.00    +0.010 C 
ATOM      3  N   UNL     1       2.870  -4.022  -3.359  0.00  0.00    -0.264 N 
ATOM      4  C   UNL     1       3.593  -3.235  -4.166  0.00  0.00    +0.307 C 
ATOM      5  O   UNL     1       4.691  -3.613  -4.526  0.00  0.00    -0.252 OA
ATOM      6  N   UNL     1       3.143  -2.038  -4.592  0.00  0.00    -0.288 N 
ATOM      7  C   UNL     1       1.809  -1.594  -4.154  0.00  0.00    +0.144 C 
ATOM      8  C   UNL     1       3.444  -5.306  -2.949  0.00  0.00    +0.139 C 
ATOM      9  H   UNL     1       3.684  -1.484  -5.176  0.00  0.00    +0.151 HD
ENDROOT
BRANCH   7  10
ATOM     10  C   UNL     1       0.968  -1.354  -5.381  0.00  0.00    -0.020 A 
ATOM     11  C   UNL     1       1.102  -2.178  -6.484  0.00  0.00    +0.006 A 
ATOM     12  C   UNL     1       0.331  -1.958  -7.609  0.00  0.00    +0.000 A 
ATOM     13  C   UNL     1      -0.576  -0.914  -7.632  0.00  0.00    +0.000 A 
ATOM     14  C   UNL     1      -0.711  -0.092  -6.530  0.00  0.00    +0.004 A 
ATOM     15  C   UNL     1       0.058  -0.314  -5.403  0.00  0.00    -0.045 A 
ATOM     16  C   UNL     1      -0.094   0.579  -4.199  0.00  0.00    +0.044 C 
ENDBRANCH   7  10
BRANCH   1  17
ATOM     17  C   UNL     1      -0.245  -2.186  -2.759  0.00  0.00    +0.339 C 
ATOM     18  O   UNL     1      -1.210  -2.276  -3.494  0.00  0.00    -0.245 OA
BRANCH  17  19
ATOM     19  O   UNL     1      -0.402  -1.761  -1.488  0.00  0.00    -0.462 OA
BRANCH  19  21
ATOM     20  C   UNL     1      -1.714  -0.952   0.373  0.00  0.00    +0.048 C 
ATOM     21  C   UNL     1      -1.740  -1.542  -1.038  0.00  0.00    +0.229 C 
ENDBRANCH  19  21
ENDBRANCH  17  19
ENDBRANCH   1  17
BRANCH   2  22
ATOM     22  C   UNL     1       0.897  -4.652  -1.991  0.00  0.00    -0.026 C 
BRANCH  22  23
ATOM     23  N   UNL     1      -0.027  -5.471  -2.786  0.00  0.00    +0.384 N 
ATOM     24  C   UNL     1      -0.875  -6.230  -1.871  0.00  0.00    -0.077 C 
ATOM     25  C   UNL     1      -2.215  -6.484  -2.525  0.00  0.00    +0.000 C 
ATOM     26  C   UNL     1      -2.189  -7.851  -3.233  0.00  0.00    +0.106 C 
ATOM     27  N   UNL     1      -0.892  -8.078  -3.902  0.00  0.00    -0.299 N 
ATOM     28  C   UNL     1      -0.205  -7.035  -4.635  0.00  0.00    +0.089 C 
ATOM     29  C   UNL     1       0.731  -6.254  -3.684  0.00  0.00    -0.059 C 
ATOM     30  C   UNL     1      -0.328  -9.299  -3.827  0.00  0.00    +0.247 C 
ATOM     31  O   UNL     1       0.786  -9.483  -4.278  0.00  0.00    -0.270 OA
ATOM     32  H   UNL     1      -0.616  -4.852  -3.323  0.00  0.00    -0.081 HD
BRANCH  30  33
ATOM     33  C   UNL     1      -1.063 -10.416  -3.196  0.00  0.00    +0.040 A 
ATOM     34  C   UNL     1      -2.444 -10.532  -3.369  0.00  0.00    +0.013 A 
ATOM     35  C   UNL     1      -3.127 -11.575  -2.779  0.00  0.00    +0.004 A 
ATOM     36  C   UNL     1      -2.449 -12.508  -2.016  0.00  0.00    +0.045 A 
ATOM     37  C   UNL     1      -1.076 -12.401  -1.839  0.00  0.00    +0.121 A 
ATOM     38  C   UNL     1      -0.380 -11.361  -2.432  0.00  0.00    +0.058 A 
BRANCH  37  39
ATOM     39  O   UNL     1      -0.415 -13.321  -1.088  0.00  0.00    -0.495 OA
ATOM     40  C   UNL     1      -1.195 -14.370  -0.511  0.00  0.00    +0.277 C 
ENDBRANCH  37  39
ENDBRANCH  30  33
ENDBRANCH  22  23
ENDBRANCH   2  22
TORSDOF 8
