REMARK  Name = ZINC25680010
REMARK  7 active torsions:
REMARK  status: ('A' for Active; 'I' for Inactive)
REMARK    1  A    between atoms: C_1  and  N_2
REMARK    2  A    between atoms: N_2  and  C_3
REMARK    3  A    between atoms: N_2  and  C_14
REMARK    4  A    between atoms: C_3  and  C_4
REMARK    5  A    between atoms: C_6  and  N_11
REMARK    6  A    between atoms: C_14  and  C_15
REMARK    7  A    between atoms: C_20  and  C_25
REMARK                            x       y       z     vdW  Elec       q    Type
REMARK                         _______ _______ _______ _____ _____    ______ ____
ROOT
ATOM      1  C   UNL     1      -0.270   2.180   1.214  0.00  0.00    +0.095 A 
ATOM      2  N   UNL     1       0.377   2.053   2.401  0.00  0.00    -0.197 NA
ATOM      3  C   UNL     1      -0.085   2.648   3.517  0.00  0.00    +0.282 A 
ATOM      4  O   UNL     1       0.509   2.524   4.574  0.00  0.00    -0.265 OA
ATOM      5  C   UNL     1      -1.282   3.428   3.442  0.00  0.00    +0.080 A 
ATOM      6  C   UNL     1      -1.974   4.160   4.496  0.00  0.00    +0.004 A 
ATOM      7  C   UNL     1      -3.106   4.836   4.185  0.00  0.00    +0.056 A 
ATOM      8  S   UNL     1      -3.308   4.523   2.442  0.00  0.00    -0.078 S 
ATOM      9  C   UNL     1      -1.882   3.502   2.174  0.00  0.00    +0.092 A 
ATOM     10  N   UNL     1      -1.363   2.889   1.113  0.00  0.00    -0.339 N 
ATOM     11  H   UNL     1      -1.867   2.987   0.141  0.00  0.00    +0.167 HD
ENDROOT
BRANCH   6  12
ATOM     12  C   UNL     1      -1.448   4.165   5.882  0.00  0.00    -0.016 A 
ATOM     13  C   UNL     1      -1.117   2.964   6.509  0.00  0.00    +0.011 A 
ATOM     14  C   UNL     1      -0.623   2.974   7.797  0.00  0.00    +0.039 A 
ATOM     15  C   UNL     1      -0.466   4.173   8.472  0.00  0.00    +0.123 A 
ATOM     16  C   UNL     1      -0.798   5.369   7.855  0.00  0.00    +0.039 A 
ATOM     17  C   UNL     1      -1.288   5.370   6.565  0.00  0.00    +0.011 A 
ATOM     18  F   UNL     1       0.013   4.178   9.735  0.00  0.00    -0.205 F 
ENDBRANCH   6  12
BRANCH   1  19
ATOM     19  C   UNL     1       0.284   1.497  -0.009  0.00  0.00    -0.003 C 
BRANCH  19  21
ATOM     20  C   UNL     1      -1.905   1.165  -0.989  0.00  0.00    -0.095 C 
ATOM     21  N   UNL     1      -0.582   1.778  -1.162  0.00  0.00    +0.385 N 
ATOM     22  H   UNL     1      -0.719   2.868  -1.223  0.00  0.00    -0.081 HD
BRANCH  21  23
ATOM     23  C   UNL     1       0.046   1.331  -2.413  0.00  0.00    -0.041 C 
BRANCH  23  24
ATOM     24  C   UNL     1      -0.658   1.967  -3.583  0.00  0.00    -0.043 A 
ATOM     25  C   UNL     1      -1.514   1.216  -4.367  0.00  0.00    +0.036 A 
ATOM     26  C   UNL     1      -2.165   1.800  -5.437  0.00  0.00    +0.126 A 
ATOM     27  C   UNL     1      -1.952   3.135  -5.731  0.00  0.00    +0.034 A 
ATOM     28  C   UNL     1      -1.092   3.885  -4.952  0.00  0.00    +0.022 A 
ATOM     29  C   UNL     1      -0.445   3.302  -3.878  0.00  0.00    +0.042 A 
ATOM     30 CL   UNL     1       0.635   4.245  -2.898  0.00  0.00    -0.083 Cl
BRANCH  26  31
ATOM     31  N   UNL     1      -3.085   0.997  -6.272  0.00  0.00    +0.056 N 
ATOM     32  O   UNL     1      -3.654   1.510  -7.219  0.00  0.00    -0.126 OA
ATOM     33  O   UNL     1      -3.273  -0.179  -6.013  0.00  0.00    -0.126 OA
ENDBRANCH  26  31
ENDBRANCH  23  24
ENDBRANCH  21  23
ENDBRANCH  19  21
ENDBRANCH   1  19
TORSDOF 6
