REMARK  Name = ZINC64491000
REMARK  7 active torsions:
REMARK  status: ('A' for Active; 'I' for Inactive)
REMARK    1  A    between atoms: C_3  and  C_27
REMARK    2  A    between atoms: C_6  and  C_7
REMARK    3  A    between atoms: C_7  and  N_8
REMARK    4  A    between atoms: C_12  and  C_20
REMARK    5  A    between atoms: N_29  and  C_30
REMARK    6  A    between atoms: C_30  and  C_31
REMARK    7  A    between atoms: C_31  and  C_32
REMARK                            x       y       z     vdW  Elec       q    Type
REMARK                         _______ _______ _______ _____ _____    ______ ____
ROOT
ATOM      1  C   UNL     1      -0.017   1.379   0.010  0.00  0.00    +0.006 A 
ATOM      2  C   UNL     1       1.167   2.088   0.002  0.00  0.00    +0.013 A 
ATOM      3  C   UNL     1       2.385   1.407  -0.013  0.00  0.00    +0.037 A 
ATOM      4  C   UNL     1       2.397   0.011  -0.021  0.00  0.00    +0.013 A 
ATOM      5  C   UNL     1       1.206  -0.686  -0.013  0.00  0.00    +0.006 A 
ATOM      6  C   UNL     1       0.002  -0.004   0.002  0.00  0.00    -0.030 A 
ENDROOT
BRANCH   3   7
ATOM      7  C   UNL     1       3.657   2.160  -0.022  0.00  0.00    +0.244 C 
ATOM      8  O   UNL     1       3.643   3.376  -0.015  0.00  0.00    -0.270 OA
ATOM      9  N   UNL     1       4.831   1.499  -0.037  0.00  0.00    -0.311 N 
ATOM     10  H   UNL     1       4.842   0.529  -0.042  0.00  0.00    +0.149 HD
BRANCH   9  11
ATOM     11  C   UNL     1       6.092   2.246  -0.045  0.00  0.00    +0.110 C 
BRANCH  11  12
ATOM     12  C   UNL     1       7.266   1.265  -0.061  0.00  0.00    +0.073 C 
BRANCH  12  13
ATOM     13  C   UNL     1       8.562   2.032  -0.070  0.00  0.00    +0.035 A 
ATOM     14  H   UNL     1      11.003   3.584   1.098  0.00  0.00    +0.166 HD
ATOM     15  C   UNL     1       9.205   2.512   1.012  0.00  0.00    +0.105 A 
ATOM     16  N   UNL     1      10.334   3.139   0.556  0.00  0.00    -0.352 N 
ATOM     17  C   UNL     1      10.341   3.020  -0.789  0.00  0.00    +0.171 A 
ATOM     18  N   UNL     1       9.281   2.353  -1.156  0.00  0.00    -0.350 N 
ATOM     19  H   UNL     1       9.049   2.127  -2.070  0.00  0.00    +0.166 HD
ENDBRANCH  12  13
ENDBRANCH  11  12
ENDBRANCH   9  11
ENDBRANCH   3   7
BRANCH   6  20
ATOM     20  C   UNL     1      -1.295  -0.772   0.010  0.00  0.00    +0.144 C 
BRANCH  20  21
ATOM     21  N   UNL     1      -1.728  -1.013  -1.368  0.00  0.00    -0.280 N 
ATOM     22  C   UNL     1      -2.577  -0.053  -2.044  0.00  0.00    +0.163 C 
ATOM     23  C   UNL     1      -3.555   0.714  -1.149  0.00  0.00    +0.064 C 
ATOM     24  C   UNL     1      -4.812   0.876  -2.043  0.00  0.00    +0.103 C 
ATOM     25  N   UNL     1      -4.492   0.171  -3.318  0.00  0.00    -0.245 NA
ATOM     26  N   UNL     1      -3.475  -0.808  -2.960  0.00  0.00    -0.222 NA
ATOM     27  C   UNL     1      -2.669  -1.404  -4.015  0.00  0.00    +0.113 C 
ATOM     28  C   UNL     1      -1.845  -2.530  -3.371  0.00  0.00    +0.113 C 
ATOM     29  C   UNL     1      -1.335  -2.127  -2.017  0.00  0.00    +0.218 C 
ATOM     30  O   UNL     1      -0.526  -2.848  -1.473  0.00  0.00    -0.276 OA
ATOM     31  H   UNL     1      -4.129   0.814  -4.005  0.00  0.00    +0.142 HD
BRANCH  24  32
ATOM     32  C   UNL     1      -5.080   2.336  -2.306  0.00  0.00    -0.029 A 
ATOM     33  C   UNL     1      -4.362   3.005  -3.280  0.00  0.00    +0.006 A 
ATOM     34  C   UNL     1      -4.607   4.344  -3.521  0.00  0.00    +0.020 A 
ATOM     35  C   UNL     1      -5.570   5.014  -2.789  0.00  0.00    +0.041 A 
ATOM     36  C   UNL     1      -6.288   4.343  -1.815  0.00  0.00    +0.020 A 
ATOM     37  C   UNL     1      -6.047   3.003  -1.578  0.00  0.00    +0.006 A 
ATOM     38 CL   UNL     1      -5.878   6.695  -3.091  0.00  0.00    -0.084 Cl
ENDBRANCH  24  32
ENDBRANCH  20  21
ENDBRANCH   6  20
TORSDOF 7
