REMARK  Name = ZINC15959687
REMARK  11 active torsions:
REMARK  status: ('A' for Active; 'I' for Inactive)
REMARK    1  A    between atoms: C_1  and  C_2
REMARK    2  A    between atoms: C_4  and  C_40
REMARK    3  A    between atoms: C_13  and  C_16
REMARK    4  A    between atoms: C_16  and  C_17
REMARK    5  A    between atoms: N_22  and  C_25
REMARK    6  A    between atoms: C_25  and  C_26
REMARK    7  A    between atoms: C_26  and  C_27
REMARK    8  A    between atoms: C_30  and  O_35
REMARK    9  A    between atoms: C_31  and  O_33
REMARK   10  A    between atoms: O_33  and  C_34
REMARK   11  A    between atoms: O_35  and  C_36
REMARK                            x       y       z     vdW  Elec       q    Type
REMARK                         _______ _______ _______ _____ _____    ______ ____
ROOT
ATOM      1  C   UNL     1      -0.018   1.503   0.010  0.00  0.00    +0.044 C 
ATOM      2  C   UNL     1       0.002  -0.004   0.002  0.00  0.00    -0.050 A 
ATOM      3  C   UNL     1       0.006  -0.691  -1.199  0.00  0.00    +0.008 A 
ATOM      4  C   UNL     1       0.026  -2.070  -1.212  0.00  0.00    -0.029 A 
ATOM      5  C   UNL     1       0.043  -2.782  -0.015  0.00  0.00    +0.042 A 
ATOM      6  C   UNL     1       0.038  -2.081   1.187  0.00  0.00    +0.004 A 
ATOM      7  C   UNL     1       0.023  -0.704   1.195  0.00  0.00    +0.011 A 
ATOM      8  C   UNL     1       0.059  -3.122   2.270  0.00  0.00    +0.136 C 
ATOM      9  C   UNL     1       1.285  -2.962   3.178  0.00  0.00    +0.122 C 
ATOM     10  C   UNL     1       0.754  -2.190   4.418  0.00  0.00    +0.107 C 
ATOM     11  C   UNL     1      -0.738  -1.934   4.117  0.00  0.00    +0.076 C 
ATOM     12  N   UNL     1      -1.116  -3.009   3.152  0.00  0.00    -0.295 NA
ATOM     13  C   UNL     1       0.888  -3.194   5.539  0.00  0.00    +0.227 C 
ATOM     14  O   UNL     1       0.572  -3.001   6.694  0.00  0.00    -0.275 OA
ATOM     15  N   UNL     1       1.410  -4.329   5.059  0.00  0.00    -0.241 N 
ATOM     16  C   UNL     1       1.683  -4.311   3.735  0.00  0.00    +0.228 C 
ATOM     17  O   UNL     1       2.165  -5.219   3.092  0.00  0.00    -0.275 OA
ATOM     18  C   UNL     1       0.078  -4.440   1.545  0.00  0.00    +0.243 C 
ATOM     19  O   UNL     1       0.101  -5.543   2.049  0.00  0.00    -0.273 OA
ATOM     20  N   UNL     1       0.065  -4.157   0.228  0.00  0.00    -0.283 N 
ATOM     21  C   UNL     1       0.029  -2.808  -2.526  0.00  0.00    +0.045 C 
ATOM     22  H   UNL     1      -1.938  -2.746   2.628  0.00  0.00    +0.124 HD
ATOM     23  H   UNL     1       0.070  -4.831  -0.470  0.00  0.00    +0.155 HD
ENDROOT
BRANCH  11  24
ATOM     24  C   UNL     1      -1.569  -2.068   5.395  0.00  0.00    +0.115 C 
BRANCH  24  25
ATOM     25  C   UNL     1      -3.000  -1.696   5.105  0.00  0.00    +0.212 C 
ATOM     26  O   UNL     1      -3.324  -1.357   3.987  0.00  0.00    -0.276 OA
ATOM     27  N   UNL     1      -3.920  -1.739   6.089  0.00  0.00    -0.329 N 
ATOM     28  H   UNL     1      -3.661  -2.010   6.984  0.00  0.00    +0.145 HD
ATOM     29  H   UNL     1      -4.841  -1.500   5.903  0.00  0.00    +0.145 HD
ENDBRANCH  24  25
ENDBRANCH  11  24
BRANCH  15  30
ATOM     30  C   UNL     1       1.671  -5.499   5.902  0.00  0.00    +0.121 C 
BRANCH  30  31
ATOM     31  C   UNL     1       0.435  -6.400   5.920  0.00  0.00    +0.054 C 
BRANCH  31  32
ATOM     32  C   UNL     1       0.704  -7.604   6.787  0.00  0.00    -0.042 A 
ATOM     33  C   UNL     1       1.250  -8.745   6.231  0.00  0.00    +0.007 A 
ATOM     34  C   UNL     1       1.498  -9.852   7.021  0.00  0.00    +0.049 A 
ATOM     35  C   UNL     1       1.200  -9.818   8.374  0.00  0.00    +0.161 A 
ATOM     36  C   UNL     1       0.651  -8.669   8.934  0.00  0.00    +0.162 A 
ATOM     37  C   UNL     1       0.409  -7.561   8.137  0.00  0.00    +0.053 A 
BRANCH  36  38
ATOM     38  O   UNL     1       0.356  -8.630  10.261  0.00  0.00    -0.491 OA
ATOM     39  C   UNL     1      -0.206  -7.418  10.766  0.00  0.00    +0.277 C 
ENDBRANCH  36  38
BRANCH  35  40
ATOM     40  O   UNL     1       1.444 -10.906   9.153  0.00  0.00    -0.491 OA
ATOM     41  C   UNL     1       2.008 -12.051   8.511  0.00  0.00    +0.277 C 
ENDBRANCH  35  40
ENDBRANCH  31  32
ENDBRANCH  30  31
ENDBRANCH  15  30
TORSDOF 7
