REMARK  Name = ZINC20406507
REMARK  6 active torsions:
REMARK  status: ('A' for Active; 'I' for Inactive)
REMARK    1  A    between atoms: C_3  and  N_11
REMARK    2  A    between atoms: C_6  and  C_7
REMARK    3  A    between atoms: C_15  and  N_18
REMARK    4  A    between atoms: N_18  and  C_19
REMARK    5  A    between atoms: C_19  and  C_20
REMARK    6  A    between atoms: C_23  and  C_25
REMARK                            x       y       z     vdW  Elec       q    Type
REMARK                         _______ _______ _______ _____ _____    ______ ____
ROOT
ATOM      1  N   UNL     1      -9.537  -2.732  -2.767  0.00  0.00    -0.317 N 
ATOM      2  C   UNL     1      -9.090  -4.130  -2.718  0.00  0.00    +0.106 C 
ATOM      3  C   UNL     1      -8.356  -4.387  -1.400  0.00  0.00    +0.017 C 
ATOM      4  C   UNL     1      -7.155  -3.444  -1.298  0.00  0.00    -0.013 C 
ATOM      5  C   UNL     1      -7.642  -1.996  -1.400  0.00  0.00    -0.054 C 
ATOM      6  C   UNL     1      -8.397  -1.808  -2.718  0.00  0.00    +0.091 C 
ENDROOT
BRANCH   1   9
ATOM      7  C   UNL     1     -10.605  -2.545  -6.265  0.00  0.00    +0.017 A 
ATOM      8  C   UNL     1      -9.814  -2.783  -5.155  0.00  0.00    +0.044 A 
ATOM      9  C   UNL     1     -10.320  -2.498  -3.891  0.00  0.00    +0.121 A 
ATOM     10  N   UNL     1     -11.544  -2.012  -3.749  0.00  0.00    -0.240 NA
ATOM     11  C   UNL     1     -12.318  -1.771  -4.790  0.00  0.00    +0.125 A 
ATOM     12  C   UNL     1     -11.879  -2.030  -6.073  0.00  0.00    +0.073 A 
BRANCH  12  13
ATOM     13  C   UNL     1     -12.776  -1.756  -7.253  0.00  0.00    +0.419 C 
ATOM     14  F   UNL     1     -13.536  -2.896  -7.536  0.00  0.00    -0.166 F 
ATOM     15  F   UNL     1     -13.629  -0.689  -6.953  0.00  0.00    -0.166 F 
ATOM     16  F   UNL     1     -11.994  -1.429  -8.367  0.00  0.00    -0.166 F 
ENDBRANCH  12  13
ENDBRANCH   1   9
BRANCH   5  17
ATOM     17  N   UNL     1      -6.489  -1.086  -1.361  0.00  0.00    +0.385 N 
ATOM     18  H   UNL     1      -5.637  -1.553  -1.877  0.00  0.00    -0.085 HD
ATOM     19  H   UNL     1      -6.749  -0.143  -1.863  0.00  0.00    -0.085 HD
BRANCH  17  20
ATOM     20  C   UNL     1      -6.098  -0.791   0.023  0.00  0.00    -0.039 C 
BRANCH  20  21
ATOM     21  C   UNL     1      -4.915   0.143   0.023  0.00  0.00    -0.027 A 
ATOM     22  C   UNL     1      -4.900   1.501   0.031  0.00  0.00    +0.010 A 
ATOM     23  C   UNL     1      -3.690   2.158   0.034  0.00  0.00    +0.018 A 
ATOM     24  C   UNL     1      -2.537   1.416   0.020  0.00  0.00    +0.037 A 
ATOM     25  S   UNL     1      -3.174  -0.252   0.013  0.00  0.00    -0.094 S 
BRANCH  24  26
ATOM     26  C   UNL     1      -1.137   1.875   0.017  0.00  0.00    +0.072 A 
ATOM     27  C   UNL     1      -0.013   1.076   0.008  0.00  0.00    +0.049 A 
ATOM     28  C   UNL     1       1.102   1.914   0.002  0.00  0.00    +0.135 A 
ATOM     29  N   UNL     1       0.692   3.157   0.012  0.00  0.00    -0.182 NA
ATOM     30  N   UNL     1      -0.708   3.170   0.026  0.00  0.00    -0.276 N 
ATOM     31  H   UNL     1      -1.440   3.992   0.041  0.00  0.00    +0.189 HD
ENDBRANCH  24  26
ENDBRANCH  20  21
ENDBRANCH  17  20
ENDBRANCH   5  17
TORSDOF 6
