REMARK  Name = ZINC24506217
REMARK  12 active torsions:
REMARK  status: ('A' for Active; 'I' for Inactive)
REMARK    1  A    between atoms: C_1  and  C_2
REMARK    2  A    between atoms: C_3  and  C_28
REMARK    3  A    between atoms: C_4  and  N_10
REMARK    4  A    between atoms: C_6  and  C_7
REMARK    5  A    between atoms: C_11  and  C_13
REMARK    6  A    between atoms: C_13  and  N_14
REMARK    7  A    between atoms: C_22  and  C_24
REMARK    8  A    between atoms: C_28  and  O_30
REMARK    9  A    between atoms: O_30  and  C_31
REMARK   10  A    between atoms: C_31  and  C_32
REMARK   11  A    between atoms: C_32  and  O_33
REMARK   12  A    between atoms: O_33  and  C_34
REMARK                            x       y       z     vdW  Elec       q    Type
REMARK                         _______ _______ _______ _____ _____    ______ ____
ROOT
ATOM      1  N   UNL     1       1.102  -3.891  -0.027  0.00  0.00    -0.278 N 
ATOM      2  C   UNL     1       2.438  -4.066  -0.041  0.00  0.00    +0.236 C 
ATOM      3  O   UNL     1       3.176  -3.103  -0.043  0.00  0.00    -0.274 OA
ATOM      4  H   UNL     1       0.433  -4.765  -0.025  0.00  0.00    +0.155 HD
ENDROOT
BRANCH   1   8
ATOM      5  C   UNL     1      -2.476  -0.372   0.036  0.00  0.00    +0.046 C 
ATOM      6  C   UNL     1      -1.055  -0.873   0.013  0.00  0.00    -0.015 A 
ATOM      7  C   UNL     1      -0.773  -2.231  -0.002  0.00  0.00    +0.091 A 
ATOM      8  C   UNL     1       0.572  -2.616  -0.016  0.00  0.00    +0.087 A 
ATOM      9  S   UNL     1       1.409  -1.098  -0.017  0.00  0.00    -0.068 S 
ATOM     10  C   UNL     1       0.002  -0.004   0.002  0.00  0.00    +0.079 A 
BRANCH  10  11
ATOM     11  C   UNL     1      -0.018   1.460   0.010  0.00  0.00    +0.248 C 
ATOM     12  O   UNL     1      -1.080   2.054   0.018  0.00  0.00    -0.270 OA
ATOM     13  N   UNL     1       1.140   2.150   0.003  0.00  0.00    -0.325 N 
ATOM     14  H   UNL     1       1.125   3.250   0.009  0.00  0.00    +0.145 HD
ATOM     15  H   UNL     1       2.100   1.613  -0.009  0.00  0.00    +0.145 HD
ENDBRANCH  10  11
BRANCH   7  16
ATOM     16  C   UNL     1      -1.848  -3.229   0.004  0.00  0.00    +0.342 C 
ATOM     17  O   UNL     1      -2.284  -3.648   1.059  0.00  0.00    -0.245 OA
BRANCH  16  18
ATOM     18  O   UNL     1      -2.353  -3.683  -1.161  0.00  0.00    -0.459 OA
BRANCH  18  19
ATOM     19  C   UNL     1      -3.414  -4.670  -1.080  0.00  0.00    +0.260 C 
BRANCH  19  20
ATOM     20  C   UNL     1      -3.856  -5.061  -2.492  0.00  0.00    +0.200 C 
BRANCH  20  21
ATOM     21  O   UNL     1      -2.779  -5.719  -3.163  0.00  0.00    -0.380 OA
ATOM     22  C   UNL     1      -3.088  -6.128  -4.496  0.00  0.00    +0.194 C 
ENDBRANCH  20  21
ENDBRANCH  19  20
ENDBRANCH  18  19
ENDBRANCH  16  18
ENDBRANCH   7  16
ENDBRANCH   1   8
BRANCH   2  23
ATOM     23  C   UNL     1       3.017  -5.457  -0.052  0.00  0.00    +0.214 C 
BRANCH  23  24
ATOM     24  N   UNL     1       4.480  -5.378  -0.066  0.00  0.00    -0.215 N 
ATOM     25  C   UNL     1       5.247  -5.342   1.043  0.00  0.00    +0.247 C 
ATOM     26  O   UNL     1       4.873  -5.368   2.196  0.00  0.00    -0.273 OA
ATOM     27  C   UNL     1       6.672  -5.263   0.544  0.00  0.00    +0.115 C 
ATOM     28  C   UNL     1       7.331  -3.974   1.022  0.00  0.00    +0.035 C 
ATOM     29  C   UNL     1       7.421  -3.981   2.550  0.00  0.00    +0.003 C 
ATOM     30  C   UNL     1       8.239  -5.191   3.006  0.00  0.00    +0.000 C 
ATOM     31  C   UNL     1       7.555  -6.477   2.538  0.00  0.00    +0.006 C 
ATOM     32  C   UNL     1       7.466  -6.479   1.010  0.00  0.00    +0.018 C 
ATOM     33  C   UNL     1       6.764  -7.756   0.541  0.00  0.00    +0.010 C 
ATOM     34  N   UNL     1       6.539  -5.263  -0.918  0.00  0.00    -0.285 N 
ATOM     35  C   UNL     1       5.221  -5.338  -1.180  0.00  0.00    +0.310 C 
ATOM     36  O   UNL     1       4.755  -5.363  -2.303  0.00  0.00    -0.252 OA
ATOM     37  H   UNL     1       7.437  -5.208  -1.552  0.00  0.00    +0.151 HD
ENDBRANCH  23  24
ENDBRANCH   2  23
TORSDOF 9
