REMARK  Name = ZINC40426298
REMARK  13 active torsions:
REMARK  status: ('A' for Active; 'I' for Inactive)
REMARK    1  A    between atoms: C_1  and  C_2
REMARK    2  A    between atoms: C_2  and  C_3
REMARK    3  A    between atoms: C_2  and  C_4
REMARK    4  A    between atoms: C_2  and  C_5
REMARK    5  A    between atoms: C_6  and  N_15
REMARK    6  A    between atoms: C_7  and  N_14
REMARK    7  A    between atoms: N_8  and  C_10
REMARK    8  A    between atoms: C_10  and  C_11
REMARK    9  A    between atoms: C_10  and  C_12
REMARK   10  A    between atoms: C_10  and  C_13
REMARK   11  A    between atoms: N_18  and  C_19
REMARK   12  A    between atoms: C_19  and  C_20
REMARK   13  A    between atoms: C_20  and  C_21
REMARK                            x       y       z     vdW  Elec       q    Type
REMARK                         _______ _______ _______ _____ _____    ______ ____
ROOT
ATOM      1  C   UNL     1       0.313  -0.497  -1.649  0.00  0.00    +0.063 A 
ATOM      2  C   UNL     1       0.885  -1.769  -1.526  0.00  0.00    +0.096 A 
ATOM      3  C   UNL     1       1.984  -1.811  -2.334  0.00  0.00    +0.135 A 
ATOM      4  N   UNL     1       2.091  -0.599  -2.941  0.00  0.00    -0.266 N 
ATOM      5  N   UNL     1       1.028   0.199  -2.496  0.00  0.00    -0.297 N 
ATOM      6  H   UNL     1       0.853   1.113  -2.769  0.00  0.00    +0.187 HD
ENDROOT
BRANCH   2   7
ATOM      7  N   UNL     1       0.410  -2.821  -0.711  0.00  0.00    -0.265 N 
ATOM      8  C   UNL     1       0.245  -4.053  -1.230  0.00  0.00    +0.304 C 
ATOM      9  O   UNL     1       0.580  -4.280  -2.377  0.00  0.00    -0.253 OA
ATOM     10  N   UNL     1      -0.289  -5.035  -0.478  0.00  0.00    -0.299 N 
ATOM     11  H   UNL     1       0.202  -2.655   0.222  0.00  0.00    +0.157 HD
ATOM     12  H   UNL     1      -0.556  -4.855   0.437  0.00  0.00    +0.150 HD
BRANCH  10  13
ATOM     13  C   UNL     1      -0.468  -6.376  -1.042  0.00  0.00    +0.110 C 
BRANCH  13  14
ATOM     14  C   UNL     1      -1.089  -7.294   0.013  0.00  0.00    +0.055 C 
BRANCH  14  15
ATOM     15  C   UNL     1      -1.273  -8.673  -0.568  0.00  0.00    -0.027 A 
ATOM     16  C   UNL     1      -2.485  -9.032  -1.126  0.00  0.00    +0.006 A 
ATOM     17  C   UNL     1      -2.654 -10.296  -1.658  0.00  0.00    +0.020 A 
ATOM     18  C   UNL     1      -1.610 -11.203  -1.633  0.00  0.00    +0.042 A 
ATOM     19  C   UNL     1      -0.396 -10.844  -1.075  0.00  0.00    +0.040 A 
ATOM     20  C   UNL     1      -0.226  -9.577  -0.546  0.00  0.00    +0.046 A 
ATOM     21 CL   UNL     1       1.299  -9.124   0.149  0.00  0.00    -0.083 Cl
ATOM     22 CL   UNL     1      -1.822 -12.791  -2.301  0.00  0.00    -0.083 Cl
ENDBRANCH  14  15
ENDBRANCH  13  14
ENDBRANCH  10  13
ENDBRANCH   2   7
BRANCH   1  24
ATOM     23  C   UNL     1      -1.218   1.430  -1.345  0.00  0.00    +0.017 C 
ATOM     24  C   UNL     1      -0.921  -0.013  -0.932  0.00  0.00    +0.006 C 
ATOM     25  C   UNL     1      -0.690  -0.073   0.579  0.00  0.00    +0.017 C 
ATOM     26  C   UNL     1      -2.108  -0.904  -1.302  0.00  0.00    +0.017 C 
ENDBRANCH   1  24
BRANCH   4  27
ATOM     27  C   UNL     1       3.129  -0.199  -3.894  0.00  0.00    +0.055 C 
ATOM     28  C   UNL     1       2.885   1.244  -4.338  0.00  0.00    +0.036 C 
ATOM     29  C   UNL     1       4.501  -0.303  -3.227  0.00  0.00    +0.036 C 
ATOM     30  C   UNL     1       3.083  -1.123  -5.113  0.00  0.00    +0.036 C 
ENDBRANCH   4  27
BRANCH   3  31
ATOM     31  N   UNL     1       2.842  -2.898  -2.505  0.00  0.00    -0.342 N 
ATOM     32  H   UNL     1       2.623  -3.756  -2.109  0.00  0.00    +0.144 HD
ATOM     33  H   UNL     1       3.658  -2.796  -3.020  0.00  0.00    +0.144 HD
ENDBRANCH   3  31
TORSDOF 7
