REMARK  Name = ZINC16610256
REMARK  13 active torsions:
REMARK  status: ('A' for Active; 'I' for Inactive)
REMARK    1  A    between atoms: C_1  and  C_2
REMARK    2  A    between atoms: C_2  and  O_3
REMARK    3  A    between atoms: O_3  and  C_4
REMARK    4  A    between atoms: C_7  and  N_10
REMARK    5  A    between atoms: N_13  and  C_14
REMARK    6  A    between atoms: C_17  and  C_20
REMARK    7  A    between atoms: C_22  and  C_30
REMARK    8  A    between atoms: C_23  and  C_29
REMARK    9  A    between atoms: N_24  and  C_28
REMARK   10  A    between atoms: C_30  and  O_32
REMARK   11  A    between atoms: O_32  and  C_33
REMARK   12  A    between atoms: C_33  and  C_34
REMARK   13  A    between atoms: C_33  and  C_35
REMARK                            x       y       z     vdW  Elec       q    Type
REMARK                         _______ _______ _______ _____ _____    ______ ____
ROOT
ATOM      1  C   UNL     1      -0.166   3.550   7.201  0.00  0.00    +0.035 A 
ATOM      2  C   UNL     1      -1.179   4.425   6.830  0.00  0.00    +0.024 A 
ATOM      3  C   UNL     1      -1.747   4.330   5.574  0.00  0.00    +0.007 A 
ATOM      4  C   UNL     1      -1.308   3.364   4.687  0.00  0.00    -0.022 A 
ATOM      5  C   UNL     1      -0.303   2.488   5.055  0.00  0.00    +0.007 A 
ATOM      6  C   UNL     1       0.272   2.582   6.307  0.00  0.00    +0.024 A 
ENDROOT
BRANCH   4   7
ATOM      7  C   UNL     1      -1.930   3.263   3.319  0.00  0.00    +0.141 C 
ATOM      8  C   UNL     1      -1.100   4.097   2.365  0.00  0.00    +0.078 C 
ATOM      9  C   UNL     1      -0.558   3.476   1.294  0.00  0.00    +0.021 C 
ATOM     10  N   UNL     1      -0.761   2.144   1.075  0.00  0.00    -0.289 N 
ATOM     11  C   UNL     1      -1.485   1.360   1.884  0.00  0.00    +0.137 C 
ATOM     12  S   UNL     1      -1.655  -0.298   1.495  0.00  0.00    -0.018 S 
ATOM     13  N   UNL     1      -2.084   1.834   2.995  0.00  0.00    -0.315 N 
ATOM     14  C   UNL     1      -0.149   1.537  -0.109  0.00  0.00    +0.137 C 
ATOM     15  C   UNL     1       0.280   4.267   0.324  0.00  0.00    +0.061 C 
ATOM     16  H   UNL     1      -2.603   1.248   3.567  0.00  0.00    +0.149 HD
BRANCH   8  17
ATOM     17  C   UNL     1      -0.895   5.478   2.590  0.00  0.00    +0.339 C 
ATOM     18  O   UNL     1      -0.224   6.129   1.810  0.00  0.00    -0.245 OA
BRANCH  17  19
ATOM     19  O   UNL     1      -1.443   6.074   3.669  0.00  0.00    -0.459 OA
BRANCH  19  20
ATOM     20  C   UNL     1      -1.194   7.472   3.834  0.00  0.00    +0.171 C 
ATOM     21  C   UNL     1      -2.377   8.118   4.558  0.00  0.00    +0.052 C 
ATOM     22  C   UNL     1       0.078   7.670   4.660  0.00  0.00    +0.052 C 
ENDBRANCH  19  20
ENDBRANCH  17  19
ENDBRANCH   8  17
ENDBRANCH   4   7
BRANCH   1  26
ATOM     23  N   UNL     1       0.241   4.224  10.727  0.00  0.00    -0.269 N 
ATOM     24  C   UNL     1      -0.337   4.033   9.524  0.00  0.00    +0.308 C 
ATOM     25  O   UNL     1      -1.532   4.212   9.388  0.00  0.00    -0.252 OA
ATOM     26  N   UNL     1       0.411   3.644   8.472  0.00  0.00    -0.269 N 
ATOM     27  H   UNL     1       1.204   4.155  10.819  0.00  0.00    +0.156 HD
ATOM     28  H   UNL     1       1.349   3.429   8.596  0.00  0.00    +0.156 HD
BRANCH  23  32
ATOM     29  C   UNL     1      -2.113   5.111  14.053  0.00  0.00    +0.121 A 
ATOM     30  C   UNL     1      -2.606   4.282  13.056  0.00  0.00    +0.047 A 
ATOM     31  C   UNL     1      -1.827   3.988  11.954  0.00  0.00    +0.027 A 
ATOM     32  C   UNL     1      -0.550   4.522  11.845  0.00  0.00    +0.035 A 
ATOM     33  C   UNL     1      -0.055   5.347  12.846  0.00  0.00    +0.027 A 
ATOM     34  C   UNL     1      -0.838   5.645  13.944  0.00  0.00    +0.047 A 
BRANCH  29  35
ATOM     35  O   UNL     1      -2.881   5.399  15.137  0.00  0.00    -0.492 OA
BRANCH  35  37
ATOM     36  C   UNL     1      -3.314   6.468  17.262  0.00  0.00    +0.048 C 
ATOM     37  C   UNL     1      -2.310   6.260  16.126  0.00  0.00    +0.225 C 
ENDBRANCH  35  37
ENDBRANCH  29  35
ENDBRANCH  23  32
ENDBRANCH   1  26
TORSDOF 8
