REMARK  Name = ZINC39547430
REMARK  14 active torsions:
REMARK  status: ('A' for Active; 'I' for Inactive)
REMARK    1  A    between atoms: C_1  and  C_2
REMARK    2  A    between atoms: C_8  and  N_10
REMARK    3  A    between atoms: C_14  and  C_16
REMARK    4  A    between atoms: C_16  and  O_17
REMARK    5  A    between atoms: O_17  and  C_18
REMARK    6  A    between atoms: C_18  and  C_20
REMARK    7  A    between atoms: C_21  and  C_32
REMARK    8  A    between atoms: C_22  and  C_31
REMARK    9  A    between atoms: C_24  and  C_30
REMARK   10  A    between atoms: C_25  and  C_26
REMARK   11  A    between atoms: C_26  and  O_28
REMARK   12  A    between atoms: O_28  and  C_29
REMARK   13  A    between atoms: C_32  and  O_34
REMARK   14  A    between atoms: O_34  and  C_35
REMARK                            x       y       z     vdW  Elec       q    Type
REMARK                         _______ _______ _______ _____ _____    ______ ____
ROOT
ATOM      1  C   UNL     1       0.410   1.658   9.424  0.00  0.00    +0.320 C 
ATOM      2  O   UNL     1      -0.783   1.795   9.556  0.00  0.00    -0.250 OA
ENDROOT
BRANCH   1   3
ATOM      3  C   UNL     1       1.321   1.804  10.615  0.00  0.00    +0.174 C 
ATOM      4  C   UNL     1       2.092   0.528  10.809  0.00  0.00    +0.072 C 
ATOM      5  C   UNL     1       1.776  -0.340  11.785  0.00  0.00    +0.016 C 
ATOM      6  N   UNL     1       0.741  -0.083  12.643  0.00  0.00    -0.321 N 
ATOM      7  C   UNL     1       0.246   1.186  12.768  0.00  0.00    +0.016 C 
ATOM      8  C   UNL     1       0.498   2.118  11.832  0.00  0.00    +0.072 C 
ATOM      9  C   UNL     1      -0.592   1.544  13.968  0.00  0.00    +0.061 C 
ATOM     10  C   UNL     1       2.570  -1.611  11.936  0.00  0.00    +0.061 C 
ATOM     11  H   UNL     1       0.357  -0.805  13.166  0.00  0.00    +0.152 HD
BRANCH   8  12
ATOM     12  C   UNL     1      -0.023   3.422  11.997  0.00  0.00    +0.337 C 
ATOM     13  O   UNL     1      -0.691   3.691  12.978  0.00  0.00    -0.245 OA
BRANCH  12  14
ATOM     14  O   UNL     1       0.222   4.369  11.067  0.00  0.00    -0.465 OA
ATOM     15  C   UNL     1      -0.336   5.665  11.298  0.00  0.00    +0.280 C 
ENDBRANCH  12  14
ENDBRANCH   8  12
BRANCH   4  16
ATOM     16  C   UNL     1       3.172   0.235   9.945  0.00  0.00    +0.337 C 
ATOM     17  O   UNL     1       4.256   0.755  10.128  0.00  0.00    -0.245 OA
BRANCH  16  18
ATOM     18  O   UNL     1       3.000  -0.623   8.917  0.00  0.00    -0.465 OA
ATOM     19  C   UNL     1       4.134  -0.874   8.085  0.00  0.00    +0.280 C 
ENDBRANCH  16  18
ENDBRANCH   4  16
ENDBRANCH   1   3
BRANCH   1  20
ATOM     20  O   UNL     1       0.924   1.374   8.217  0.00  0.00    -0.455 OA
BRANCH  20  21
ATOM     21  C   UNL     1       0.002   1.250   7.132  0.00  0.00    +0.328 C 
BRANCH  21  26
ATOM     22  N   UNL     1       0.093   0.323   2.416  0.00  0.00    -0.296 N 
ATOM     23  C   UNL     1       0.761   0.486   3.575  0.00  0.00    +0.306 C 
ATOM     24  O   UNL     1       1.972   0.377   3.599  0.00  0.00    -0.252 OA
ATOM     25  N   UNL     1       0.087   0.770   4.707  0.00  0.00    -0.237 N 
ATOM     26  C   UNL     1       0.756   0.933   5.866  0.00  0.00    +0.258 C 
ATOM     27  O   UNL     1       1.963   0.824   5.890  0.00  0.00    -0.272 OA
ATOM     28  H   UNL     1      -0.873   0.410   2.397  0.00  0.00    +0.151 HD
ATOM     29  H   UNL     1      -0.878   0.857   4.688  0.00  0.00    +0.159 HD
BRANCH  22  36
ATOM     30  C   UNL     1      -0.221   1.989   0.068  0.00  0.00    +0.009 C 
ATOM     31  C   UNL     1       0.011   0.480  -0.023  0.00  0.00    +0.006 C 
ATOM     32  C   UNL     1       0.776   0.158  -1.309  0.00  0.00    +0.005 C 
ATOM     33  C   UNL     1       1.007  -1.352  -1.400  0.00  0.00    +0.000 C 
ATOM     34  C   UNL     1       1.822  -1.817  -0.191  0.00  0.00    +0.002 C 
ATOM     35  C   UNL     1       1.057  -1.495   1.094  0.00  0.00    +0.022 C 
ATOM     36  C   UNL     1       0.826   0.015   1.185  0.00  0.00    +0.077 C 
ENDBRANCH  22  36
ENDBRANCH  21  26
ENDBRANCH  20  21
ENDBRANCH   1  20
TORSDOF 9
