REMARK  Name = ZINC38679287
REMARK  17 active torsions:
REMARK  status: ('A' for Active; 'I' for Inactive)
REMARK    1  A    between atoms: C_1  and  C_2
REMARK    2  A    between atoms: C_2  and  O_3
REMARK    3  A    between atoms: O_3  and  C_4
REMARK    4  A    between atoms: C_7  and  C_13
REMARK    5  A    between atoms: C_9  and  O_10
REMARK    6  A    between atoms: O_10  and  C_11
REMARK    7  A    between atoms: C_11  and  C_12
REMARK    8  A    between atoms: C_18  and  O_27
REMARK    9  A    between atoms: C_22  and  N_26
REMARK   10  A    between atoms: C_23  and  C_24
REMARK   11  A    between atoms: O_27  and  C_28
REMARK   12  A    between atoms: C_28  and  C_30
REMARK   13  A    between atoms: C_33  and  O_36
REMARK   14  A    between atoms: O_36  and  C_37
REMARK   15  A    between atoms: C_37  and  C_38
REMARK   16  A    between atoms: C_38  and  C_39
REMARK   17  A    between atoms: C_38  and  C_40
REMARK                            x       y       z     vdW  Elec       q    Type
REMARK                         _______ _______ _______ _____ _____    ______ ____
ROOT
ATOM      1  C   UNL     1       1.090  -6.000  -1.889  0.00  0.00    +0.098 C 
ATOM      2  C   UNL     1      -0.283  -6.615  -1.942  0.00  0.00    +0.008 A 
ATOM      3  C   UNL     1      -1.072  -6.424  -3.063  0.00  0.00    +0.012 A 
ATOM      4  C   UNL     1      -2.334  -6.981  -3.130  0.00  0.00    +0.047 A 
ATOM      5  C   UNL     1      -2.815  -7.736  -2.070  0.00  0.00    +0.135 A 
ATOM      6  C   UNL     1      -2.028  -7.930  -0.946  0.00  0.00    +0.093 A 
ATOM      7  C   UNL     1      -0.760  -7.368  -0.880  0.00  0.00    +0.138 A 
ATOM      8  O   UNL     1      -0.002  -7.567   0.226  0.00  0.00    -0.441 OA
ATOM      9  C   UNL     1       1.328  -7.383   0.170  0.00  0.00    +0.199 C 
ATOM     10  C   UNL     1       1.905  -6.650  -0.807  0.00  0.00    +0.098 C 
ENDROOT
BRANCH   1  14
ATOM     11  C   UNL     1       0.734  -1.817  -1.071  0.00  0.00    +0.162 A 
ATOM     12  C   UNL     1       0.249  -2.747  -0.165  0.00  0.00    +0.050 A 
ATOM     13  C   UNL     1       0.365  -4.098  -0.433  0.00  0.00    +0.008 A 
ATOM     14  C   UNL     1       0.965  -4.526  -1.603  0.00  0.00    -0.031 A 
ATOM     15  C   UNL     1       1.452  -3.603  -2.510  0.00  0.00    +0.054 A 
ATOM     16  C   UNL     1       1.333  -2.247  -2.251  0.00  0.00    +0.162 A 
BRANCH  11  17
ATOM     17  O   UNL     1       0.620  -0.488  -0.809  0.00  0.00    -0.489 OA
BRANCH  17  19
ATOM     18  C   UNL     1      -0.043   1.405   0.538  0.00  0.00    +0.048 C 
ATOM     19  C   UNL     1      -0.006  -0.120   0.421  0.00  0.00    +0.226 C 
ENDBRANCH  17  19
ENDBRANCH  11  17
BRANCH  16  20
ATOM     20  O   UNL     1       1.807  -1.339  -3.145  0.00  0.00    -0.489 OA
BRANCH  20  21
ATOM     21  C   UNL     1       2.409  -1.852  -4.335  0.00  0.00    +0.226 C 
ATOM     22  C   UNL     1       2.878  -0.690  -5.212  0.00  0.00    +0.048 C 
ENDBRANCH  20  21
ENDBRANCH  16  20
ENDBRANCH   1  14
BRANCH   9  23
ATOM     23  N   UNL     1       2.121  -7.955   1.133  0.00  0.00    -0.328 N 
ATOM     24  H   UNL     1       1.720  -8.483   1.841  0.00  0.00    +0.145 HD
ATOM     25  H   UNL     1       3.082  -7.831   1.106  0.00  0.00    +0.145 HD
ENDBRANCH   9  23
BRANCH  10  26
ATOM     26  C   UNL     1       3.329  -6.491  -0.809  0.00  0.00    +0.101 C 
ATOM     27  N   UNL     1       4.457  -6.364  -0.811  0.00  0.00    -0.191 NA
ENDBRANCH  10  26
BRANCH   5  28
ATOM     28  O   UNL     1      -4.057  -8.285  -2.134  0.00  0.00    -0.422 OA
BRANCH  28  29
ATOM     29  C   UNL     1      -4.259  -9.292  -3.005  0.00  0.00    +0.344 C 
ATOM     30  O   UNL     1      -3.324  -9.754  -3.628  0.00  0.00    -0.245 OA
BRANCH  29  31
ATOM     31  C   UNL     1      -5.616  -9.835  -3.203  0.00  0.00    +0.060 A 
ATOM     32  C   UNL     1      -6.695  -9.302  -2.492  0.00  0.00    +0.018 A 
ATOM     33  C   UNL     1      -7.960  -9.811  -2.680  0.00  0.00    +0.046 A 
ATOM     34  C   UNL     1      -8.166 -10.853  -3.576  0.00  0.00    +0.121 A 
ATOM     35  C   UNL     1      -7.096 -11.387  -4.285  0.00  0.00    +0.046 A 
ATOM     36  C   UNL     1      -5.828 -10.880  -4.107  0.00  0.00    +0.018 A 
BRANCH  34  37
ATOM     37  O   UNL     1      -9.415 -11.352  -3.758  0.00  0.00    -0.492 OA
BRANCH  37  38
ATOM     38  C   UNL     1      -9.555 -12.423  -4.694  0.00  0.00    +0.232 C 
BRANCH  38  39
ATOM     39  C   UNL     1     -11.023 -12.850  -4.764  0.00  0.00    +0.020 C 
ATOM     40  C   UNL     1     -11.860 -11.703  -5.333  0.00  0.00    +0.010 C 
ATOM     41  C   UNL     1     -11.155 -14.076  -5.670  0.00  0.00    +0.010 C 
ENDBRANCH  38  39
ENDBRANCH  37  38
ENDBRANCH  34  37
ENDBRANCH  29  31
ENDBRANCH  28  29
ENDBRANCH   5  28
TORSDOF 13
