REMARK  Name = ZINC39677723
REMARK  5 active torsions:
REMARK  status: ('A' for Active; 'I' for Inactive)
REMARK    1  A    between atoms: C_5  and  C_7
REMARK    2  A    between atoms: C_10  and  C_12
REMARK    3  A    between atoms: C_12  and  N_13
REMARK    4  A    between atoms: C_14  and  C_16
REMARK    5  A    between atoms: C_27  and  C_29
REMARK                            x       y       z     vdW  Elec       q    Type
REMARK                         _______ _______ _______ _____ _____    ______ ____
ROOT
ATOM      1  C   UNL     1      -0.539  -8.200   2.078  0.00  0.00    +0.100 C 
ATOM      2  C   UNL     1      -1.311  -7.574   3.260  0.00  0.00    +0.121 C 
ATOM      3  N   UNL     1      -2.637  -8.236   3.235  0.00  0.00    -0.300 N 
ATOM      4  C   UNL     1      -2.337  -9.647   2.895  0.00  0.00    +0.115 C 
ATOM      5  C   UNL     1      -1.213  -9.562   1.843  0.00  0.00    -0.004 C 
ATOM      6  C   UNL     1      -0.209 -10.692   2.052  0.00  0.00    -0.010 C 
ATOM      7  C   UNL     1      -0.887 -12.033   1.756  0.00  0.00    -0.082 C 
ATOM      8  N   UNL     1      -1.381 -12.039   0.374  0.00  0.00    +0.379 N 
ATOM      9  C   UNL     1      -2.414 -11.010   0.207  0.00  0.00    -0.082 C 
ATOM     10  C   UNL     1      -1.801  -9.626   0.437  0.00  0.00    -0.010 C 
ATOM     11  C   UNL     1      -3.842  -7.680   3.468  0.00  0.00    +0.219 C 
ATOM     12  O   UNL     1      -3.933  -6.486   3.660  0.00  0.00    -0.275 OA
ATOM     13  H   UNL     1      -0.615 -11.851  -0.256  0.00  0.00    -0.086 HD
ATOM     14  H   UNL     1      -1.772 -12.945   0.162  0.00  0.00    -0.086 HD
ENDROOT
BRANCH  11  15
ATOM     15  C   UNL     1      -5.078  -8.542   3.490  0.00  0.00    +0.079 C 
ATOM     16  C   UNL     1      -6.306  -7.692   3.142  0.00  0.00    +0.017 C 
ATOM     17  C   UNL     1      -7.513  -8.621   2.997  0.00  0.00    +0.027 C 
ATOM     18  C   UNL     1      -7.603  -9.540   4.180  0.00  0.00    -0.031 C 
ATOM     19  C   UNL     1      -6.628  -9.763   5.001  0.00  0.00    -0.030 C 
ATOM     20  C   UNL     1      -5.271  -9.129   4.890  0.00  0.00    +0.039 C 
ENDBRANCH  11  15
BRANCH   1  22
ATOM     21  N   UNL     1       0.318  -7.325  -0.071  0.00  0.00    -0.310 N 
ATOM     22  C   UNL     1      -0.665  -7.334   0.851  0.00  0.00    +0.218 C 
ATOM     23  O   UNL     1      -1.651  -6.645   0.694  0.00  0.00    -0.275 OA
ATOM     24  H   UNL     1       1.106  -7.876   0.054  0.00  0.00    +0.149 HD
BRANCH  21  25
ATOM     25  C   UNL     1       0.195  -6.484  -1.264  0.00  0.00    +0.146 C 
BRANCH  25  29
ATOM     26  C   UNL     1       3.784  -6.602  -3.422  0.00  0.00    +0.038 A 
ATOM     27  C   UNL     1       2.842  -7.525  -3.794  0.00  0.00    +0.018 A 
ATOM     28  C   UNL     1       1.637  -7.547  -3.130  0.00  0.00    +0.013 A 
ATOM     29  C   UNL     1       1.418  -6.655  -2.128  0.00  0.00    +0.007 A 
ATOM     30  S   UNL     1       2.953  -5.745  -2.094  0.00  0.00    -0.090 S 
BRANCH  26  35
ATOM     31  C   UNL     1       7.208  -5.177  -3.961  0.00  0.00    +0.004 A 
ATOM     32  C   UNL     1       7.626  -5.989  -5.007  0.00  0.00    +0.020 A 
ATOM     33  C   UNL     1       6.774  -6.965  -5.490  0.00  0.00    +0.111 A 
ATOM     34  N   UNL     1       5.574  -7.134  -4.973  0.00  0.00    -0.254 NA
ATOM     35  C   UNL     1       5.136  -6.378  -3.971  0.00  0.00    +0.078 A 
ATOM     36  C   UNL     1       5.945  -5.374  -3.435  0.00  0.00    +0.029 A 
ENDBRANCH  26  35
ENDBRANCH  25  29
ENDBRANCH  21  25
ENDBRANCH   1  22
TORSDOF 5
