REMARK  Name = ZINC00702935
REMARK  8 active torsions:
REMARK  status: ('A' for Active; 'I' for Inactive)
REMARK    1  A    between atoms: C_1  and  C_2
REMARK    2  A    between atoms: C_3  and  C_33
REMARK    3  A    between atoms: C_8  and  C_26
REMARK    4  A    between atoms: C_10  and  C_15
REMARK    5  A    between atoms: C_11  and  O_14
REMARK    6  A    between atoms: C_15  and  C_17
REMARK    7  A    between atoms: C_29  and  O_32
REMARK    8  A    between atoms: C_33  and  C_35
REMARK                            x       y       z     vdW  Elec       q    Type
REMARK                         _______ _______ _______ _____ _____    ______ ____
ROOT
ATOM      1  C   UNL     1      -1.393  -1.464  -0.158  0.00  0.00    +0.067 C 
ATOM      2  C   UNL     1      -0.224  -0.534   0.042  0.00  0.00    +0.058 A 
ATOM      3  C   UNL     1      -0.417   0.812   0.347  0.00  0.00    +0.078 A 
ATOM      4  S   UNL     1       1.278   1.369   0.458  0.00  0.00    -0.049 S 
ATOM      5  C   UNL     1       2.040  -0.151   0.108  0.00  0.00    +0.169 A 
ATOM      6  N   UNL     1       1.005  -0.961  -0.065  0.00  0.00    -0.229 NA
ATOM      7  N   UNL     1       3.387  -0.444   0.031  0.00  0.00    -0.232 N 
ATOM      8  C   UNL     1       3.970  -1.757  -0.269  0.00  0.00    +0.152 C 
ATOM      9  C   UNL     1       5.469  -1.569  -0.239  0.00  0.00    +0.075 C 
ATOM     10  C   UNL     1       5.692  -0.266   0.052  0.00  0.00    +0.189 C 
ATOM     11  C   UNL     1       4.398   0.425   0.212  0.00  0.00    +0.288 C 
ATOM     12  O   UNL     1       4.265   1.605   0.473  0.00  0.00    -0.266 OA
ENDROOT
BRANCH   8  13
ATOM     13  C   UNL     1       3.533  -2.218  -1.636  0.00  0.00    -0.022 A 
ATOM     14  C   UNL     1       3.565  -1.340  -2.703  0.00  0.00    +0.009 A 
ATOM     15  C   UNL     1       3.170  -1.761  -3.958  0.00  0.00    +0.046 A 
ATOM     16  C   UNL     1       2.730  -3.063  -4.145  0.00  0.00    +0.117 A 
ATOM     17  C   UNL     1       2.693  -3.941  -3.071  0.00  0.00    +0.046 A 
ATOM     18  C   UNL     1       3.094  -3.516  -1.819  0.00  0.00    +0.009 A 
BRANCH  16  19
ATOM     19  O   UNL     1       2.336  -3.479  -5.377  0.00  0.00    -0.507 OA
ATOM     20  H   UNL     1       1.395  -3.346  -5.555  0.00  0.00    +0.292 HD
ENDBRANCH  16  19
ENDBRANCH   8  13
BRANCH   3  21
ATOM     21  C   UNL     1      -1.615   1.534   0.515  0.00  0.00    +0.168 C 
ATOM     22  O   UNL     1      -2.685   0.973   0.393  0.00  0.00    -0.292 OA
ATOM     23  C   UNL     1      -1.569   3.004   0.847  0.00  0.00    +0.092 C 
ENDBRANCH   3  21
BRANCH  10  24
ATOM     24  O   UNL     1       6.910   0.313   0.173  0.00  0.00    -0.502 OA
ATOM     25  H   UNL     1       6.798   1.282   0.392  0.00  0.00    +0.292 HD
ENDBRANCH  10  24
BRANCH   9  26
ATOM     26  C   UNL     1       6.485  -2.599  -0.479  0.00  0.00    +0.230 C 
ATOM     27  O   UNL     1       7.218  -2.517  -1.448  0.00  0.00    -0.284 OA
BRANCH  26  28
ATOM     28  C   UNL     1       6.620  -3.728   0.451  0.00  0.00    +0.176 A 
ATOM     29  C   UNL     1       7.580  -4.690   0.381  0.00  0.00    +0.061 A 
ATOM     30  C   UNL     1       7.324  -5.598   1.498  0.00  0.00    +0.021 A 
ATOM     31  C   UNL     1       7.941  -6.761   1.969  0.00  0.00    +0.011 A 
ATOM     32  C   UNL     1       7.442  -7.392   3.073  0.00  0.00    +0.001 A 
ATOM     33  C   UNL     1       6.328  -6.886   3.729  0.00  0.00    +0.004 A 
ATOM     34  C   UNL     1       5.705  -5.741   3.281  0.00  0.00    +0.047 A 
ATOM     35  C   UNL     1       6.195  -5.080   2.160  0.00  0.00    +0.136 A 
ATOM     36  O   UNL     1       5.813  -3.966   1.506  0.00  0.00    -0.452 OA
ENDBRANCH  26  28
ENDBRANCH   9  26
TORSDOF 6
