REMARK  Name = ZINC39631948
REMARK  11 active torsions:
REMARK  status: ('A' for Active; 'I' for Inactive)
REMARK    1  A    between atoms: C_1  and  C_2
REMARK    2  A    between atoms: C_2  and  C_4
REMARK    3  A    between atoms: C_2  and  N_11
REMARK    4  A    between atoms: C_4  and  C_5
REMARK    5  A    between atoms: C_5  and  C_6
REMARK    6  A    between atoms: C_6  and  C_7
REMARK    7  A    between atoms: C_7  and  C_8
REMARK    8  A    between atoms: C_7  and  C_9
REMARK    9  A    between atoms: C_7  and  O_10
REMARK   10  A    between atoms: C_12  and  C_14
REMARK   11  A    between atoms: C_25  and  C_27
REMARK                            x       y       z     vdW  Elec       q    Type
REMARK                         _______ _______ _______ _____ _____    ______ ____
ROOT
ATOM      1  C   UNL     1       0.792  -1.137   3.579  0.00  0.00    +0.100 C 
ATOM      2  C   UNL     1       1.982  -0.209   3.913  0.00  0.00    +0.121 C 
ATOM      3  N   UNL     1       1.446   0.739   4.918  0.00  0.00    -0.296 N 
ATOM      4  C   UNL     1       0.577  -0.094   5.784  0.00  0.00    +0.115 C 
ATOM      5  C   UNL     1      -0.126  -1.061   4.810  0.00  0.00    -0.004 C 
ATOM      6  C   UNL     1      -1.494  -0.511   4.417  0.00  0.00    -0.010 C 
ATOM      7  C   UNL     1      -2.406  -0.498   5.646  0.00  0.00    -0.082 C 
ATOM      8  N   UNL     1      -2.538  -1.862   6.174  0.00  0.00    +0.379 N 
ATOM      9  C   UNL     1      -1.233  -2.349   6.636  0.00  0.00    -0.082 C 
ATOM     10  C   UNL     1      -0.270  -2.440   5.448  0.00  0.00    -0.010 C 
ATOM     11  C   UNL     1       1.694   2.059   5.023  0.00  0.00    +0.248 C 
ATOM     12  O   UNL     1       2.358   2.623   4.173  0.00  0.00    -0.270 OA
ATOM     13  H   UNL     1      -3.188  -1.861   6.946  0.00  0.00    -0.086 HD
ATOM     14  H   UNL     1      -2.885  -2.470   5.447  0.00  0.00    -0.086 HD
ENDROOT
BRANCH  11  15
ATOM     15  C   UNL     1       1.162   2.818   6.161  0.00  0.00    +0.052 A 
ATOM     16  C   UNL     1       1.059   2.254   7.393  0.00  0.00    +0.059 A 
ATOM     17  S   UNL     1       0.415   3.448   8.378  0.00  0.00    -0.096 S 
ATOM     18  C   UNL     1       0.248   4.766   7.206  0.00  0.00    +0.020 A 
ATOM     19  C   UNL     1       0.732   4.210   6.007  0.00  0.00    +0.001 A 
ATOM     20  C   UNL     1       0.732   5.036   4.866  0.00  0.00    +0.010 A 
ATOM     21  C   UNL     1       0.278   6.329   4.946  0.00  0.00    +0.001 A 
ATOM     22  C   UNL     1      -0.189   6.855   6.141  0.00  0.00    +0.001 A 
ATOM     23  C   UNL     1      -0.210   6.064   7.274  0.00  0.00    +0.015 A 
ENDBRANCH  11  15
BRANCH   1  25
ATOM     24  N   UNL     1      -0.550  -1.517   1.536  0.00  0.00    -0.312 N 
ATOM     25  C   UNL     1       0.068  -0.642   2.353  0.00  0.00    +0.218 C 
ATOM     26  O   UNL     1       0.042   0.545   2.103  0.00  0.00    -0.275 OA
ATOM     27  H   UNL     1      -0.529  -2.466   1.736  0.00  0.00    +0.149 HD
BRANCH  24  29
ATOM     28  C   UNL     1      -0.260  -0.885  -0.809  0.00  0.00    +0.028 C 
ATOM     29  C   UNL     1      -1.254  -1.035   0.345  0.00  0.00    +0.070 C 
BRANCH  29  30
ATOM     30  C   UNL     1      -2.341  -2.039  -0.046  0.00  0.00    +0.022 C 
BRANCH  30  31
ATOM     31  C   UNL     1      -3.401  -2.096   1.055  0.00  0.00    +0.005 C 
BRANCH  31  32
ATOM     32  C   UNL     1      -4.488  -3.099   0.664  0.00  0.00    +0.034 C 
BRANCH  32  33
ATOM     33  C   UNL     1      -5.549  -3.157   1.765  0.00  0.00    +0.061 C 
ATOM     34  C   UNL     1      -6.174  -1.772   1.944  0.00  0.00    +0.041 C 
ATOM     35  C   UNL     1      -6.636  -4.160   1.375  0.00  0.00    +0.041 C 
BRANCH  33  36
ATOM     36  O   UNL     1      -4.941  -3.567   2.992  0.00  0.00    -0.389 OA
ATOM     37  H   UNL     1      -4.524  -4.439   2.952  0.00  0.00    +0.210 HD
ENDBRANCH  33  36
ENDBRANCH  32  33
ENDBRANCH  31  32
ENDBRANCH  30  31
ENDBRANCH  29  30
ENDBRANCH  24  29
ENDBRANCH   1  25
TORSDOF 8
