REMARK  Name = ZINC39689386
REMARK  7 active torsions:
REMARK  status: ('A' for Active; 'I' for Inactive)
REMARK    1  A    between atoms: C_1  and  C_2
REMARK    2  A    between atoms: C_6  and  C_8
REMARK    3  A    between atoms: C_8  and  C_9
REMARK    4  A    between atoms: C_9  and  N_10
REMARK    5  A    between atoms: C_11  and  C_13
REMARK    6  A    between atoms: C_24  and  C_26
REMARK    7  A    between atoms: C_26  and  C_32
REMARK                            x       y       z     vdW  Elec       q    Type
REMARK                         _______ _______ _______ _____ _____    ______ ____
ROOT
ATOM      1  C   UNL     1       2.713  -4.934   6.066  0.00  0.00    +0.100 C 
ATOM      2  C   UNL     1       2.157  -4.049   7.204  0.00  0.00    +0.121 C 
ATOM      3  N   UNL     1       2.994  -4.382   8.380  0.00  0.00    -0.300 N 
ATOM      4  C   UNL     1       4.362  -4.528   7.829  0.00  0.00    +0.115 C 
ATOM      5  C   UNL     1       4.161  -5.245   6.480  0.00  0.00    -0.004 C 
ATOM      6  C   UNL     1       4.350  -6.750   6.648  0.00  0.00    -0.010 C 
ATOM      7  C   UNL     1       5.811  -7.039   7.005  0.00  0.00    -0.082 C 
ATOM      8  N   UNL     1       6.686  -6.532   5.940  0.00  0.00    +0.379 N 
ATOM      9  C   UNL     1       6.566  -5.072   5.847  0.00  0.00    -0.082 C 
ATOM     10  C   UNL     1       5.137  -4.699   5.442  0.00  0.00    -0.010 C 
ATOM     11  C   UNL     1       2.600  -4.521   9.662  0.00  0.00    +0.222 C 
ATOM     12  O   UNL     1       3.423  -4.715  10.531  0.00  0.00    -0.275 OA
ATOM     13  H   UNL     1       7.642  -6.777   6.147  0.00  0.00    -0.086 HD
ATOM     14  H   UNL     1       6.418  -6.947   5.060  0.00  0.00    -0.086 HD
ENDROOT
BRANCH  11  15
ATOM     15  C   UNL     1       1.137  -4.434  10.014  0.00  0.00    +0.044 C 
ATOM     16  C   UNL     1       0.567  -3.110   9.503  0.00  0.00    +0.016 C 
ATOM     17  C   UNL     1       1.318  -1.946  10.153  0.00  0.00    +0.001 C 
ATOM     18  C   UNL     1       1.154  -2.020  11.673  0.00  0.00    +0.000 C 
ATOM     19  C   UNL     1       1.724  -3.344  12.184  0.00  0.00    +0.001 C 
ATOM     20  C   UNL     1       0.974  -4.508  11.534  0.00  0.00    +0.016 C 
ATOM     21  C   UNL     1       0.386  -5.598   9.364  0.00  0.00    +0.021 C 
ENDBRANCH  11  15
BRANCH   1  23
ATOM     22  N   UNL     1       2.729  -4.858   3.593  0.00  0.00    -0.315 N 
ATOM     23  C   UNL     1       2.691  -4.183   4.759  0.00  0.00    +0.218 C 
ATOM     24  O   UNL     1       2.639  -2.971   4.757  0.00  0.00    -0.275 OA
ATOM     25  H   UNL     1       2.770  -5.827   3.595  0.00  0.00    +0.149 HD
BRANCH  22  26
ATOM     26  C   UNL     1       2.708  -4.128   2.323  0.00  0.00    +0.109 C 
BRANCH  26  27
ATOM     27  C   UNL     1       2.759  -5.124   1.162  0.00  0.00    +0.054 C 
BRANCH  27  33
ATOM     28  C   UNL     1       0.196  -3.074  -2.616  0.00  0.00    +0.044 C 
ATOM     29  C   UNL     1       1.510  -3.393  -1.952  0.00  0.00    -0.050 A 
ATOM     30  C   UNL     1       2.696  -2.997  -2.542  0.00  0.00    +0.003 A 
ATOM     31  C   UNL     1       3.902  -3.289  -1.933  0.00  0.00    +0.001 A 
ATOM     32  C   UNL     1       3.923  -3.978  -0.734  0.00  0.00    +0.004 A 
ATOM     33  C   UNL     1       2.737  -4.373  -0.144  0.00  0.00    -0.046 A 
ATOM     34  C   UNL     1       1.530  -4.077  -0.751  0.00  0.00    +0.007 A 
ENDBRANCH  27  33
ENDBRANCH  26  27
ENDBRANCH  22  26
ENDBRANCH   1  23
TORSDOF 5
