REMARK  Name = ZINC02745636
REMARK  7 active torsions:
REMARK  status: ('A' for Active; 'I' for Inactive)
REMARK    1  A    between atoms: C_1  and  C_2
REMARK    2  A    between atoms: C_9  and  N_14
REMARK    3  A    between atoms: C_10  and  C_11
REMARK    4  A    between atoms: N_14  and  C_15
REMARK    5  A    between atoms: C_15  and  N_17
REMARK    6  A    between atoms: C_18  and  C_20
REMARK    7  A    between atoms: N_24  and  C_25
REMARK                            x       y       z     vdW  Elec       q    Type
REMARK                         _______ _______ _______ _____ _____    ______ ____
ROOT
ATOM      1  C   UNL     1       4.801  -2.534  -0.122  0.00  0.00    +0.008 C 
ATOM      2  C   UNL     1       3.952  -1.292  -0.399  0.00  0.00    -0.009 C 
ATOM      3  C   UNL     1       4.474  -0.118   0.435  0.00  0.00    +0.008 C 
ATOM      4  C   UNL     1       3.799   1.179  -0.013  0.00  0.00    +0.037 C 
ATOM      5  C   UNL     1       2.288   0.976  -0.002  0.00  0.00    -0.023 A 
ATOM      6  C   UNL     1       1.754  -0.264   0.002  0.00  0.00    -0.004 A 
ATOM      7  S   UNL     1       0.003  -0.003   0.017  0.00  0.00    -0.077 S 
ATOM      8  C   UNL     1      -0.021   1.730   0.019  0.00  0.00    +0.084 A 
ATOM      9  C   UNL     1       1.326   2.065   0.008  0.00  0.00    +0.068 A 
ATOM     10  C   UNL     1       2.493  -1.567  -0.007  0.00  0.00    +0.046 C 
ENDROOT
BRANCH   9  11
ATOM     11  C   UNL     1       1.762   3.464   0.006  0.00  0.00    +0.244 C 
ATOM     12  O   UNL     1       1.952   4.044   1.059  0.00  0.00    -0.270 OA
ATOM     13  N   UNL     1       1.951   4.109  -1.162  0.00  0.00    -0.325 N 
ATOM     14  H   UNL     1       1.800   3.648  -2.001  0.00  0.00    +0.145 HD
ATOM     15  H   UNL     1       2.240   5.036  -1.163  0.00  0.00    +0.145 HD
ENDBRANCH   9  11
BRANCH   8  16
ATOM     16  N   UNL     1      -1.118   2.576   0.024  0.00  0.00    -0.291 N 
ATOM     17  H   UNL     1      -0.990   3.537   0.024  0.00  0.00    +0.154 HD
BRANCH  16  18
ATOM     18  C   UNL     1      -2.365   2.063   0.029  0.00  0.00    +0.141 C 
ATOM     19  S   UNL     1      -2.592   0.366   0.029  0.00  0.00    -0.018 S 
BRANCH  18  20
ATOM     20  N   UNL     1      -3.432   2.885   0.034  0.00  0.00    -0.262 N 
ATOM     21  C   UNL     1      -4.678   2.373   0.039  0.00  0.00    +0.269 C 
ATOM     22  O   UNL     1      -4.842   1.171  -0.057  0.00  0.00    -0.268 OA
ATOM     23  H   UNL     1      -3.303   3.847   0.035  0.00  0.00    +0.157 HD
BRANCH  21  24
ATOM     24  C   UNL     1      -5.840   3.265   0.161  0.00  0.00    +0.136 A 
ATOM     25  C   UNL     1      -6.657   3.712  -0.865  0.00  0.00    +0.063 A 
ATOM     26  C   UNL     1      -7.610   4.527  -0.250  0.00  0.00    +0.149 A 
ATOM     27  N   UNL     1      -7.356   4.545   1.034  0.00  0.00    -0.178 NA
ATOM     28  N   UNL     1      -6.335   3.816   1.310  0.00  0.00    -0.261 N 
ATOM     29  C   UNL     1      -5.783   3.610   2.651  0.00  0.00    +0.173 C 
ATOM     30  I   UNL     1      -6.498   3.259  -2.904  0.00  0.00    -0.040 I 
ENDBRANCH  21  24
ENDBRANCH  18  20
ENDBRANCH  16  18
ENDBRANCH   8  16
TORSDOF 5
