REMARK  Name = ZINC03172407
REMARK  6 active torsions:
REMARK  status: ('A' for Active; 'I' for Inactive)
REMARK    1  A    between atoms: C_1  and  C_2
REMARK    2  A    between atoms: C_5  and  C_8
REMARK    3  A    between atoms: C_8  and  C_10
REMARK    4  A    between atoms: C_10  and  N_11
REMARK    5  A    between atoms: N_25  and  C_32
REMARK    6  A    between atoms: N_28  and  C_31
REMARK                            x       y       z     vdW  Elec       q    Type
REMARK                         _______ _______ _______ _____ _____    ______ ____
ROOT
ATOM      1  N   UNL     1      -1.875  -4.180   0.325  0.00  0.00    -0.299 N 
ATOM      2  C   UNL     1      -1.722  -5.215  -0.588  0.00  0.00    +0.153 A 
ATOM      3  C   UNL     1      -1.203  -6.292   0.123  0.00  0.00    +0.170 A 
ATOM      4  N   UNL     1      -1.068  -5.907   1.393  0.00  0.00    -0.196 NA
ATOM      5  C   UNL     1      -1.462  -4.657   1.530  0.00  0.00    +0.201 A 
ATOM      6  N   UNL     1      -1.458  -3.946   2.707  0.00  0.00    -0.298 N 
ATOM      7  C   UNL     1      -0.689  -2.702   2.568  0.00  0.00    +0.127 C 
ATOM      8  C   UNL     1      -0.858  -1.856   3.835  0.00  0.00    +0.126 C 
ATOM      9  N   UNL     1      -0.500  -2.681   4.998  0.00  0.00    -0.302 N 
ATOM     10  C   UNL     1      -1.129  -4.004   5.133  0.00  0.00    +0.126 C 
ATOM     11  C   UNL     1      -0.950  -4.765   3.815  0.00  0.00    +0.127 C 
ATOM     12  C   UNL     1       0.398  -2.228   5.936  0.00  0.00    +0.151 C 
ATOM     13  H   UNL     1       1.242  -2.693   7.730  0.00  0.00    +0.158 HD
ATOM     14  N   UNL     1       1.054  -1.036   5.739  0.00  0.00    -0.333 N 
ATOM     15  N   UNL     1      -0.944  -7.474  -0.550  0.00  0.00    -0.280 N 
ATOM     16  C   UNL     1      -1.202  -7.570  -1.869  0.00  0.00    +0.333 A 
ATOM     17  O   UNL     1      -0.972  -8.617  -2.444  0.00  0.00    -0.246 OA
ATOM     18  N   UNL     1      -1.700  -6.534  -2.566  0.00  0.00    -0.262 N 
ATOM     19  C   UNL     1      -1.968  -5.357  -1.965  0.00  0.00    +0.282 A 
ATOM     20  O   UNL     1      -2.420  -4.426  -2.609  0.00  0.00    -0.265 OA
ATOM     21  C   UNL     1      -1.955  -6.687  -4.001  0.00  0.00    +0.157 C 
ATOM     22  C   UNL     1      -0.404  -8.627   0.175  0.00  0.00    +0.155 C 
ATOM     23  H   UNL     1       0.815  -0.469   4.989  0.00  0.00    +0.145 HD
ATOM     24  H   UNL     1       1.756  -0.762   6.350  0.00  0.00    +0.145 HD
ATOM     25  N   UNL     1       0.586  -2.986   7.006  0.00  0.00    -0.375 N 
ATOM     26  H   UNL     1       0.071  -3.869   7.107  0.00  0.00    +0.158 HD
ENDROOT
BRANCH   1  27
ATOM     27  C   UNL     1      -2.388  -2.837   0.046  0.00  0.00    +0.204 C 
BRANCH  27  28
ATOM     28  C   UNL     1      -1.243  -1.929  -0.325  0.00  0.00    +0.183 C 
ATOM     29  O   UNL     1      -0.111  -2.362  -0.353  0.00  0.00    -0.290 OA
BRANCH  28  34
ATOM     30  C   UNL     1      -2.246   3.584  -1.607  0.00  0.00    +0.044 C 
ATOM     31  C   UNL     1      -1.983   2.139  -1.271  0.00  0.00    -0.050 A 
ATOM     32  C   UNL     1      -0.689   1.649  -1.303  0.00  0.00    +0.004 A 
ATOM     33  C   UNL     1      -0.440   0.328  -0.997  0.00  0.00    +0.012 A 
ATOM     34  C   UNL     1      -1.500  -0.518  -0.652  0.00  0.00    +0.019 A 
ATOM     35  C   UNL     1      -2.805  -0.016  -0.626  0.00  0.00    +0.012 A 
ATOM     36  C   UNL     1      -3.037   1.309  -0.930  0.00  0.00    +0.004 A 
ENDBRANCH  28  34
ENDBRANCH  27  28
ENDBRANCH   1  27
TORSDOF 3
