REMARK  Name = ZINC39636102
REMARK  6 active torsions:
REMARK  status: ('A' for Active; 'I' for Inactive)
REMARK    1  A    between atoms: C_1  and  C_2
REMARK    2  A    between atoms: C_8  and  N_10
REMARK    3  A    between atoms: C_11  and  C_13
REMARK    4  A    between atoms: C_24  and  C_26
REMARK    5  A    between atoms: C_29  and  O_33
REMARK    6  A    between atoms: O_33  and  C_34
REMARK                            x       y       z     vdW  Elec       q    Type
REMARK                         _______ _______ _______ _____ _____    ______ ____
ROOT
ATOM      1  C   UNL     1       0.430   0.973   4.524  0.00  0.00    +0.100 C 
ATOM      2  C   UNL     1      -0.273   2.349   4.522  0.00  0.00    +0.121 C 
ATOM      3  N   UNL     1      -0.069   2.875   5.893  0.00  0.00    -0.296 N 
ATOM      4  C   UNL     1       1.318   2.481   6.236  0.00  0.00    +0.115 C 
ATOM      5  C   UNL     1       1.474   1.064   5.649  0.00  0.00    -0.004 C 
ATOM      6  C   UNL     1       1.188   0.015   6.720  0.00  0.00    -0.010 C 
ATOM      7  C   UNL     1       2.272   0.087   7.800  0.00  0.00    -0.082 C 
ATOM      8  N   UNL     1       3.587  -0.150   7.192  0.00  0.00    +0.379 N 
ATOM      9  C   UNL     1       3.893   0.916   6.230  0.00  0.00    -0.082 C 
ATOM     10  C   UNL     1       2.878   0.879   5.084  0.00  0.00    -0.010 C 
ATOM     11  C   UNL     1      -0.947   3.557   6.655  0.00  0.00    +0.247 C 
ATOM     12  O   UNL     1      -2.092   3.710   6.275  0.00  0.00    -0.270 OA
ATOM     13  H   UNL     1       4.292  -0.162   7.914  0.00  0.00    -0.086 HD
ATOM     14  H   UNL     1       3.581  -1.039   6.716  0.00  0.00    -0.086 HD
ENDROOT
BRANCH  11  15
ATOM     15  C   UNL     1      -0.518   4.119   7.951  0.00  0.00    +0.040 A 
ATOM     16  C   UNL     1       0.837   4.356   8.198  0.00  0.00    +0.036 A 
ATOM     17  C   UNL     1       1.233   4.880   9.409  0.00  0.00    +0.085 A 
ATOM     18  C   UNL     1       0.287   5.173  10.385  0.00  0.00    +0.157 A 
ATOM     19  C   UNL     1      -1.062   4.939  10.143  0.00  0.00    +0.085 A 
ATOM     20  C   UNL     1      -1.467   4.421   8.931  0.00  0.00    +0.036 A 
ATOM     21 CL   UNL     1      -2.239   5.307  11.365  0.00  0.00    -0.080 Cl
ATOM     22 CL   UNL     1       2.916   5.174   9.717  0.00  0.00    -0.080 Cl
BRANCH  18  23
ATOM     23  O   UNL     1       0.681   5.689  11.577  0.00  0.00    -0.492 OA
ATOM     24  C   UNL     1       0.750   7.113  11.677  0.00  0.00    +0.277 C 
ENDBRANCH  18  23
ENDBRANCH  11  15
BRANCH   1  26
ATOM     25  N   UNL     1       1.228  -0.528   2.727  0.00  0.00    -0.312 N 
ATOM     26  C   UNL     1       1.106   0.729   3.199  0.00  0.00    +0.218 C 
ATOM     27  O   UNL     1       1.541   1.662   2.559  0.00  0.00    -0.275 OA
ATOM     28  H   UNL     1       0.881  -1.274   3.239  0.00  0.00    +0.149 HD
BRANCH  25  35
ATOM     29  C   UNL     1      -0.137  -1.990   0.633  0.00  0.00    +0.009 C 
ATOM     30  C   UNL     1       1.377  -2.079   0.842  0.00  0.00    +0.006 C 
ATOM     31  C   UNL     1       1.694  -3.231   1.797  0.00  0.00    +0.005 C 
ATOM     32  C   UNL     1       3.207  -3.319   2.006  0.00  0.00    +0.000 C 
ATOM     33  C   UNL     1       3.716  -2.006   2.604  0.00  0.00    +0.002 C 
ATOM     34  C   UNL     1       3.399  -0.854   1.649  0.00  0.00    +0.022 C 
ATOM     35  C   UNL     1       1.886  -0.766   1.440  0.00  0.00    +0.076 C 
ENDBRANCH  25  35
ENDBRANCH   1  26
TORSDOF 4
