REMARK  Name = ZINC06572632
REMARK  16 active torsions:
REMARK  status: ('A' for Active; 'I' for Inactive)
REMARK    1  A    between atoms: C_1  and  C_2
REMARK    2  A    between atoms: C_5  and  N_9
REMARK    3  A    between atoms: C_6  and  C_8
REMARK    4  A    between atoms: N_9  and  C_10
REMARK    5  A    between atoms: C_10  and  N_12
REMARK    6  A    between atoms: N_12  and  C_13
REMARK    7  A    between atoms: C_13  and  C_14
REMARK    8  A    between atoms: C_14  and  C_15
REMARK    9  A    between atoms: C_14  and  C_16
REMARK   10  A    between atoms: C_14  and  C_17
REMARK   11  A    between atoms: C_17  and  N_18
REMARK   12  A    between atoms: N_18  and  C_19
REMARK   13  A    between atoms: C_19  and  N_21
REMARK   14  A    between atoms: N_21  and  C_22
REMARK   15  A    between atoms: C_25  and  C_29
REMARK   16  A    between atoms: C_27  and  C_28
REMARK                            x       y       z     vdW  Elec       q    Type
REMARK                         _______ _______ _______ _____ _____    ______ ____
ROOT
ATOM      1  C   UNL     1      -1.387   3.763  -0.140  0.00  0.00    -0.004 C 
ATOM      2  C   UNL     1      -0.720   4.346   1.108  0.00  0.00    +0.014 C 
ATOM      3  C   UNL     1      -0.454   3.926  -1.341  0.00  0.00    +0.014 C 
ENDROOT
BRANCH   1   4
ATOM      4  C   UNL     1      -1.677   2.277   0.083  0.00  0.00    +0.111 C 
BRANCH   4   5
ATOM      5  N   UNL     1      -0.420   1.569   0.342  0.00  0.00    -0.326 N 
ATOM      6  H   UNL     1       0.419   2.055   0.345  0.00  0.00    +0.148 HD
BRANCH   5   7
ATOM      7  C   UNL     1      -0.431   0.240   0.568  0.00  0.00    +0.135 C 
ATOM      8  S   UNL     1      -1.912  -0.618   0.561  0.00  0.00    -0.019 S 
BRANCH   7   9
ATOM      9  N   UNL     1       0.726  -0.412   0.800  0.00  0.00    -0.297 N 
ATOM     10  H   UNL     1       1.569   0.065   0.756  0.00  0.00    +0.154 HD
BRANCH   9  15
ATOM     11  C   UNL     1       0.658  -5.949   2.034  0.00  0.00    +0.044 C 
ATOM     12  C   UNL     1       0.676  -4.478   1.706  0.00  0.00    -0.050 A 
ATOM     13  C   UNL     1      -0.309  -3.647   2.209  0.00  0.00    +0.005 A 
ATOM     14  C   UNL     1      -0.295  -2.299   1.910  0.00  0.00    +0.024 A 
ATOM     15  C   UNL     1       0.709  -1.778   1.104  0.00  0.00    +0.036 A 
ATOM     16  C   UNL     1       1.693  -2.616   0.597  0.00  0.00    -0.029 A 
ATOM     17  C   UNL     1       1.677  -3.962   0.904  0.00  0.00    +0.008 A 
ATOM     18  C   UNL     1       2.781  -2.055  -0.282  0.00  0.00    +0.045 C 
ENDBRANCH   9  15
ENDBRANCH   7   9
ENDBRANCH   5   7
ENDBRANCH   4   5
ENDBRANCH   1   4
BRANCH   1  19
ATOM     19  C   UNL     1      -2.699   4.503  -0.409  0.00  0.00    +0.111 C 
BRANCH  19  20
ATOM     20  N   UNL     1      -2.422   5.926  -0.623  0.00  0.00    -0.326 N 
ATOM     21  H   UNL     1      -1.510   6.254  -0.580  0.00  0.00    +0.148 HD
BRANCH  20  22
ATOM     22  C   UNL     1      -3.434   6.778  -0.879  0.00  0.00    +0.135 C 
ATOM     23  S   UNL     1      -5.043   6.199  -0.955  0.00  0.00    -0.019 S 
BRANCH  22  24
ATOM     24  N   UNL     1      -3.179   8.087  -1.076  0.00  0.00    -0.297 N 
ATOM     25  H   UNL     1      -2.263   8.404  -1.103  0.00  0.00    +0.154 HD
BRANCH  24  26
ATOM     26  C   UNL     1      -4.237   8.988  -1.241  0.00  0.00    +0.036 A 
ATOM     27  C   UNL     1      -5.294   8.674  -2.085  0.00  0.00    +0.024 A 
ATOM     28  C   UNL     1      -6.336   9.566  -2.246  0.00  0.00    +0.005 A 
ATOM     29  C   UNL     1      -6.327  10.771  -1.568  0.00  0.00    -0.050 A 
ATOM     30  C   UNL     1      -5.277  11.087  -0.726  0.00  0.00    +0.008 A 
ATOM     31  C   UNL     1      -4.234  10.197  -0.557  0.00  0.00    -0.029 A 
ATOM     32  C   UNL     1      -3.092  10.539   0.365  0.00  0.00    +0.045 C 
ATOM     33  C   UNL     1      -7.466  11.742  -1.745  0.00  0.00    +0.044 C 
ENDBRANCH  24  26
ENDBRANCH  22  24
ENDBRANCH  20  22
ENDBRANCH  19  20
ENDBRANCH   1  19
TORSDOF 10
