REMARK  Name = ZINC67342060
REMARK  10 active torsions:
REMARK  status: ('A' for Active; 'I' for Inactive)
REMARK    1  A    between atoms: C_1  and  C_2
REMARK    2  A    between atoms: C_5  and  C_21
REMARK    3  A    between atoms: C_7  and  N_8
REMARK    4  A    between atoms: N_23  and  C_24
REMARK    5  A    between atoms: C_24  and  C_25
REMARK    6  A    between atoms: C_25  and  C_26
REMARK    7  A    between atoms: C_26  and  N_27
REMARK    8  A    between atoms: N_27  and  C_28
REMARK    9  A    between atoms: N_27  and  C_29
REMARK   10  A    between atoms: C_29  and  C_30
REMARK                            x       y       z     vdW  Elec       q    Type
REMARK                         _______ _______ _______ _____ _____    ______ ____
ROOT
ATOM      1  C   UNL     1       0.639   1.454   0.059  0.00  0.00    +0.046 C 
ATOM      2  C   UNL     1       0.330  -0.020   0.021  0.00  0.00    -0.025 A 
ATOM      3  C   UNL     1       0.344  -0.697  -1.182  0.00  0.00    +0.006 A 
ATOM      4  C   UNL     1       0.062  -2.048  -1.226  0.00  0.00    +0.013 A 
ATOM      5  C   UNL     1      -0.241  -2.740  -0.051  0.00  0.00    +0.039 A 
ATOM      6  C   UNL     1      -0.257  -2.064   1.167  0.00  0.00    +0.041 A 
ATOM      7  C   UNL     1       0.034  -0.701   1.205  0.00  0.00    +0.070 A 
ENDROOT
BRANCH   7   8
ATOM      8  N   UNL     1       0.025  -0.029   2.399  0.00  0.00    -0.226 NA
ATOM      9  C   UNL     1       0.690  -0.507   3.426  0.00  0.00    +0.155 C 
ATOM     10  N   UNL     1       1.513  -1.612   3.457  0.00  0.00    -0.318 N 
ATOM     11  C   UNL     1       2.105  -2.006   4.724  0.00  0.00    +0.108 C 
ATOM     12  C   UNL     1       3.490  -2.645   4.511  0.00  0.00    +0.189 C 
ATOM     13  S   UNL     1       4.646  -1.245   4.795  0.00  0.00    -0.028 S 
ATOM     14  O   UNL     1       5.273  -0.906   3.565  0.00  0.00    -0.174 OA
ATOM     15  O   UNL     1       5.449  -1.532   5.932  0.00  0.00    -0.174 OA
ATOM     16  C   UNL     1       3.436   0.071   5.232  0.00  0.00    +0.182 C 
ATOM     17  C   UNL     1       2.233  -0.774   5.668  0.00  0.00    +0.097 C 
ATOM     18  S   UNL     1       0.733   0.136   5.095  0.00  0.00    -0.084 S 
ATOM     19  H   UNL     1       1.694  -2.116   2.648  0.00  0.00    +0.148 HD
ENDBRANCH   7   8
BRANCH   5  20
ATOM     20  C   UNL     1      -0.543  -4.186  -0.099  0.00  0.00    +0.244 C 
ATOM     21  O   UNL     1      -0.806  -4.787   0.924  0.00  0.00    -0.270 OA
ATOM     22  N   UNL     1      -0.527  -4.838  -1.279  0.00  0.00    -0.311 N 
ATOM     23  H   UNL     1      -0.318  -4.359  -2.095  0.00  0.00    +0.149 HD
BRANCH  22  24
ATOM     24  C   UNL     1      -0.827  -6.272  -1.327  0.00  0.00    +0.102 C 
BRANCH  24  25
ATOM     25  C   UNL     1      -0.742  -6.762  -2.774  0.00  0.00    +0.000 C 
BRANCH  25  26
ATOM     26  C   UNL     1      -1.055  -8.259  -2.824  0.00  0.00    -0.077 C 
BRANCH  26  27
ATOM     27  N   UNL     1      -0.973  -8.730  -4.213  0.00  0.00    +0.381 N 
ATOM     28  C   UNL     1       0.411  -8.606  -4.691  0.00  0.00    -0.096 C 
ATOM     29  H   UNL     1      -1.580  -8.172  -4.794  0.00  0.00    -0.082 HD
BRANCH  27  30
ATOM     30  C   UNL     1      -1.389 -10.137  -4.279  0.00  0.00    -0.043 C 
BRANCH  30  31
ATOM     31  C   UNL     1      -1.423 -10.584  -5.718  0.00  0.00    -0.064 A 
ATOM     32  C   UNL     1      -2.581 -10.442  -6.459  0.00  0.00    +0.002 A 
ATOM     33  C   UNL     1      -2.612 -10.852  -7.778  0.00  0.00    +0.000 A 
ATOM     34  C   UNL     1      -1.484 -11.405  -8.357  0.00  0.00    +0.000 A 
ATOM     35  C   UNL     1      -0.326 -11.546  -7.616  0.00  0.00    +0.000 A 
ATOM     36  C   UNL     1      -0.294 -11.132  -6.298  0.00  0.00    +0.002 A 
ENDBRANCH  30  31
ENDBRANCH  27  30
ENDBRANCH  26  27
ENDBRANCH  25  26
ENDBRANCH  24  25
ENDBRANCH  22  24
ENDBRANCH   5  20
TORSDOF 8
