REMARK  Name = ZINC32666513
REMARK  13 active torsions:
REMARK  status: ('A' for Active; 'I' for Inactive)
REMARK    1  A    between atoms: C_1  and  C_2
REMARK    2  A    between atoms: C_2  and  N_3
REMARK    3  A    between atoms: N_3  and  C_4
REMARK    4  A    between atoms: C_5  and  N_20
REMARK    5  A    between atoms: N_6  and  C_13
REMARK    6  A    between atoms: C_13  and  C_14
REMARK    7  A    between atoms: C_21  and  C_23
REMARK    8  A    between atoms: C_23  and  O_24
REMARK    9  A    between atoms: O_24  and  C_25
REMARK   10  A    between atoms: C_25  and  C_27
REMARK   11  A    between atoms: C_27  and  N_35
REMARK   12  A    between atoms: C_28  and  C_29
REMARK   13  A    between atoms: C_36  and  C_38
REMARK                            x       y       z     vdW  Elec       q    Type
REMARK                         _______ _______ _______ _____ _____    ______ ____
ROOT
ATOM      1  N   UNL     1       2.083   5.132  -0.668  0.00  0.00    -0.262 N 
ATOM      2  C   UNL     1       2.139   6.477  -0.580  0.00  0.00    +0.258 C 
ATOM      3  O   UNL     1       1.135   7.112  -0.332  0.00  0.00    -0.272 OA
ENDROOT
BRANCH   1   4
ATOM      4  C   UNL     1       0.840   4.471  -0.578  0.00  0.00    +0.140 A 
ATOM      5  C   UNL     1       0.561   3.645   0.492  0.00  0.00    +0.128 A 
ATOM      6  N   UNL     1      -0.660   3.014   0.553  0.00  0.00    -0.276 N 
ATOM      7  C   UNL     1      -1.573   3.204  -0.416  0.00  0.00    +0.331 A 
ATOM      8  O   UNL     1      -2.648   2.640  -0.342  0.00  0.00    -0.246 OA
ATOM      9  N   UNL     1      -1.317   4.001  -1.469  0.00  0.00    -0.273 N 
ATOM     10  H   UNL     1      -2.075   4.135  -2.254  0.00  0.00    +0.173 HD
ATOM     11  C   UNL     1      -0.137   4.642  -1.576  0.00  0.00    +0.277 A 
ATOM     12  O   UNL     1       0.084   5.366  -2.533  0.00  0.00    -0.266 OA
BRANCH   5  13
ATOM     13  N   UNL     1       1.492   3.454   1.485  0.00  0.00    -0.343 N 
ATOM     14  H   UNL     1       1.263   2.795   2.335  0.00  0.00    +0.144 HD
ATOM     15  H   UNL     1       2.467   3.962   1.430  0.00  0.00    +0.144 HD
ENDBRANCH   5  13
BRANCH   6  16
ATOM     16  C   UNL     1      -0.969   2.134   1.683  0.00  0.00    +0.163 C 
BRANCH  16  17
ATOM     17  C   UNL     1      -1.611   2.938   2.784  0.00  0.00    -0.028 A 
ATOM     18  C   UNL     1      -0.826   3.523   3.760  0.00  0.00    +0.005 A 
ATOM     19  C   UNL     1      -1.415   4.265   4.768  0.00  0.00    +0.000 A 
ATOM     20  C   UNL     1      -2.789   4.413   4.805  0.00  0.00    +0.000 A 
ATOM     21  C   UNL     1      -3.574   3.823   3.832  0.00  0.00    +0.000 A 
ATOM     22  C   UNL     1      -2.985   3.086   2.821  0.00  0.00    +0.005 A 
ENDBRANCH  16  17
ENDBRANCH   6  16
ENDBRANCH   1   4
BRANCH   1  24
ATOM     23  C   UNL     1       3.628   4.261  -2.353  0.00  0.00    +0.025 C 
ATOM     24  C   UNL     1       3.312   4.358  -0.859  0.00  0.00    +0.110 C 
ENDBRANCH   1  24
BRANCH   2  25
ATOM     25  C   UNL     1       3.449   7.192  -0.790  0.00  0.00    +0.328 C 
BRANCH  25  26
ATOM     26  O   UNL     1       3.249   8.623  -0.644  0.00  0.00    -0.451 OA
BRANCH  26  27
ATOM     27  C   UNL     1       4.331   9.412  -0.803  0.00  0.00    +0.354 C 
ATOM     28  O   UNL     1       5.412   8.917  -1.056  0.00  0.00    -0.244 OA
BRANCH  27  29
ATOM     29  C   UNL     1       4.203  10.869  -0.670  0.00  0.00    +0.119 C 
ATOM     30  C   UNL     1       5.303  11.654  -0.744  0.00  0.00    +0.038 C 
BRANCH  30  31
ATOM     31  C   UNL     1       5.161  13.118  -0.774  0.00  0.00    -0.023 A 
ATOM     32  C   UNL     1       3.981  13.700  -1.248  0.00  0.00    +0.008 A 
ATOM     33  C   UNL     1       3.853  15.073  -1.268  0.00  0.00    +0.001 A 
ATOM     34  C   UNL     1       4.893  15.875  -0.832  0.00  0.00    +0.000 A 
ATOM     35  C   UNL     1       6.066  15.306  -0.366  0.00  0.00    +0.001 A 
ATOM     36  C   UNL     1       6.207  13.935  -0.334  0.00  0.00    +0.008 A 
ENDBRANCH  30  31
BRANCH  29  37
ATOM     37  N   UNL     1       2.945  11.445  -0.466  0.00  0.00    -0.280 N 
ATOM     38  C   UNL     1       1.955  11.235  -1.356  0.00  0.00    +0.214 C 
ATOM     39  O   UNL     1       2.129  10.479  -2.289  0.00  0.00    -0.276 OA
ATOM     40  C   UNL     1       0.633  11.938  -1.193  0.00  0.00    +0.109 C 
ATOM     41  H   UNL     1       2.763  12.070   0.421  0.00  0.00    +0.155 HD
ENDBRANCH  29  37
ENDBRANCH  27  29
ENDBRANCH  26  27
ENDBRANCH  25  26
ENDBRANCH   2  25
TORSDOF 11
