REMARK  Name = ZINC39272932
REMARK  9 active torsions:
REMARK  status: ('A' for Active; 'I' for Inactive)
REMARK    1  A    between atoms: C_1  and  C_2
REMARK    2  A    between atoms: C_4  and  O_33
REMARK    3  A    between atoms: C_11  and  C_16
REMARK    4  A    between atoms: C_13  and  C_15
REMARK    5  A    between atoms: C_16  and  C_17
REMARK    6  A    between atoms: N_19  and  C_20
REMARK    7  A    between atoms: C_20  and  C_22
REMARK    8  A    between atoms: C_20  and  C_23
REMARK    9  A    between atoms: C_23  and  C_24
REMARK                            x       y       z     vdW  Elec       q    Type
REMARK                         _______ _______ _______ _____ _____    ______ ____
ROOT
ATOM      1  C   UNL     1      -2.389  -5.389   2.657  0.00  0.00    +0.214 C 
ATOM      2  O   UNL     1      -1.585  -5.893   3.412  0.00  0.00    -0.276 OA
ATOM      3  N   UNL     1      -3.701  -5.403   2.962  0.00  0.00    -0.312 N 
ATOM      4  H   UNL     1      -4.344  -5.000   2.358  0.00  0.00    +0.149 HD
ENDROOT
BRANCH   3   5
ATOM      5  C   UNL     1      -4.157  -6.028   4.206  0.00  0.00    +0.074 C 
ATOM      6  C   UNL     1      -4.052  -5.019   5.352  0.00  0.00    +0.028 C 
BRANCH   5   7
ATOM      7  C   UNL     1      -5.613  -6.472   4.050  0.00  0.00    +0.059 C 
BRANCH   7   8
ATOM      8  C   UNL     1      -5.699  -7.555   3.005  0.00  0.00    -0.021 A 
ATOM      9  C   UNL     1      -5.488  -8.989   3.218  0.00  0.00    +0.003 A 
ATOM     10  C   UNL     1      -5.170  -9.768   4.331  0.00  0.00    +0.010 A 
ATOM     11  C   UNL     1      -5.040 -11.122   4.197  0.00  0.00    +0.001 A 
ATOM     12  C   UNL     1      -5.219 -11.728   2.961  0.00  0.00    +0.002 A 
ATOM     13  C   UNL     1      -5.533 -10.978   1.849  0.00  0.00    +0.026 A 
ATOM     14  C   UNL     1      -5.671  -9.598   1.963  0.00  0.00    +0.047 A 
ATOM     15  N   UNL     1      -5.971  -8.598   1.065  0.00  0.00    -0.360 N 
ATOM     16  C   UNL     1      -5.988  -7.389   1.705  0.00  0.00    +0.087 A 
ATOM     17  H   UNL     1      -6.147  -8.732   0.121  0.00  0.00    +0.165 HD
ENDBRANCH   7   8
ENDBRANCH   5   7
ENDBRANCH   3   5
BRANCH   1  18
ATOM     18  C   UNL     1      -1.919  -4.746   1.377  0.00  0.00    +0.111 C 
BRANCH  18  29
ATOM     19  C   UNL     1      -0.018   1.503   0.010  0.00  0.00    +0.044 C 
ATOM     20  C   UNL     1       0.002  -0.004   0.002  0.00  0.00    -0.044 A 
ATOM     21  C   UNL     1       0.006  -0.689  -1.198  0.00  0.00    +0.049 A 
ATOM     22  C   UNL     1       0.029  -2.075  -1.204  0.00  0.00    +0.124 A 
ATOM     23  C   UNL     1       0.046  -2.780  -0.006  0.00  0.00    +0.040 A 
ATOM     24  C   UNL     1       0.036  -2.093   1.193  0.00  0.00    +0.139 A 
ATOM     25  C   UNL     1       0.023  -0.701   1.193  0.00  0.00    +0.050 A 
ATOM     26  O   UNL     1       0.031  -2.738   2.391  0.00  0.00    -0.425 OA
ATOM     27  C   UNL     1       0.258  -4.067   2.383  0.00  0.00    +0.317 C 
ATOM     28  O   UNL     1       0.950  -4.596   3.220  0.00  0.00    -0.250 OA
ATOM     29  C   UNL     1      -0.397  -4.867   1.274  0.00  0.00    +0.114 C 
ATOM     30  C   UNL     1       0.082  -4.287  -0.060  0.00  0.00    +0.037 C 
ATOM     31  C   UNL     1       1.514  -4.752  -0.331  0.00  0.00    +0.013 C 
BRANCH  22  32
ATOM     32  O   UNL     1       0.035  -2.746  -2.386  0.00  0.00    -0.506 OA
ATOM     33  H   UNL     1       0.919  -2.926  -2.732  0.00  0.00    +0.292 HD
ENDBRANCH  22  32
ENDBRANCH  18  29
ENDBRANCH   1  18
TORSDOF 6
