REMARK  Name = ZINC06035361
REMARK  8 active torsions:
REMARK  status: ('A' for Active; 'I' for Inactive)
REMARK    1  A    between atoms: C_1  and  O_2
REMARK    2  A    between atoms: O_2  and  C_3
REMARK    3  A    between atoms: C_3  and  C_5
REMARK    4  A    between atoms: C_5  and  C_15
REMARK    5  A    between atoms: C_15  and  C_17
REMARK    6  A    between atoms: C_17  and  S_18
REMARK    7  A    between atoms: S_18  and  C_19
REMARK    8  A    between atoms: C_21  and  C_25
REMARK                            x       y       z     vdW  Elec       q    Type
REMARK                         _______ _______ _______ _____ _____    ______ ____
ROOT
ATOM      1  C   UNL     1       0.680  -2.073   1.092  0.00  0.00    +0.138 C 
ATOM      2  C   UNL     1       1.326  -2.710   2.169  0.00  0.00    +0.110 C 
ATOM      3  N   UNL     1       1.450  -4.051   2.328  0.00  0.00    -0.301 N 
ATOM      4  C   UNL     1       2.147  -4.288   3.507  0.00  0.00    +0.054 A 
ATOM      5  C   UNL     1       2.552  -5.448   4.153  0.00  0.00    +0.025 A 
ATOM      6  C   UNL     1       3.248  -5.366   5.342  0.00  0.00    +0.002 A 
ATOM      7  C   UNL     1       3.545  -4.131   5.894  0.00  0.00    +0.002 A 
ATOM      8  C   UNL     1       3.147  -2.971   5.260  0.00  0.00    +0.025 A 
ATOM      9  C   UNL     1       2.447  -3.042   4.064  0.00  0.00    +0.054 A 
ATOM     10  N   UNL     1       1.929  -2.078   3.208  0.00  0.00    -0.301 N 
ATOM     11  H   UNL     1       1.109  -4.729   1.724  0.00  0.00    +0.153 HD
ATOM     12  H   UNL     1       1.986  -1.117   3.332  0.00  0.00    +0.153 HD
ENDROOT
BRANCH   1  13
ATOM     13  C   UNL     1       0.621  -0.614   1.034  0.00  0.00    +0.345 C 
ATOM     14  O   UNL     1       1.131   0.051   1.916  0.00  0.00    -0.245 OA
BRANCH  13  16
ATOM     15  C   UNL     1      -0.017   1.425   0.010  0.00  0.00    +0.280 C 
ATOM     16  O   UNL     1       0.002  -0.004   0.002  0.00  0.00    -0.464 OA
ENDBRANCH  13  16
ENDBRANCH   1  13
BRANCH   1  17
ATOM     17  C   UNL     1       0.091  -2.842   0.071  0.00  0.00    +0.183 C 
ATOM     18  O   UNL     1       0.140  -4.055   0.120  0.00  0.00    -0.291 OA
BRANCH  17  19
ATOM     19  C   UNL     1      -0.601  -2.161  -1.081  0.00  0.00    +0.157 C 
BRANCH  19  20
ATOM     20  S   UNL     1      -1.252  -3.413  -2.221  0.00  0.00    -0.078 S 
BRANCH  20  21
ATOM     21  C   UNL     1      -2.021  -2.470  -3.496  0.00  0.00    +0.185 A 
ATOM     22  N   UNL     1      -2.079  -1.158  -3.558  0.00  0.00    -0.200 NA
ATOM     23  C   UNL     1      -2.739  -0.787  -4.666  0.00  0.00    +0.189 A 
ATOM     24  N   UNL     1      -3.108  -1.867  -5.321  0.00  0.00    -0.151 NA
ATOM     25  H   UNL     1      -2.760  -3.906  -4.810  0.00  0.00    +0.191 HD
ATOM     26  N   UNL     1      -2.648  -2.970  -4.584  0.00  0.00    -0.253 N 
BRANCH  23  27
ATOM     27  C   UNL     1      -3.008   0.606  -5.082  0.00  0.00    +0.058 A 
ATOM     28  C   UNL     1      -3.675   1.062  -6.187  0.00  0.00    +0.019 A 
ATOM     29  C   UNL     1      -3.803   2.422  -6.368  0.00  0.00    +0.008 A 
ATOM     30  C   UNL     1      -3.267   3.265  -5.449  0.00  0.00    +0.046 A 
ATOM     31  S   UNL     1      -2.555   2.130  -4.270  0.00  0.00    -0.093 S 
ENDBRANCH  23  27
ENDBRANCH  20  21
ENDBRANCH  19  20
ENDBRANCH  17  19
ENDBRANCH   1  17
TORSDOF 7
