REMARK  Name = ZINC09227258
REMARK  5 active torsions:
REMARK  status: ('A' for Active; 'I' for Inactive)
REMARK    1  A    between atoms: C_1  and  C_2
REMARK    2  A    between atoms: C_5  and  N_9
REMARK    3  A    between atoms: C_10  and  C_12
REMARK    4  A    between atoms: N_15  and  C_22
REMARK    5  A    between atoms: C_16  and  C_17
REMARK                            x       y       z     vdW  Elec       q    Type
REMARK                         _______ _______ _______ _____ _____    ______ ____
ROOT
ATOM      1  C   UNL     1      -0.028  -0.302   2.842  0.00  0.00    +0.078 A 
ATOM      2  C   UNL     1       0.842  -0.333   3.956  0.00  0.00    +0.148 A 
ATOM      3  N   UNL     1       1.194   0.893   4.228  0.00  0.00    -0.174 NA
ATOM      4  N   UNL     1       0.581   1.756   3.313  0.00  0.00    -0.236 N 
ATOM      5  C   UNL     1      -0.162   1.020   2.466  0.00  0.00    +0.060 A 
ENDROOT
BRANCH   5   6
ATOM      6  C   UNL     1      -0.992   1.543   1.323  0.00  0.00    +0.035 C 
ATOM      7  C   UNL     1      -0.455   0.984   0.002  0.00  0.00    -0.010 C 
ATOM      8  C   UNL     1      -1.338   1.469  -1.150  0.00  0.00    -0.082 C 
ATOM      9  C   UNL     1      -3.273   1.580   0.305  0.00  0.00    -0.082 C 
ATOM     10  C   UNL     1      -2.448   1.098   1.500  0.00  0.00    -0.010 C 
ATOM     11  N   UNL     1      -2.724   1.010  -0.941  0.00  0.00    +0.379 N 
ATOM     12  H   UNL     1      -2.736  -0.014  -0.878  0.00  0.00    -0.086 HD
ATOM     13  H   UNL     1      -3.303   1.311  -1.734  0.00  0.00    -0.086 HD
ENDBRANCH   5   6
BRANCH   4  14
ATOM     14  C   UNL     1       0.718   3.150   3.283  0.00  0.00    +0.066 A 
ATOM     15  C   UNL     1       0.786   3.817   2.067  0.00  0.00    +0.029 A 
ATOM     16  C   UNL     1       0.916   5.191   2.041  0.00  0.00    +0.022 A 
ATOM     17  C   UNL     1       0.988   5.904   3.225  0.00  0.00    +0.041 A 
ATOM     18  C   UNL     1       0.924   5.242   4.438  0.00  0.00    +0.022 A 
ATOM     19  C   UNL     1       0.790   3.867   4.470  0.00  0.00    +0.029 A 
ATOM     20 CL   UNL     1       1.157   7.631   3.188  0.00  0.00    -0.084 Cl
ENDBRANCH   4  14
BRANCH   1  22
ATOM     21  N   UNL     1      -0.530  -2.692   2.737  0.00  0.00    -0.280 N 
ATOM     22  C   UNL     1      -0.669  -1.464   2.200  0.00  0.00    +0.252 C 
ATOM     23  O   UNL     1      -1.324  -1.313   1.186  0.00  0.00    -0.270 OA
ATOM     24  H   UNL     1       0.051  -2.824   3.502  0.00  0.00    +0.155 HD
BRANCH  21  29
ATOM     25  C   UNL     1      -3.341  -7.092   0.516  0.00  0.00    +0.044 C 
ATOM     26  C   UNL     1      -2.595  -5.923   1.107  0.00  0.00    -0.049 A 
ATOM     27  C   UNL     1      -2.149  -4.904   0.285  0.00  0.00    +0.005 A 
ATOM     28  C   UNL     1      -1.464  -3.832   0.823  0.00  0.00    +0.025 A 
ATOM     29  C   UNL     1      -1.224  -3.777   2.189  0.00  0.00    +0.052 A 
ATOM     30  C   UNL     1      -1.669  -4.805   3.011  0.00  0.00    +0.062 A 
ATOM     31  C   UNL     1      -2.358  -5.873   2.468  0.00  0.00    +0.025 A 
ATOM     32 CL   UNL     1      -1.366  -4.745   4.720  0.00  0.00    -0.082 Cl
ENDBRANCH  21  29
ENDBRANCH   1  22
TORSDOF 4
