REMARK  Name = ZINC08790216
REMARK  11 active torsions:
REMARK  status: ('A' for Active; 'I' for Inactive)
REMARK    1  A    between atoms: C_1  and  C_2
REMARK    2  A    between atoms: C_4  and  C_39
REMARK    3  A    between atoms: C_13  and  C_15
REMARK    4  A    between atoms: C_15  and  C_16
REMARK    5  A    between atoms: N_21  and  C_24
REMARK    6  A    between atoms: C_24  and  C_25
REMARK    7  A    between atoms: C_25  and  C_26
REMARK    8  A    between atoms: C_29  and  O_34
REMARK    9  A    between atoms: C_30  and  O_32
REMARK   10  A    between atoms: O_32  and  C_33
REMARK   11  A    between atoms: O_34  and  C_35
REMARK                            x       y       z     vdW  Elec       q    Type
REMARK                         _______ _______ _______ _____ _____    ______ ____
ROOT
ATOM      1  C   UNL     1      -1.819  -3.176  -2.531  0.00  0.00    +0.044 C 
ATOM      2  C   UNL     1      -1.767  -2.371  -1.259  0.00  0.00    -0.050 A 
ATOM      3  C   UNL     1      -2.204  -1.059  -1.250  0.00  0.00    +0.008 A 
ATOM      4  C   UNL     1      -2.154  -0.316  -0.089  0.00  0.00    -0.029 A 
ATOM      5  C   UNL     1      -1.673  -0.885   1.087  0.00  0.00    +0.039 A 
ATOM      6  C   UNL     1      -1.240  -2.208   1.068  0.00  0.00    -0.027 A 
ATOM      7  C   UNL     1      -1.286  -2.944  -0.095  0.00  0.00    +0.008 A 
ATOM      8  C   UNL     1      -0.788  -2.512   2.468  0.00  0.00    +0.050 C 
ATOM      9  C   UNL     1       0.687  -2.930   2.506  0.00  0.00    +0.088 C 
ATOM     10  C   UNL     1       0.760  -4.004   3.626  0.00  0.00    +0.073 C 
ATOM     11  C   UNL     1      -0.682  -4.117   4.162  0.00  0.00    -0.049 C 
ATOM     12  C   UNL     1       1.115  -5.268   2.876  0.00  0.00    +0.224 C 
ATOM     13  O   UNL     1       1.264  -6.362   3.377  0.00  0.00    -0.275 OA
ATOM     14  N   UNL     1       1.240  -4.990   1.573  0.00  0.00    -0.241 N 
ATOM     15  C   UNL     1       1.025  -3.709   1.254  0.00  0.00    +0.225 C 
ATOM     16  O   UNL     1       1.091  -3.244   0.136  0.00  0.00    -0.275 OA
ATOM     17  C   UNL     1      -1.019  -1.241   3.239  0.00  0.00    +0.211 C 
ATOM     18  O   UNL     1      -0.788  -1.055   4.415  0.00  0.00    -0.277 OA
ATOM     19  N   UNL     1      -1.532  -0.349   2.369  0.00  0.00    -0.286 N 
ATOM     20  C   UNL     1      -2.628   1.115  -0.092  0.00  0.00    +0.045 C 
ATOM     21  H   UNL     1      -1.774   0.560   2.606  0.00  0.00    +0.155 HD
ATOM     22  N   UNL     1      -1.510  -3.625   3.059  0.00  0.00    +0.394 N 
ATOM     23  H   UNL     1      -1.650  -4.367   2.362  0.00  0.00    -0.083 HD
ATOM     24  H   UNL     1      -2.421  -3.310   3.412  0.00  0.00    -0.083 HD
ENDROOT
BRANCH  11  25
ATOM     25  C   UNL     1      -0.863  -3.231   5.396  0.00  0.00    +0.080 C 
BRANCH  25  26
ATOM     26  C   UNL     1      -0.567  -4.031   6.638  0.00  0.00    +0.209 C 
ATOM     27  O   UNL     1      -0.244  -5.197   6.545  0.00  0.00    -0.276 OA
ATOM     28  N   UNL     1      -0.662  -3.453   7.851  0.00  0.00    -0.329 N 
ATOM     29  H   UNL     1      -0.920  -2.521   7.925  0.00  0.00    +0.145 HD
ATOM     30  H   UNL     1      -0.472  -3.968   8.651  0.00  0.00    +0.145 HD
ENDBRANCH  25  26
ENDBRANCH  11  25
BRANCH  14  31
ATOM     31  C   UNL     1       1.585  -6.007   0.576  0.00  0.00    +0.121 C 
BRANCH  31  32
ATOM     32  C   UNL     1       3.106  -6.078   0.424  0.00  0.00    +0.054 C 
BRANCH  32  33
ATOM     33  C   UNL     1       3.461  -7.124  -0.601  0.00  0.00    -0.042 A 
ATOM     34  C   UNL     1       3.676  -8.431  -0.206  0.00  0.00    +0.007 A 
ATOM     35  C   UNL     1       3.996  -9.395  -1.144  0.00  0.00    +0.049 A 
ATOM     36  C   UNL     1       4.113  -9.050  -2.481  0.00  0.00    +0.161 A 
ATOM     37  C   UNL     1       3.901  -7.733  -2.877  0.00  0.00    +0.162 A 
ATOM     38  C   UNL     1       3.575  -6.773  -1.933  0.00  0.00    +0.053 A 
BRANCH  37  39
ATOM     39  O   UNL     1       4.015  -7.389  -4.188  0.00  0.00    -0.491 OA
ATOM     40  C   UNL     1       3.785  -6.019  -4.521  0.00  0.00    +0.277 C 
ENDBRANCH  37  39
BRANCH  36  41
ATOM     41  O   UNL     1       4.433  -9.996  -3.403  0.00  0.00    -0.491 OA
ATOM     42  C   UNL     1       4.636 -11.328  -2.924  0.00  0.00    +0.277 C 
ENDBRANCH  36  41
ENDBRANCH  32  33
ENDBRANCH  31  32
ENDBRANCH  14  31
TORSDOF 7
