REMARK  Name = ZINC09679063
REMARK  8 active torsions:
REMARK  status: ('A' for Active; 'I' for Inactive)
REMARK    1  A    between atoms: C_1  and  O_2
REMARK    2  A    between atoms: O_2  and  C_3
REMARK    3  A    between atoms: C_6  and  C_9
REMARK    4  A    between atoms: C_11  and  C_27
REMARK    5  A    between atoms: N_13  and  C_20
REMARK    6  A    between atoms: C_30  and  O_35
REMARK    7  A    between atoms: C_31  and  O_33
REMARK    8  A    between atoms: O_33  and  C_34
REMARK                            x       y       z     vdW  Elec       q    Type
REMARK                         _______ _______ _______ _____ _____    ______ ____
ROOT
ATOM      1  C   UNL     1       2.205  -2.517  -5.096  0.00  0.00    +0.097 C 
ATOM      2  C   UNL     1       2.475  -3.785  -4.852  0.00  0.00    +0.018 C 
ATOM      3  C   UNL     1       2.263  -5.163  -4.271  0.00  0.00    +0.142 C 
ATOM      4  N   UNL     1       2.300  -6.038  -5.469  0.00  0.00    -0.258 N 
ATOM      5  C   UNL     1       3.004  -5.425  -6.461  0.00  0.00    +0.251 C 
ATOM      6  O   UNL     1       3.171  -5.846  -7.586  0.00  0.00    -0.272 OA
ATOM      7  C   UNL     1       3.535  -4.137  -5.909  0.00  0.00    +0.244 C 
ATOM      8  N   UNL     1       3.537  -2.974  -6.771  0.00  0.00    -0.170 NA
ATOM      9  N   UNL     1       2.828  -2.105  -6.239  0.00  0.00    -0.153 NA
ENDROOT
BRANCH   4  10
ATOM     10  C   UNL     1       1.703  -7.300  -5.565  0.00  0.00    +0.037 A 
ATOM     11  C   UNL     1       2.132  -8.336  -4.745  0.00  0.00    +0.024 A 
ATOM     12  C   UNL     1       1.541  -9.581  -4.841  0.00  0.00    +0.017 A 
ATOM     13  C   UNL     1       0.523  -9.796  -5.753  0.00  0.00    +0.018 A 
ATOM     14  C   UNL     1       0.094  -8.766  -6.572  0.00  0.00    +0.017 A 
ATOM     15  C   UNL     1       0.678  -7.518  -6.476  0.00  0.00    +0.024 A 
ATOM     16 BR   UNL     1      -0.283 -11.502  -5.883  0.00  0.00    -0.050 Br
ENDBRANCH   4  10
BRANCH   1  20
ATOM     17  C   UNL     1      -0.277  -0.059  -2.669  0.00  0.00    +0.120 A 
ATOM     18  C   UNL     1       0.676  -0.879  -2.079  0.00  0.00    +0.046 A 
ATOM     19  C   UNL     1       1.482  -1.677  -2.863  0.00  0.00    +0.013 A 
ATOM     20  C   UNL     1       1.339  -1.660  -4.250  0.00  0.00    +0.002 A 
ATOM     21  C   UNL     1       0.382  -0.836  -4.839  0.00  0.00    +0.013 A 
ATOM     22  C   UNL     1      -0.425  -0.044  -4.049  0.00  0.00    +0.046 A 
BRANCH  17  24
ATOM     23  C   UNL     1      -0.864   0.661  -0.481  0.00  0.00    +0.277 C 
ATOM     24  O   UNL     1      -1.069   0.726  -1.893  0.00  0.00    -0.495 OA
ENDBRANCH  17  24
ENDBRANCH   1  20
BRANCH   3  25
ATOM     25  C   UNL     1       0.924  -5.250  -3.583  0.00  0.00    -0.019 A 
ATOM     26  C   UNL     1      -0.235  -5.302  -4.335  0.00  0.00    +0.009 A 
ATOM     27  C   UNL     1      -1.465  -5.383  -3.708  0.00  0.00    +0.049 A 
ATOM     28  C   UNL     1      -1.537  -5.412  -2.325  0.00  0.00    +0.158 A 
ATOM     29  C   UNL     1      -0.370  -5.360  -1.569  0.00  0.00    +0.162 A 
ATOM     30  C   UNL     1       0.860  -5.285  -2.203  0.00  0.00    +0.055 A 
BRANCH  29  31
ATOM     31  O   UNL     1      -0.436  -5.389  -0.211  0.00  0.00    -0.491 OA
ATOM     32  C   UNL     1       0.802  -5.332   0.500  0.00  0.00    +0.277 C 
ENDBRANCH  29  31
BRANCH  28  33
ATOM     33  O   UNL     1      -2.747  -5.491  -1.708  0.00  0.00    -0.503 OA
ATOM     34  H   UNL     1      -3.047  -6.396  -1.545  0.00  0.00    +0.292 HD
ENDBRANCH  28  33
ENDBRANCH   3  25
TORSDOF 6
