REMARK  Name = ZINC20834213
REMARK  6 active torsions:
REMARK  status: ('A' for Active; 'I' for Inactive)
REMARK    1  A    between atoms: C_3  and  C_6
REMARK    2  A    between atoms: N_7  and  N_8
REMARK    3  A    between atoms: C_11  and  S_14
REMARK    4  A    between atoms: S_14  and  C_15
REMARK    5  A    between atoms: C_15  and  C_16
REMARK    6  A    between atoms: C_16  and  C_17
REMARK                            x       y       z     vdW  Elec       q    Type
REMARK                         _______ _______ _______ _____ _____    ______ ____
ROOT
ATOM      1  S   UNL     1      -0.890   1.687  -1.462  0.00  0.00    -0.084 S 
ENDROOT
BRANCH   1   5
ATOM      2  N   UNL     1       0.811   0.512  -6.241  0.00  0.00    -0.205 N 
ATOM      3  C   UNL     1       0.730   0.570  -4.858  0.00  0.00    +0.232 A 
ATOM      4  N   UNL     1      -0.226   1.228  -4.135  0.00  0.00    -0.186 NA
ATOM      5  C   UNL     1       0.045   1.043  -2.809  0.00  0.00    +0.210 A 
ATOM      6  N   UNL     1       1.127   0.307  -2.715  0.00  0.00    -0.144 NA
ATOM      7  N   UNL     1       1.557   0.003  -4.013  0.00  0.00    -0.245 N 
ATOM      8  H   UNL     1       0.060   1.026  -6.858  0.00  0.00    +0.177 HD
ATOM      9  H   UNL     1       2.408  -0.587  -4.387  0.00  0.00    +0.192 HD
BRANCH   2  11
ATOM     10  C   UNL     1       1.925  -0.257  -8.150  0.00  0.00    +0.145 C 
ATOM     11  N   UNL     1       1.850  -0.202  -6.853  0.00  0.00    -0.187 NA
BRANCH  10  14
ATOM     12  C   UNL     1       4.367  -1.937 -10.498  0.00  0.00    +0.008 A 
ATOM     13  C   UNL     1       3.272  -1.185 -10.138  0.00  0.00    +0.017 A 
ATOM     14  C   UNL     1       3.013  -1.004  -8.791  0.00  0.00    +0.032 A 
ATOM     15  S   UNL     1       4.352  -1.913  -8.036  0.00  0.00    -0.096 S 
ATOM     16  C   UNL     1       5.152  -2.474  -9.529  0.00  0.00    +0.046 A 
ENDBRANCH  10  14
ENDBRANCH   2  11
ENDBRANCH   1   5
BRANCH   1  17
ATOM     17  C   UNL     1      -0.013   1.086   0.008  0.00  0.00    +0.086 C 
BRANCH  17  18
ATOM     18  C   UNL     1      -0.729   1.579   1.267  0.00  0.00    +0.107 C 
BRANCH  18  19
ATOM     19  C   UNL     1       0.000   1.080   2.488  0.00  0.00    +0.219 C 
ATOM     20  O   UNL     1       0.994   0.397   2.363  0.00  0.00    -0.275 OA
ATOM     21  N   UNL     1      -0.453   1.393   3.718  0.00  0.00    -0.265 N 
ATOM     22  C   UNL     1       0.217   0.934   4.840  0.00  0.00    +0.165 A 
ATOM     23  N   UNL     1      -0.067   1.131   6.106  0.00  0.00    -0.225 NA
ATOM     24  C   UNL     1       0.681   0.617   7.107  0.00  0.00    +0.080 A 
ATOM     25  C   UNL     1       0.486   0.752   8.501  0.00  0.00    +0.030 A 
ATOM     26  C   UNL     1       1.346   0.162   9.389  0.00  0.00    +0.017 A 
ATOM     27  C   UNL     1       2.433  -0.587   8.958  0.00  0.00    +0.019 A 
ATOM     28  C   UNL     1       2.654  -0.740   7.601  0.00  0.00    +0.032 A 
ATOM     29  C   UNL     1       1.797  -0.151   6.704  0.00  0.00    +0.042 A 
ATOM     30  S   UNL     1       1.684  -0.083   4.933  0.00  0.00    -0.052 S 
ATOM     31 BR   UNL     1       3.600  -1.388  10.212  0.00  0.00    -0.050 Br
ATOM     32  H   UNL     1      -1.355   2.012   3.831  0.00  0.00    +0.157 HD
ENDBRANCH  18  19
ENDBRANCH  17  18
ENDBRANCH   1  17
TORSDOF 6
