REMARK  Name = ZINC40008643
REMARK  12 active torsions:
REMARK  status: ('A' for Active; 'I' for Inactive)
REMARK    1  A    between atoms: C_1  and  C_2
REMARK    2  A    between atoms: C_2  and  N_3
REMARK    3  A    between atoms: N_3  and  C_4
REMARK    4  A    between atoms: N_3  and  C_6
REMARK    5  A    between atoms: C_4  and  C_5
REMARK    6  A    between atoms: C_6  and  C_7
REMARK    7  A    between atoms: C_7  and  C_8
REMARK    8  A    between atoms: C_8  and  N_9
REMARK    9  A    between atoms: C_10  and  C_26
REMARK   10  A    between atoms: C_29  and  C_32
REMARK   11  A    between atoms: C_32  and  C_33
REMARK   12  A    between atoms: C_32  and  C_34
REMARK                            x       y       z     vdW  Elec       q    Type
REMARK                         _______ _______ _______ _____ _____    ______ ____
ROOT
ATOM      1  N   UNL     1       2.127  -4.497  -3.857  0.00  0.00    -0.284 N 
ATOM      2  C   UNL     1       1.645  -4.630  -5.242  0.00  0.00    +0.144 C 
ATOM      3  C   UNL     1       2.810  -5.130  -6.031  0.00  0.00    +0.072 A 
ATOM      4  C   UNL     1       2.943  -5.461  -7.454  0.00  0.00    +0.199 A 
ATOM      5  O   UNL     1       2.090  -5.197  -8.283  0.00  0.00    -0.287 OA
ATOM      6  C   UNL     1       4.216  -6.148  -7.788  0.00  0.00    +0.065 A 
ATOM      7  C   UNL     1       4.407  -6.704  -9.053  0.00  0.00    +0.030 A 
ATOM      8  C   UNL     1       5.593  -7.343  -9.344  0.00  0.00    +0.019 A 
ATOM      9  C   UNL     1       6.590  -7.430  -8.381  0.00  0.00    +0.019 A 
ATOM     10  C   UNL     1       6.413  -6.883  -7.131  0.00  0.00    +0.048 A 
ATOM     11  C   UNL     1       5.223  -6.230  -6.812  0.00  0.00    +0.140 A 
ATOM     12  O   UNL     1       5.079  -5.693  -5.579  0.00  0.00    -0.450 OA
ATOM     13  C   UNL     1       3.866  -5.265  -5.176  0.00  0.00    +0.199 A 
ATOM     14  C   UNL     1       3.424  -4.864  -3.829  0.00  0.00    +0.283 C 
ATOM     15  O   UNL     1       4.125  -4.866  -2.836  0.00  0.00    -0.267 OA
ATOM     16 BR   UNL     1       5.863  -8.100 -11.055  0.00  0.00    -0.050 Br
ENDROOT
BRANCH   2  17
ATOM     17  C   UNL     1       0.510  -5.619  -5.305  0.00  0.00    -0.022 A 
ATOM     18  C   UNL     1       0.555  -6.773  -4.544  0.00  0.00    +0.006 A 
ATOM     19  C   UNL     1      -0.486  -7.680  -4.602  0.00  0.00    +0.004 A 
ATOM     20  C   UNL     1      -1.573  -7.434  -5.420  0.00  0.00    -0.045 A 
ATOM     21  C   UNL     1      -1.618  -6.280  -6.180  0.00  0.00    +0.004 A 
ATOM     22  C   UNL     1      -0.579  -5.370  -6.119  0.00  0.00    +0.006 A 
BRANCH  20  23
ATOM     23  C   UNL     1      -2.707  -8.423  -5.483  0.00  0.00    +0.013 C 
ATOM     24  C   UNL     1      -4.004  -7.742  -5.042  0.00  0.00    +0.012 C 
ATOM     25  C   UNL     1      -2.861  -8.931  -6.918  0.00  0.00    +0.012 C 
ENDBRANCH  20  23
ENDBRANCH   2  17
BRANCH   1  26
ATOM     26  C   UNL     1       1.336  -4.039  -2.711  0.00  0.00    +0.107 C 
BRANCH  26  27
ATOM     27  C   UNL     1       1.453  -2.519  -2.586  0.00  0.00    +0.000 C 
BRANCH  27  28
ATOM     28  C   UNL     1       0.628  -2.041  -1.389  0.00  0.00    -0.077 C 
BRANCH  28  29
ATOM     29  N   UNL     1       0.826  -0.598  -1.203  0.00  0.00    +0.379 N 
ATOM     30  H   UNL     1       1.813  -0.402  -1.119  0.00  0.00    -0.082 HD
BRANCH  29  32
ATOM     31  C   UNL     1       0.597   1.616  -2.224  0.00  0.00    -0.017 C 
ATOM     32  C   UNL     1       0.280   0.126  -2.359  0.00  0.00    -0.082 C 
ENDBRANCH  29  32
BRANCH  29  33
ATOM     33  C   UNL     1       0.136  -0.162   0.018  0.00  0.00    -0.082 C 
ATOM     34  C   UNL     1       0.810  -0.793   1.238  0.00  0.00    -0.017 C 
ENDBRANCH  29  33
ENDBRANCH  28  29
ENDBRANCH  27  28
ENDBRANCH  26  27
ENDBRANCH   1  26
TORSDOF 8
