REMARK  Name = ZINC25184197
REMARK  5 active torsions:
REMARK  status: ('A' for Active; 'I' for Inactive)
REMARK    1  A    between atoms: C_7  and  C_11
REMARK    2  A    between atoms: C_11  and  C_12
REMARK    3  A    between atoms: C_12  and  N_13
REMARK    4  A    between atoms: C_14  and  C_16
REMARK    5  A    between atoms: C_17  and  N_21
REMARK                            x       y       z     vdW  Elec       q    Type
REMARK                         _______ _______ _______ _____ _____    ______ ____
ROOT
ATOM      1  C   UNL     1      -4.639  -3.214  -2.569  0.00  0.00    +0.177 A 
ATOM      2  C   UNL     1      -5.303  -3.568  -3.746  0.00  0.00    +0.126 A 
ATOM      3  S   UNL     1      -6.553  -4.598  -3.124  0.00  0.00    +0.052 S 
ATOM      4  N   UNL     1      -6.155  -4.497  -1.464  0.00  0.00    -0.108 NA
ATOM      5  N   UNL     1      -5.127  -3.719  -1.446  0.00  0.00    -0.135 NA
ENDROOT
BRANCH   2   6
ATOM      6  N   UNL     1      -5.035  -3.200  -5.053  0.00  0.00    -0.261 N 
ATOM      7  C   UNL     1      -5.810  -3.660  -6.056  0.00  0.00    +0.307 C 
ATOM      8  O   UNL     1      -6.685  -4.471  -5.824  0.00  0.00    -0.252 OA
ATOM      9  N   UNL     1      -5.614  -3.221  -7.315  0.00  0.00    -0.282 N 
ATOM     10  C   UNL     1      -6.513  -3.630  -8.405  0.00  0.00    +0.128 C 
ATOM     11  C   UNL     1      -6.984  -2.366  -9.142  0.00  0.00    +0.125 C 
ATOM     12  N   UNL     1      -5.813  -1.586  -9.562  0.00  0.00    -0.314 N 
ATOM     13  C   UNL     1      -5.041  -1.117  -8.404  0.00  0.00    +0.125 C 
ATOM     14  C   UNL     1      -4.494  -2.324  -7.636  0.00  0.00    +0.128 C 
ATOM     15  C   UNL     1      -6.189  -0.522 -10.374  0.00  0.00    +0.099 A 
ATOM     16  C   UNL     1      -6.930  -0.763 -11.527  0.00  0.00    +0.042 A 
ATOM     17  C   UNL     1      -7.298   0.305 -12.325  0.00  0.00    +0.005 A 
ATOM     18  C   UNL     1      -6.910   1.583 -11.943  0.00  0.00    +0.018 A 
ATOM     19  C   UNL     1      -6.175   1.749 -10.787  0.00  0.00    +0.084 A 
ATOM     20  N   UNL     1      -5.843   0.712 -10.041  0.00  0.00    -0.350 N 
ATOM     21  H   UNL     1      -4.190  -2.531  -5.274  0.00  0.00    +0.157 HD
ATOM     22  H   UNL     1      -5.265   0.892  -9.123  0.00  0.00    +0.166 HD
ENDBRANCH   2   6
BRANCH   1  24
ATOM     23  N   UNL     1      -2.859  -2.005  -1.417  0.00  0.00    -0.310 N 
ATOM     24  C   UNL     1      -3.468  -2.326  -2.576  0.00  0.00    +0.267 C 
ATOM     25  O   UNL     1      -3.049  -1.881  -3.628  0.00  0.00    -0.268 OA
ATOM     26  H   UNL     1      -3.239  -2.407  -0.467  0.00  0.00    +0.149 HD
BRANCH  23  27
ATOM     27  C   UNL     1      -1.692  -1.119  -1.425  0.00  0.00    +0.109 C 
BRANCH  27  28
ATOM     28  C   UNL     1      -1.197  -0.917   0.009  0.00  0.00    +0.056 C 
BRANCH  28  35
ATOM     29  C   UNL     1      -0.708   3.745   0.024  0.00  0.00    +0.001 A 
ATOM     30  C   UNL     1       0.620   4.149   0.014  0.00  0.00    +0.002 A 
ATOM     31  C   UNL     1       1.638   3.221   0.001  0.00  0.00    +0.026 A 
ATOM     32  C   UNL     1       1.334   1.863  -0.002  0.00  0.00    +0.047 A 
ATOM     33  C   UNL     1      -0.013   1.458   0.008  0.00  0.00    +0.003 A 
ATOM     34  C   UNL     1      -1.029   2.417   0.026  0.00  0.00    +0.010 A 
ATOM     35  C   UNL     1       0.004  -0.006   0.002  0.00  0.00    -0.021 A 
ATOM     36  C   UNL     1       1.292  -0.384  -0.011  0.00  0.00    +0.087 A 
ATOM     37  N   UNL     1       2.101   0.720  -0.014  0.00  0.00    -0.360 N 
ATOM     38  H   UNL     1       3.199   0.794  -0.023  0.00  0.00    +0.165 HD
ENDBRANCH  28  35
ENDBRANCH  27  28
ENDBRANCH  23  27
ENDBRANCH   1  24
TORSDOF 5
