REMARK  Name = ZINC39530844
REMARK  7 active torsions:
REMARK  status: ('A' for Active; 'I' for Inactive)
REMARK    1  A    between atoms: C_1  and  C_2
REMARK    2  A    between atoms: C_2  and  C_3
REMARK    3  A    between atoms: C_2  and  S_4
REMARK    4  A    between atoms: S_4  and  C_7
REMARK    5  A    between atoms: C_12  and  N_13
REMARK    6  A    between atoms: C_17  and  C_20
REMARK    7  A    between atoms: C_25  and  O_26
REMARK                            x       y       z     vdW  Elec       q    Type
REMARK                         _______ _______ _______ _____ _____    ______ ____
ROOT
ATOM      1  N   UNL     1      -1.639   2.193  -0.517  0.00  0.00    -0.331 N 
ATOM      2  C   UNL     1      -0.190   2.438  -0.447  0.00  0.00    +0.086 C 
ATOM      3  C   UNL     1       0.286   2.130   0.977  0.00  0.00    -0.063 C 
ATOM      4  N   UNL     1      -0.508   2.908   1.937  0.00  0.00    +0.386 N 
ATOM      5  C   UNL     1      -1.912   2.480   1.888  0.00  0.00    -0.020 C 
ATOM      6  C   UNL     1      -2.497   2.810   0.506  0.00  0.00    +0.094 C 
ATOM      7  H   UNL     1      -0.145   2.762   2.867  0.00  0.00    -0.085 HD
ATOM      8  H   UNL     1      -0.448   3.888   1.704  0.00  0.00    -0.085 HD
ENDROOT
BRANCH   1  14
ATOM      9  C   UNL     1      -2.439   0.056  -1.303  0.00  0.00    +0.110 A 
ATOM     10  C   UNL     1      -2.984  -0.723  -2.305  0.00  0.00    +0.043 A 
ATOM     11  C   UNL     1      -3.272  -0.164  -3.537  0.00  0.00    +0.015 A 
ATOM     12  C   UNL     1      -3.015   1.176  -3.769  0.00  0.00    +0.016 A 
ATOM     13  C   UNL     1      -2.470   1.959  -2.771  0.00  0.00    +0.026 A 
ATOM     14  C   UNL     1      -2.185   1.402  -1.531  0.00  0.00    +0.055 A 
ATOM     15  I   UNL     1      -4.099  -1.348  -5.054  0.00  0.00    -0.044 I 
BRANCH   9  16
ATOM     16  S   UNL     1      -2.072  -0.657   0.266  0.00  0.00    +0.001 S 
ATOM     17  O   UNL     1      -1.275   0.315   0.929  0.00  0.00    -0.169 OA
ATOM     18  O   UNL     1      -1.546  -1.943  -0.034  0.00  0.00    -0.169 OA
BRANCH  16  20
ATOM     19  C   UNL     1      -4.623  -1.641   0.217  0.00  0.00    +0.032 C 
ATOM     20  C   UNL     1      -3.679  -0.817   1.093  0.00  0.00    +0.130 C 
ATOM     21  C   UNL     1      -3.491  -1.517   2.441  0.00  0.00    +0.032 C 
ENDBRANCH  16  20
ENDBRANCH   9  16
ENDBRANCH   1  14
BRANCH   5  22
ATOM     22  C   UNL     1      -2.696   3.206   2.951  0.00  0.00    -0.018 A 
ATOM     23  C   UNL     1      -2.260   4.432   3.414  0.00  0.00    +0.005 A 
ATOM     24  C   UNL     1      -2.978   5.098   4.390  0.00  0.00    +0.000 A 
ATOM     25  C   UNL     1      -4.134   4.540   4.903  0.00  0.00    +0.004 A 
ATOM     26  C   UNL     1      -4.574   3.314   4.442  0.00  0.00    +0.045 A 
ATOM     27  C   UNL     1      -3.858   2.646   3.460  0.00  0.00    +0.118 A 
BRANCH  27  28
ATOM     28  O   UNL     1      -4.292   1.443   3.001  0.00  0.00    -0.507 OA
ATOM     29  H   UNL     1      -3.946   0.686   3.494  0.00  0.00    +0.292 HD
ENDBRANCH  27  28
ENDBRANCH   5  22
TORSDOF 5
