REMARK  Name = ZINC58991833
REMARK  13 active torsions:
REMARK  status: ('A' for Active; 'I' for Inactive)
REMARK    1  A    between atoms: C_1  and  C_2
REMARK    2  A    between atoms: C_2  and  N_3
REMARK    3  A    between atoms: N_3  and  C_4
REMARK    4  A    between atoms: N_3  and  C_6
REMARK    5  A    between atoms: C_4  and  C_5
REMARK    6  A    between atoms: C_9  and  C_13
REMARK    7  A    between atoms: C_10  and  O_12
REMARK    8  A    between atoms: N_14  and  N_15
REMARK    9  A    between atoms: C_16  and  C_18
REMARK   10  A    between atoms: C_18  and  S_19
REMARK   11  A    between atoms: S_19  and  C_20
REMARK   12  A    between atoms: C_23  and  C_26
REMARK   13  A    between atoms: N_24  and  N_25
REMARK                            x       y       z     vdW  Elec       q    Type
REMARK                         _______ _______ _______ _____ _____    ______ ____
ROOT
ATOM      1  N   UNL     1      -2.385  -2.087  -8.162  0.00  0.00    -0.206 N 
ATOM      2  C   UNL     1      -1.759  -2.527  -9.271  0.00  0.00    +0.242 C 
ATOM      3  O   UNL     1      -0.561  -2.718  -9.256  0.00  0.00    -0.273 OA
ATOM      4  H   UNL     1      -3.343  -1.934  -8.174  0.00  0.00    +0.177 HD
ENDROOT
BRANCH   1   6
ATOM      5  C   UNL     1      -2.256  -1.427  -5.922  0.00  0.00    +0.142 C 
ATOM      6  N   UNL     1      -1.653  -1.851  -6.991  0.00  0.00    -0.188 NA
BRANCH   5  10
ATOM      7  C   UNL     1      -0.037  -0.712  -2.371  0.00  0.00    +0.033 A 
ATOM      8  C   UNL     1      -1.412  -0.493  -2.390  0.00  0.00    +0.024 A 
ATOM      9  C   UNL     1      -2.134  -0.723  -3.539  0.00  0.00    +0.015 A 
ATOM     10  C   UNL     1      -1.487  -1.179  -4.691  0.00  0.00    +0.036 A 
ATOM     11  C   UNL     1      -0.102  -1.400  -4.671  0.00  0.00    +0.127 A 
ATOM     12  C   UNL     1       0.615  -1.160  -3.512  0.00  0.00    +0.069 A 
BRANCH  11  13
ATOM     13  O   UNL     1       0.534  -1.843  -5.786  0.00  0.00    -0.506 OA
ATOM     14  H   UNL     1       0.855  -1.137  -6.363  0.00  0.00    +0.292 HD
ENDBRANCH  11  13
BRANCH   7  15
ATOM     15  N   UNL     1       0.688  -0.476  -1.203  0.00  0.00    -0.330 N 
BRANCH  15  17
ATOM     16  C   UNL     1      -0.019   1.526   0.010  0.00  0.00    +0.024 C 
ATOM     17  C   UNL     1       0.002  -0.004   0.002  0.00  0.00    +0.102 C 
ENDBRANCH  15  17
BRANCH  15  18
ATOM     18  C   UNL     1       2.135  -0.701  -1.182  0.00  0.00    +0.102 C 
ATOM     19  C   UNL     1       2.421  -2.145  -0.763  0.00  0.00    +0.024 C 
ENDBRANCH  15  18
ENDBRANCH   7  15
ENDBRANCH   5  10
ENDBRANCH   1   6
BRANCH   2  20
ATOM     20  C   UNL     1      -2.546  -2.781 -10.531  0.00  0.00    +0.174 C 
BRANCH  20  21
ATOM     21  S   UNL     1      -1.428  -3.360 -11.836  0.00  0.00    -0.075 S 
BRANCH  21  22
ATOM     22  C   UNL     1      -2.486  -3.609 -13.223  0.00  0.00    +0.209 A 
ATOM     23  N   UNL     1      -3.783  -3.403 -13.262  0.00  0.00    -0.121 NA
ATOM     24  N   UNL     1      -4.241  -3.685 -14.429  0.00  0.00    -0.127 NA
ATOM     25  C   UNL     1      -3.264  -4.088 -15.208  0.00  0.00    +0.182 A 
ATOM     26  N   UNL     1      -2.109  -4.047 -14.461  0.00  0.00    -0.224 N 
BRANCH  25  27
ATOM     27  C   UNL     1      -3.382  -4.504 -16.622  0.00  0.00    +0.021 A 
ATOM     28  C   UNL     1      -2.342  -5.205 -17.235  0.00  0.00    +0.013 A 
ATOM     29  C   UNL     1      -2.458  -5.589 -18.555  0.00  0.00    +0.016 A 
ATOM     30  C   UNL     1      -3.602  -5.281 -19.271  0.00  0.00    +0.018 A 
ATOM     31  C   UNL     1      -4.637  -4.585 -18.668  0.00  0.00    +0.016 A 
ATOM     32  C   UNL     1      -4.535  -4.201 -17.347  0.00  0.00    +0.013 A 
ATOM     33 BR   UNL     1      -3.753  -5.811 -21.079  0.00  0.00    -0.050 Br
ENDBRANCH  25  27
BRANCH  26  34
ATOM     34  N   UNL     1      -0.849  -4.377 -14.872  0.00  0.00    -0.295 N 
ATOM     35  H   UNL     1      -0.660  -5.355 -14.710  0.00  0.00    +0.163 HD
ATOM     36  H   UNL     1      -0.710  -4.138 -15.842  0.00  0.00    +0.163 HD
ENDBRANCH  26  34
ENDBRANCH  21  22
ENDBRANCH  20  21
ENDBRANCH   2  20
TORSDOF 11
