REMARK  Name = ZINC39637410
REMARK  7 active torsions:
REMARK  status: ('A' for Active; 'I' for Inactive)
REMARK    1  A    between atoms: C_1  and  C_2
REMARK    2  A    between atoms: C_7  and  N_12
REMARK    3  A    between atoms: C_9  and  C_11
REMARK    4  A    between atoms: C_13  and  C_15
REMARK    5  A    between atoms: C_26  and  C_28
REMARK    6  A    between atoms: C_33  and  O_34
REMARK    7  A    between atoms: O_34  and  C_35
REMARK                            x       y       z     vdW  Elec       q    Type
REMARK                         _______ _______ _______ _____ _____    ______ ____
ROOT
ATOM      1  C   UNL     1      -2.595  -4.509   1.319  0.00  0.00    +0.100 C 
ATOM      2  C   UNL     1      -3.277  -3.632   2.393  0.00  0.00    +0.121 C 
ATOM      3  N   UNL     1      -4.114  -4.575   3.171  0.00  0.00    -0.296 N 
ATOM      4  C   UNL     1      -3.285  -5.798   3.283  0.00  0.00    +0.115 C 
ATOM      5  C   UNL     1      -2.602  -5.930   1.907  0.00  0.00    -0.004 C 
ATOM      6  C   UNL     1      -3.401  -6.869   1.009  0.00  0.00    -0.010 C 
ATOM      7  C   UNL     1      -3.345  -8.287   1.585  0.00  0.00    -0.082 C 
ATOM      8  N   UNL     1      -1.948  -8.729   1.669  0.00  0.00    +0.379 N 
ATOM      9  C   UNL     1      -1.209  -7.875   2.607  0.00  0.00    -0.082 C 
ATOM     10  C   UNL     1      -1.174  -6.440   2.075  0.00  0.00    -0.010 C 
ATOM     11  C   UNL     1      -5.351  -4.367   3.664  0.00  0.00    +0.252 C 
ATOM     12  O   UNL     1      -5.876  -5.211   4.365  0.00  0.00    -0.270 OA
ATOM     13  H   UNL     1      -1.918  -9.685   1.991  0.00  0.00    -0.086 HD
ATOM     14  H   UNL     1      -1.523  -8.671   0.756  0.00  0.00    -0.086 HD
ENDROOT
BRANCH  11  15
ATOM     15  C   UNL     1      -6.069  -3.116   3.353  0.00  0.00    +0.099 A 
ATOM     16  C   UNL     1      -5.373  -1.909   3.221  0.00  0.00    +0.020 A 
ATOM     17  C   UNL     1      -6.092  -0.764   2.929  0.00  0.00    +0.021 A 
ATOM     18  C   UNL     1      -7.465  -0.844   2.777  0.00  0.00    +0.114 A 
ATOM     19  N   UNL     1      -8.101  -1.991   2.907  0.00  0.00    -0.220 NA
ATOM     20  C   UNL     1      -7.461  -3.116   3.180  0.00  0.00    +0.233 A 
BRANCH  20  21
ATOM     21  O   UNL     1      -8.155  -4.273   3.298  0.00  0.00    -0.437 OA
BRANCH  21  22
ATOM     22  C   UNL     1      -9.511  -4.215   3.222  0.00  0.00    +0.130 A 
ATOM     23  C   UNL     1     -10.132  -4.078   1.989  0.00  0.00    +0.048 A 
ATOM     24  C   UNL     1     -11.510  -4.020   1.913  0.00  0.00    +0.023 A 
ATOM     25  C   UNL     1     -12.271  -4.098   3.066  0.00  0.00    +0.041 A 
ATOM     26  C   UNL     1     -11.653  -4.235   4.297  0.00  0.00    +0.023 A 
ATOM     27  C   UNL     1     -10.275  -4.300   4.376  0.00  0.00    +0.048 A 
ATOM     28 CL   UNL     1     -14.002  -4.025   2.969  0.00  0.00    -0.084 Cl
ENDBRANCH  21  22
ENDBRANCH  20  21
ENDBRANCH  11  15
BRANCH   1  30
ATOM     29  N   UNL     1      -0.619  -4.187  -0.133  0.00  0.00    -0.312 N 
ATOM     30  C   UNL     1      -1.181  -4.045   1.084  0.00  0.00    +0.218 C 
ATOM     31  O   UNL     1      -0.548  -3.544   1.989  0.00  0.00    -0.275 OA
ATOM     32  H   UNL     1      -1.125  -4.588  -0.857  0.00  0.00    +0.149 HD
BRANCH  29  38
ATOM     33  C   UNL     1       0.872  -4.362  -4.160  0.00  0.00    +0.008 C 
ATOM     34  C   UNL     1       0.679  -4.678  -2.675  0.00  0.00    -0.009 C 
ATOM     35  C   UNL     1       1.654  -5.782  -2.258  0.00  0.00    +0.003 C 
ATOM     36  C   UNL     1       1.462  -6.098  -0.774  0.00  0.00    +0.002 C 
ATOM     37  C   UNL     1       1.731  -4.840   0.055  0.00  0.00    +0.022 C 
ATOM     38  C   UNL     1       0.756  -3.737  -0.362  0.00  0.00    +0.076 C 
ATOM     39  C   UNL     1       0.949  -3.421  -1.847  0.00  0.00    +0.009 C 
ATOM     40  C   UNL     1      -0.026  -2.317  -2.264  0.00  0.00    +0.009 C 
ENDBRANCH  29  38
ENDBRANCH   1  30
TORSDOF 5
