REMARK  Name = ZINC29066545
REMARK  11 active torsions:
REMARK  status: ('A' for Active; 'I' for Inactive)
REMARK    1  A    between atoms: C_1  and  C_2
REMARK    2  A    between atoms: C_2  and  O_3
REMARK    3  A    between atoms: O_3  and  C_4
REMARK    4  A    between atoms: C_4  and  C_6
REMARK    5  A    between atoms: C_7  and  C_20
REMARK    6  A    between atoms: C_12  and  C_14
REMARK    7  A    between atoms: C_20  and  N_21
REMARK    8  A    between atoms: C_27  and  C_29
REMARK    9  A    between atoms: C_29  and  C_30
REMARK   10  A    between atoms: C_30  and  O_32
REMARK   11  A    between atoms: O_32  and  C_33
REMARK                            x       y       z     vdW  Elec       q    Type
REMARK                         _______ _______ _______ _____ _____    ______ ____
ROOT
ATOM      1  C   UNL     1       0.771   2.966  -0.085  0.00  0.00    +0.076 C 
ATOM      2  C   UNL     1       2.079   2.960  -0.421  0.00  0.00    +0.008 C 
ATOM      3  N   UNL     1       2.740   1.788  -0.658  0.00  0.00    -0.274 N 
ATOM      4  C   UNL     1       2.165   0.582  -0.579  0.00  0.00    +0.304 C 
ATOM      5  O   UNL     1       2.836  -0.406  -0.808  0.00  0.00    -0.252 OA
ATOM      6  N   UNL     1       0.865   0.427  -0.260  0.00  0.00    -0.288 N 
ATOM      7  C   UNL     1       0.063   1.630   0.020  0.00  0.00    +0.143 C 
ATOM      8  H   UNL     1       3.806   1.804  -0.931  0.00  0.00    +0.156 HD
ATOM      9  H   UNL     1       0.399  -0.568  -0.206  0.00  0.00    +0.151 HD
ENDROOT
BRANCH   7  10
ATOM     10  C   UNL     1      -1.098   1.644  -0.940  0.00  0.00    -0.023 A 
ATOM     11  C   UNL     1      -0.885   1.413  -2.286  0.00  0.00    +0.006 A 
ATOM     12  C   UNL     1      -1.950   1.422  -3.166  0.00  0.00    +0.000 A 
ATOM     13  C   UNL     1      -3.229   1.669  -2.701  0.00  0.00    +0.000 A 
ATOM     14  C   UNL     1      -3.442   1.903  -1.356  0.00  0.00    +0.000 A 
ATOM     15  C   UNL     1      -2.376   1.891  -0.475  0.00  0.00    +0.006 A 
ENDBRANCH   7  10
BRANCH   1  16
ATOM     16  C   UNL     1       0.085   4.179   0.161  0.00  0.00    +0.339 C 
ATOM     17  O   UNL     1       0.695   5.232   0.167  0.00  0.00    -0.245 OA
BRANCH  16  18
ATOM     18  O   UNL     1      -1.245   4.167   0.389  0.00  0.00    -0.462 OA
BRANCH  18  20
ATOM     19  C   UNL     1      -3.369   5.216   0.865  0.00  0.00    +0.048 C 
ATOM     20  C   UNL     1      -1.873   5.428   0.630  0.00  0.00    +0.229 C 
ENDBRANCH  18  20
ENDBRANCH  16  18
ENDBRANCH   1  16
BRANCH   2  21
ATOM     21  C   UNL     1       2.821   4.266  -0.536  0.00  0.00    -0.025 C 
BRANCH  21  22
ATOM     22  N   UNL     1       3.330   4.658   0.785  0.00  0.00    +0.392 N 
ATOM     23  C   UNL     1       4.277   3.658   1.304  0.00  0.00    -0.058 C 
ATOM     24  C   UNL     1       4.534   3.946   2.784  0.00  0.00    +0.085 C 
ATOM     25  N   UNL     1       4.880   5.353   2.967  0.00  0.00    -0.318 N 
ATOM     26  C   UNL     1       4.615   6.292   2.052  0.00  0.00    +0.200 C 
ATOM     27  O   UNL     1       4.909   7.442   2.298  0.00  0.00    -0.278 OA
ATOM     28  C   UNL     1       3.969   5.980   0.731  0.00  0.00    +0.030 C 
ATOM     29  H   UNL     1       5.381   5.681   3.889  0.00  0.00    +0.149 HD
ATOM     30  H   UNL     1       2.470   4.715   1.468  0.00  0.00    -0.080 HD
BRANCH  28  31
ATOM     31  C   UNL     1       2.913   7.043   0.420  0.00  0.00    +0.114 C 
BRANCH  31  32
ATOM     32  C   UNL     1       1.927   7.119   1.558  0.00  0.00    +0.306 C 
ATOM     33  O   UNL     1       1.994   6.330   2.470  0.00  0.00    -0.251 OA
BRANCH  32  34
ATOM     34  O   UNL     1       0.975   8.065   1.558  0.00  0.00    -0.468 OA
ATOM     35  C   UNL     1       0.060   8.080   2.685  0.00  0.00    +0.280 C 
ENDBRANCH  32  34
ENDBRANCH  31  32
ENDBRANCH  28  31
ENDBRANCH  21  22
ENDBRANCH   2  21
TORSDOF 9
