REMARK  Name = ZINC08791761
REMARK  12 active torsions:
REMARK  status: ('A' for Active; 'I' for Inactive)
REMARK    1  A    between atoms: C_1  and  C_2
REMARK    2  A    between atoms: C_17  and  C_42
REMARK    3  A    between atoms: C_22  and  C_23
REMARK    4  A    between atoms: C_22  and  O_41
REMARK    5  A    between atoms: C_23  and  C_25
REMARK    6  A    between atoms: C_25  and  O_26
REMARK    7  A    between atoms: O_26  and  C_27
REMARK    8  A    between atoms: C_27  and  C_29
REMARK    9  A    between atoms: C_29  and  C_30
REMARK   10  A    between atoms: C_30  and  C_31
REMARK   11  A    between atoms: N_33  and  C_34
REMARK   12  A    between atoms: C_34  and  C_35
REMARK                            x       y       z     vdW  Elec       q    Type
REMARK                         _______ _______ _______ _____ _____    ______ ____
ROOT
ATOM      1  C   UNL     1      -1.895   3.644  -1.207  0.00  0.00    +0.016 C 
ATOM      2  C   UNL     1      -0.513   3.252  -0.681  0.00  0.00    -0.007 C 
ATOM      3  C   UNL     1      -0.427   1.747  -0.758  0.00  0.00    +0.019 C 
ATOM      4  C   UNL     1       0.490   1.163   0.316  0.00  0.00    +0.080 C 
ATOM      5  C   UNL     1      -0.007   1.655   1.663  0.00  0.00    +0.156 C 
ATOM      6  O   UNL     1      -0.236   0.894   2.580  0.00  0.00    -0.293 OA
ATOM      7  C   UNL     1      -0.168   3.109   1.787  0.00  0.00    +0.046 C 
ATOM      8  C   UNL     1      -0.395   3.832   0.694  0.00  0.00    -0.060 C 
ATOM      9  C   UNL     1      -0.498   5.331   0.839  0.00  0.00    +0.032 C 
ATOM     10  C   UNL     1       0.536   5.951  -0.108  0.00  0.00    +0.008 C 
ATOM     11  C   UNL     1       0.315   5.443  -1.534  0.00  0.00    -0.003 C 
ATOM     12  C   UNL     1       0.511   3.927  -1.595  0.00  0.00    +0.002 C 
ATOM     13  C   UNL     1       0.281   3.452  -3.034  0.00  0.00    +0.005 C 
ATOM     14  C   UNL     1       1.333   4.091  -3.935  0.00  0.00    +0.010 C 
ATOM     15  C   UNL     1       1.189   5.615  -3.936  0.00  0.00    +0.007 C 
ATOM     16  C   UNL     1       1.228   6.162  -2.499  0.00  0.00    +0.002 C 
ATOM     17  C   UNL     1       2.710   6.028  -2.102  0.00  0.00    +0.008 C 
ATOM     18  C   UNL     1       3.465   6.420  -3.393  0.00  0.00    +0.043 C 
ATOM     19  C   UNL     1       2.491   6.184  -4.562  0.00  0.00    +0.133 C 
ATOM     20  C   UNL     1      -0.059   6.067  -4.697  0.00  0.00    +0.015 C 
ENDROOT
BRANCH  19  21
ATOM     21  C   UNL     1       2.201   7.484  -5.266  0.00  0.00    +0.202 C 
ATOM     22  O   UNL     1       2.245   8.525  -4.655  0.00  0.00    -0.291 OA
BRANCH  21  23
ATOM     23  C   UNL     1       1.856   7.486  -6.734  0.00  0.00    +0.309 C 
BRANCH  23  24
ATOM     24  O   UNL     1       1.622   8.849  -7.174  0.00  0.00    -0.457 OA
BRANCH  24  25
ATOM     25  C   UNL     1       1.302   9.026  -8.466  0.00  0.00    +0.308 C 
ATOM     26  O   UNL     1       1.220   8.073  -9.204  0.00  0.00    -0.251 OA
BRANCH  25  27
ATOM     27  C   UNL     1       1.045  10.413  -8.995  0.00  0.00    +0.130 C 
BRANCH  27  28
ATOM     28  C   UNL     1       0.703  10.335 -10.485  0.00  0.00    +0.107 C 
BRANCH  28  29
ATOM     29  C   UNL     1       0.445  11.722 -11.014  0.00  0.00    +0.214 C 
ATOM     30  O   UNL     1       0.528  12.679 -10.274  0.00  0.00    -0.276 OA
ATOM     31  N   UNL     1       0.124  11.899 -12.311  0.00  0.00    -0.315 N 
ATOM     32  H   UNL     1       0.058  11.134 -12.903  0.00  0.00    +0.149 HD
BRANCH  31  33
ATOM     33  C   UNL     1      -0.126  13.248 -12.826  0.00  0.00    +0.107 C 
BRANCH  33  34
ATOM     34  C   UNL     1      -0.468  13.170 -14.315  0.00  0.00    +0.006 C 
ATOM     35  C   UNL     1       0.747  12.659 -15.092  0.00  0.00    +0.005 C 
ATOM     36  C   UNL     1       0.405  12.581 -16.581  0.00  0.00    +0.000 C 
ATOM     37  C   UNL     1       0.023  13.972 -17.090  0.00  0.00    +0.000 C 
ATOM     38  C   UNL     1      -1.193  14.483 -16.314  0.00  0.00    +0.000 C 
ATOM     39  C   UNL     1      -0.851  14.561 -14.824  0.00  0.00    +0.005 C 
ENDBRANCH  33  34
ENDBRANCH  31  33
ENDBRANCH  28  29
ENDBRANCH  27  28
ENDBRANCH  25  27
ENDBRANCH  24  25
ENDBRANCH  23  24
ENDBRANCH  21  23
ENDBRANCH  19  21
BRANCH  19  40
ATOM     40  O   UNL     1       3.046   5.241  -5.481  0.00  0.00    -0.380 OA
ATOM     41  H   UNL     1       3.862   5.540  -5.906  0.00  0.00    +0.211 HD
ENDBRANCH  19  40
TORSDOF 10
