REMARK  Name = ZINC39609017
REMARK  7 active torsions:
REMARK  status: ('A' for Active; 'I' for Inactive)
REMARK    1  A    between atoms: C_1  and  C_2
REMARK    2  A    between atoms: C_5  and  C_9
REMARK    3  A    between atoms: C_13  and  C_22
REMARK    4  A    between atoms: N_24  and  C_25
REMARK    5  A    between atoms: C_30  and  O_32
REMARK    6  A    between atoms: O_32  and  C_33
REMARK    7  A    between atoms: C_33  and  C_34
REMARK                            x       y       z     vdW  Elec       q    Type
REMARK                         _______ _______ _______ _____ _____    ______ ____
ROOT
ATOM      1  C   UNL     1      -0.035  -4.526  -0.123  0.00  0.00    +0.247 C 
ATOM      2  O   UNL     1      -0.166  -5.212  -1.118  0.00  0.00    -0.270 OA
ATOM      3  N   UNL     1       0.116  -5.110   1.083  0.00  0.00    -0.296 N 
ATOM      4  C   UNL     1       0.158  -4.454   2.411  0.00  0.00    +0.121 C 
ATOM      5  C   UNL     1      -0.633  -5.402   3.340  0.00  0.00    +0.100 C 
ATOM      6  C   UNL     1      -0.550  -6.778   2.659  0.00  0.00    -0.004 C 
ATOM      7  C   UNL     1       0.270  -6.554   1.380  0.00  0.00    +0.115 C 
ATOM      8  C   UNL     1      -1.947  -7.276   2.301  0.00  0.00    -0.010 C 
ATOM      9  C   UNL     1      -1.843  -8.671   1.677  0.00  0.00    -0.082 C 
ATOM     10  N   UNL     1      -1.203  -9.587   2.629  0.00  0.00    +0.379 N 
ATOM     11  C   UNL     1       0.173  -9.152   2.896  0.00  0.00    -0.082 C 
ATOM     12  C   UNL     1       0.154  -7.778   3.571  0.00  0.00    -0.010 C 
ATOM     13  H   UNL     1      -1.726  -9.593   3.492  0.00  0.00    -0.086 HD
ATOM     14  H   UNL     1      -1.190 -10.518   2.240  0.00  0.00    -0.086 HD
ENDROOT
BRANCH   1  19
ATOM     15  C   UNL     1      -0.050   1.214  -0.555  0.00  0.00    +0.047 C 
ATOM     16  C   UNL     1      -0.046  -0.289  -0.442  0.00  0.00    -0.015 A 
ATOM     17  C   UNL     1       0.531  -0.896   0.659  0.00  0.00    +0.007 A 
ATOM     18  C   UNL     1       0.538  -2.271   0.768  0.00  0.00    +0.013 A 
ATOM     19  C   UNL     1      -0.040  -3.052  -0.235  0.00  0.00    +0.040 A 
ATOM     20  C   UNL     1      -0.621  -2.435  -1.343  0.00  0.00    +0.051 A 
ATOM     21  C   UNL     1      -0.626  -1.057  -1.439  0.00  0.00    +0.127 A 
ATOM     22  F   UNL     1      -1.194  -0.457  -2.509  0.00  0.00    -0.205 F 
ENDBRANCH   1  19
BRANCH   5  23
ATOM     23  C   UNL     1      -2.068  -4.953   3.448  0.00  0.00    +0.218 C 
ATOM     24  O   UNL     1      -2.596  -4.379   2.520  0.00  0.00    -0.275 OA
ATOM     25  N   UNL     1      -2.765  -5.191   4.577  0.00  0.00    -0.310 N 
ATOM     26  H   UNL     1      -2.342  -5.650   5.320  0.00  0.00    +0.149 HD
BRANCH  25  27
ATOM     27  C   UNL     1      -4.159  -4.755   4.683  0.00  0.00    +0.102 C 
ATOM     28  C   UNL     1      -4.221  -3.303   5.189  0.00  0.00    +0.025 C 
ATOM     29  C   UNL     1      -5.002  -3.333   6.519  0.00  0.00    +0.004 C 
ATOM     30  C   UNL     1      -5.859  -4.620   6.428  0.00  0.00    +0.033 C 
ATOM     31  C   UNL     1      -4.905  -5.617   5.723  0.00  0.00    +0.139 C 
BRANCH  31  32
ATOM     32  O   UNL     1      -5.650  -6.649   5.074  0.00  0.00    -0.370 OA
BRANCH  32  33
ATOM     33  C   UNL     1      -5.801  -7.836   5.855  0.00  0.00    +0.195 C 
BRANCH  33  34
ATOM     34  C   UNL     1      -6.598  -8.852   5.078  0.00  0.00    -0.022 A 
ATOM     35  C   UNL     1      -7.976  -8.878   5.185  0.00  0.00    +0.006 A 
ATOM     36  C   UNL     1      -8.707  -9.809   4.472  0.00  0.00    +0.000 A 
ATOM     37  C   UNL     1      -8.061 -10.714   3.652  0.00  0.00    +0.000 A 
ATOM     38  C   UNL     1      -6.683 -10.688   3.544  0.00  0.00    +0.000 A 
ATOM     39  C   UNL     1      -5.952  -9.754   4.253  0.00  0.00    +0.006 A 
ENDBRANCH  33  34
ENDBRANCH  32  33
ENDBRANCH  31  32
ENDBRANCH  25  27
ENDBRANCH   5  23
TORSDOF 6
