REMARK  Name = ZINC39357287
REMARK  7 active torsions:
REMARK  status: ('A' for Active; 'I' for Inactive)
REMARK    1  A    between atoms: C_1  and  C_2
REMARK    2  A    between atoms: C_8  and  C_31
REMARK    3  A    between atoms: N_16  and  C_17
REMARK    4  A    between atoms: C_17  and  C_18
REMARK    5  A    between atoms: C_18  and  C_19
REMARK    6  A    between atoms: C_26  and  O_29
REMARK    7  A    between atoms: O_29  and  C_30
REMARK                            x       y       z     vdW  Elec       q    Type
REMARK                         _______ _______ _______ _____ _____    ______ ____
ROOT
ATOM      1  C   UNL     1       0.022   1.485  -0.229  0.00  0.00    +0.024 C 
ATOM      2  C   UNL     1       0.035  -0.044  -0.171  0.00  0.00    +0.062 C 
ATOM      3  C   UNL     1      -1.404  -0.573  -0.147  0.00  0.00    +0.114 C 
ATOM      4  C   UNL     1      -1.355  -2.065   0.049  0.00  0.00    +0.221 C 
ATOM      5  O   UNL     1      -2.284  -2.744  -0.335  0.00  0.00    -0.275 OA
ATOM      6  N   UNL     1      -0.308  -2.659   0.637  0.00  0.00    -0.245 N 
ATOM      7  C   UNL     1      -0.314  -4.124   0.803  0.00  0.00    +0.206 C 
ATOM      8  N   UNL     1       0.193  -4.469   2.129  0.00  0.00    -0.339 N 
ATOM      9  C   UNL     1       0.832  -3.640   2.888  0.00  0.00    +0.158 C 
ATOM     10  N   UNL     1       1.067  -2.334   2.532  0.00  0.00    -0.288 N 
ATOM     11  C   UNL     1       0.862  -1.933   1.129  0.00  0.00    +0.239 C 
ATOM     12  N   UNL     1       0.711  -0.486   1.053  0.00  0.00    -0.280 NA
ATOM     13  N   UNL     1       1.297  -4.085   4.103  0.00  0.00    -0.318 N 
ATOM     14  H   UNL     1       1.361  -1.688   3.192  0.00  0.00    +0.152 HD
ATOM     15  H   UNL     1       1.143  -5.003   4.374  0.00  0.00    +0.149 HD
ATOM     16  H   UNL     1       1.601  -0.023   1.161  0.00  0.00    +0.125 HD
ATOM     17  H   UNL     1       0.042  -5.369   2.458  0.00  0.00    +0.164 HD
ENDROOT
BRANCH   7  18
ATOM     18  C   UNL     1      -1.721  -4.640   0.655  0.00  0.00    -0.007 A 
ATOM     19  C   UNL     1      -2.057  -5.431  -0.428  0.00  0.00    +0.007 A 
ATOM     20  C   UNL     1      -3.348  -5.905  -0.564  0.00  0.00    +0.000 A 
ATOM     21  C   UNL     1      -4.304  -5.589   0.383  0.00  0.00    +0.000 A 
ATOM     22  C   UNL     1      -3.968  -4.799   1.467  0.00  0.00    +0.000 A 
ATOM     23  C   UNL     1      -2.676  -4.329   1.605  0.00  0.00    +0.007 A 
ENDBRANCH   7  18
BRANCH  13  24
ATOM     24  C   UNL     1       2.025  -3.171   4.987  0.00  0.00    +0.109 C 
BRANCH  24  25
ATOM     25  C   UNL     1       2.428  -3.911   6.264  0.00  0.00    +0.056 C 
BRANCH  25  26
ATOM     26  C   UNL     1       3.177  -2.972   7.174  0.00  0.00    -0.021 A 
ATOM     27  C   UNL     1       4.509  -2.831   7.254  0.00  0.00    +0.087 A 
ATOM     28  N   UNL     1       4.823  -1.884   8.190  0.00  0.00    -0.360 N 
ATOM     29  H   UNL     1       5.723  -1.609   8.424  0.00  0.00    +0.165 HD
ATOM     30  C   UNL     1       3.669  -1.379   8.751  0.00  0.00    +0.047 A 
ATOM     31  C   UNL     1       2.588  -2.035   8.134  0.00  0.00    +0.006 A 
ATOM     32  C   UNL     1       1.278  -1.720   8.502  0.00  0.00    +0.056 A 
ATOM     33  C   UNL     1       1.054  -0.762   9.471  0.00  0.00    +0.121 A 
ATOM     34  C   UNL     1       2.126  -0.112  10.077  0.00  0.00    +0.047 A 
ATOM     35  C   UNL     1       3.422  -0.420   9.727  0.00  0.00    +0.030 A 
BRANCH  33  36
ATOM     36  O   UNL     1      -0.219  -0.451   9.833  0.00  0.00    -0.495 OA
ATOM     37  C   UNL     1      -0.381   0.550  10.841  0.00  0.00    +0.277 C 
ENDBRANCH  33  36
ENDBRANCH  25  26
ENDBRANCH  24  25
ENDBRANCH  13  24
TORSDOF 5
