REMARK  Name = ZINC27344062
REMARK  9 active torsions:
REMARK  status: ('A' for Active; 'I' for Inactive)
REMARK    1  A    between atoms: C_1  and  O_2
REMARK    2  A    between atoms: O_2  and  C_3
REMARK    3  A    between atoms: C_6  and  N_9
REMARK    4  A    between atoms: C_10  and  C_12
REMARK    5  A    between atoms: C_12  and  C_14
REMARK    6  A    between atoms: C_12  and  N_20
REMARK    7  A    between atoms: N_20  and  C_21
REMARK    8  A    between atoms: C_21  and  C_22
REMARK    9  A    between atoms: C_21  and  C_28
REMARK                            x       y       z     vdW  Elec       q    Type
REMARK                         _______ _______ _______ _____ _____    ______ ____
ROOT
ATOM      1  C   UNL     1      -2.573   4.138   0.252  0.00  0.00    +0.048 C 
ENDROOT
BRANCH   1   2
ATOM      2  C   UNL     1      -3.418   3.860  -0.965  0.00  0.00    -0.053 A 
ATOM      3  C   UNL     1      -3.190   4.554  -2.138  0.00  0.00    +0.002 A 
ATOM      4  C   UNL     1      -3.962   4.295  -3.255  0.00  0.00    +0.000 A 
ATOM      5  C   UNL     1      -4.968   3.349  -3.196  0.00  0.00    +0.000 A 
ATOM      6  C   UNL     1      -5.199   2.658  -2.021  0.00  0.00    +0.000 A 
ATOM      7  C   UNL     1      -4.424   2.914  -0.905  0.00  0.00    +0.002 A 
ENDBRANCH   1   2
BRANCH   1   9
ATOM      8  N   UNL     1      -1.239   2.068   0.019  0.00  0.00    -0.287 N 
ATOM      9  C   UNL     1      -1.259   3.412   0.128  0.00  0.00    +0.207 C 
ATOM     10  O   UNL     1      -0.219   4.036   0.127  0.00  0.00    -0.277 OA
ATOM     11  H   UNL     1      -2.183   1.510  -0.067  0.00  0.00    +0.155 HD
BRANCH   8  15
ATOM     12  C   UNL     1       2.395   0.024   0.017  0.00  0.00    +0.120 A 
ATOM     13  C   UNL     1       2.252   1.184   0.764  0.00  0.00    +0.047 A 
ATOM     14  C   UNL     1       1.050   1.863   0.764  0.00  0.00    +0.027 A 
ATOM     15  C   UNL     1      -0.017   1.384   0.015  0.00  0.00    +0.034 A 
ATOM     16  C   UNL     1       0.126   0.223  -0.732  0.00  0.00    +0.027 A 
ATOM     17  C   UNL     1       1.329  -0.455  -0.731  0.00  0.00    +0.047 A 
BRANCH  12  19
ATOM     18  C   UNL     1       3.655  -1.831  -0.774  0.00  0.00    +0.277 C 
ATOM     19  O   UNL     1       3.579  -0.643   0.018  0.00  0.00    -0.495 OA
ENDBRANCH  12  19
ENDBRANCH   8  15
ENDBRANCH   1   9
BRANCH   1  20
ATOM     20  N   UNL     1      -2.326   5.583   0.356  0.00  0.00    +0.397 N 
ATOM     21  H   UNL     1      -1.399   5.756   0.922  0.00  0.00    -0.083 HD
ATOM     22  H   UNL     1      -2.227   6.011  -0.652  0.00  0.00    -0.083 HD
BRANCH  20  23
ATOM     23  C   UNL     1      -3.433   6.258   1.048  0.00  0.00    -0.009 C 
BRANCH  23  24
ATOM     24  C   UNL     1      -2.930   7.532   1.675  0.00  0.00    -0.057 A 
ATOM     25  C   UNL     1      -2.023   8.326   0.997  0.00  0.00    +0.002 A 
ATOM     26  C   UNL     1      -1.566   9.498   1.571  0.00  0.00    +0.000 A 
ATOM     27  C   UNL     1      -2.008   9.871   2.826  0.00  0.00    +0.000 A 
ATOM     28  C   UNL     1      -2.910   9.075   3.506  0.00  0.00    +0.000 A 
ATOM     29  C   UNL     1      -3.372   7.905   2.931  0.00  0.00    +0.002 A 
ENDBRANCH  23  24
BRANCH  23  30
ATOM     30  C   UNL     1      -4.521   6.581   0.057  0.00  0.00    -0.057 A 
ATOM     31  C   UNL     1      -4.194   7.039  -1.206  0.00  0.00    +0.002 A 
ATOM     32  C   UNL     1      -5.192   7.330  -2.116  0.00  0.00    +0.000 A 
ATOM     33  C   UNL     1      -6.519   7.174  -1.760  0.00  0.00    +0.000 A 
ATOM     34  C   UNL     1      -6.847   6.721  -0.496  0.00  0.00    +0.000 A 
ATOM     35  C   UNL     1      -5.848   6.425   0.413  0.00  0.00    +0.002 A 
ENDBRANCH  23  30
ENDBRANCH  20  23
ENDBRANCH   1  20
TORSDOF 8
