REMARK  Name = ZINC20161182
REMARK  12 active torsions:
REMARK  status: ('A' for Active; 'I' for Inactive)
REMARK    1  A    between atoms: C_2  and  C_3
REMARK    2  A    between atoms: C_3  and  C_4
REMARK    3  A    between atoms: C_8  and  C_11
REMARK    4  A    between atoms: C_9  and  O_10
REMARK    5  A    between atoms: N_12  and  N_13
REMARK    6  A    between atoms: C_14  and  C_16
REMARK    7  A    between atoms: C_16  and  S_17
REMARK    8  A    between atoms: S_17  and  C_18
REMARK    9  A    between atoms: C_21  and  C_29
REMARK   10  A    between atoms: N_22  and  C_23
REMARK   11  A    between atoms: C_29  and  N_30
REMARK   12  A    between atoms: N_30  and  C_31
REMARK                            x       y       z     vdW  Elec       q    Type
REMARK                         _______ _______ _______ _____ _____    ______ ____
ROOT
ATOM      1  C   UNL     1      -3.369 -10.450  -2.181  0.00  0.00    +0.197 A 
ATOM      2  N   UNL     1      -3.336 -11.296  -1.178  0.00  0.00    -0.122 NA
ATOM      3  N   UNL     1      -3.901 -12.399  -1.517  0.00  0.00    -0.132 NA
ATOM      4  C   UNL     1      -4.326 -12.326  -2.747  0.00  0.00    +0.156 A 
ATOM      5  N   UNL     1      -4.009 -11.079  -3.214  0.00  0.00    -0.273 N 
ENDROOT
BRANCH   5   6
ATOM      6  C   UNL     1      -4.280 -10.556  -4.487  0.00  0.00    +0.050 A 
ATOM      7  C   UNL     1      -5.592 -10.347  -4.888  0.00  0.00    +0.026 A 
ATOM      8  C   UNL     1      -5.856  -9.832  -6.142  0.00  0.00    +0.002 A 
ATOM      9  C   UNL     1      -4.815  -9.525  -6.998  0.00  0.00    +0.000 A 
ATOM     10  C   UNL     1      -3.507  -9.732  -6.601  0.00  0.00    +0.002 A 
ATOM     11  C   UNL     1      -3.236 -10.241  -5.346  0.00  0.00    +0.026 A 
ENDBRANCH   5   6
BRANCH   1  12
ATOM     12  S   UNL     1      -2.721  -8.811  -2.192  0.00  0.00    -0.076 S 
BRANCH  12  13
ATOM     13  C   UNL     1      -2.015  -8.607  -0.534  0.00  0.00    +0.174 C 
BRANCH  13  15
ATOM     14  N   UNL     1      -0.833  -6.851   0.746  0.00  0.00    -0.206 N 
ATOM     15  C   UNL     1      -1.418  -7.229  -0.408  0.00  0.00    +0.242 C 
ATOM     16  O   UNL     1      -1.464  -6.460  -1.345  0.00  0.00    -0.273 OA
ATOM     17  H   UNL     1      -0.796  -7.466   1.496  0.00  0.00    +0.177 HD
BRANCH  14  19
ATOM     18  C   UNL     1       0.285  -5.206   1.975  0.00  0.00    +0.142 C 
ATOM     19  N   UNL     1      -0.279  -5.570   0.863  0.00  0.00    -0.188 NA
BRANCH  18  24
ATOM     20  C   UNL     1       1.369  -1.702   1.144  0.00  0.00    -0.002 A 
ATOM     21  C   UNL     1       1.967  -1.322   2.331  0.00  0.00    +0.007 A 
ATOM     22  C   UNL     1       2.019  -2.200   3.400  0.00  0.00    +0.001 A 
ATOM     23  C   UNL     1       1.475  -3.462   3.292  0.00  0.00    +0.013 A 
ATOM     24  C   UNL     1       0.868  -3.858   2.098  0.00  0.00    +0.036 A 
ATOM     25  C   UNL     1       0.812  -2.965   1.019  0.00  0.00    +0.129 A 
BRANCH  25  26
ATOM     26  O   UNL     1       0.220  -3.337  -0.145  0.00  0.00    -0.506 OA
ATOM     27  H   UNL     1       0.821  -3.756  -0.776  0.00  0.00    +0.292 HD
ENDBRANCH  25  26
BRANCH  20  28
ATOM     28  C   UNL     1       1.317  -0.740  -0.015  0.00  0.00    +0.065 C 
BRANCH  28  30
ATOM     29  C   UNL     1      -0.016   1.306   0.009  0.00  0.00    +0.004 C 
ATOM     30  C   UNL     1       0.002  -0.004   0.002  0.00  0.00    -0.030 C 
ENDBRANCH  28  30
ENDBRANCH  20  28
ENDBRANCH  18  24
ENDBRANCH  14  19
ENDBRANCH  13  15
ENDBRANCH  12  13
ENDBRANCH   1  12
BRANCH   4  31
ATOM     31  C   UNL     1      -5.041 -13.412  -3.510  0.00  0.00    +0.178 C 
BRANCH  31  32
ATOM     32  N   UNL     1      -6.486 -13.280  -3.310  0.00  0.00    -0.337 N 
ATOM     33  H   UNL     1      -6.835 -12.568  -2.751  0.00  0.00    +0.147 HD
BRANCH  32  34
ATOM     34  C   UNL     1      -7.361 -14.179  -3.923  0.00  0.00    +0.027 A 
ATOM     35  C   UNL     1      -6.862 -15.203  -4.719  0.00  0.00    +0.023 A 
ATOM     36  C   UNL     1      -7.731 -16.090  -5.323  0.00  0.00    +0.002 A 
ATOM     37  C   UNL     1      -9.095 -15.961  -5.137  0.00  0.00    +0.000 A 
ATOM     38  C   UNL     1      -9.594 -14.943  -4.346  0.00  0.00    +0.002 A 
ATOM     39  C   UNL     1      -8.732 -14.055  -3.733  0.00  0.00    +0.023 A 
ENDBRANCH  32  34
ENDBRANCH  31  32
ENDBRANCH   4  31
TORSDOF 12
