REMARK  Name = ZINC34829693
REMARK  10 active torsions:
REMARK  status: ('A' for Active; 'I' for Inactive)
REMARK    1  A    between atoms: C_1  and  C_2
REMARK    2  A    between atoms: C_9  and  C_11
REMARK    3  A    between atoms: C_11  and  O_12
REMARK    4  A    between atoms: O_12  and  C_13
REMARK    5  A    between atoms: C_13  and  C_14
REMARK    6  A    between atoms: C_20  and  C_22
REMARK    7  A    between atoms: C_22  and  N_23
REMARK    8  A    between atoms: C_31  and  C_33
REMARK    9  A    between atoms: C_36  and  O_39
REMARK   10  A    between atoms: O_39  and  C_40
REMARK                            x       y       z     vdW  Elec       q    Type
REMARK                         _______ _______ _______ _____ _____    ______ ____
ROOT
ATOM      1  C   UNL     1       0.003   1.527  -0.003  0.00  0.00    +0.029 C 
ATOM      2  C   UNL     1       0.013  -0.003  -0.005  0.00  0.00    +0.090 C 
ATOM      3  C   UNL     1       0.631  -0.512  -1.314  0.00  0.00    +0.130 C 
ATOM      4  N   UNL     1       0.870  -1.956  -1.189  0.00  0.00    -0.300 N 
ATOM      5  C   UNL     1       1.681  -2.446  -0.065  0.00  0.00    +0.126 C 
ATOM      6  C   UNL     1       1.063  -1.937   1.243  0.00  0.00    +0.127 C 
ATOM      7  N   UNL     1       0.820  -0.492   1.121  0.00  0.00    -0.294 N 
ATOM      8  C   UNL     1       1.333   0.368   2.023  0.00  0.00    +0.242 C 
ATOM      9  O   UNL     1       1.046   1.545   1.968  0.00  0.00    -0.273 OA
ATOM     10  C   UNL     1       0.356  -2.817  -2.090  0.00  0.00    +0.199 C 
ATOM     11  O   UNL     1      -0.311  -2.401  -3.014  0.00  0.00    -0.278 OA
ENDROOT
BRANCH   8  12
ATOM     12  C   UNL     1       2.261  -0.133   3.099  0.00  0.00    +0.256 C 
BRANCH  12  13
ATOM     13  O   UNL     1       2.667   0.961   3.925  0.00  0.00    -0.366 OA
BRANCH  13  14
ATOM     14  C   UNL     1       3.554   0.593   4.982  0.00  0.00    +0.195 C 
BRANCH  14  15
ATOM     15  C   UNL     1       3.915   1.816   5.785  0.00  0.00    -0.022 A 
ATOM     16  C   UNL     1       5.015   2.575   5.431  0.00  0.00    +0.006 A 
ATOM     17  C   UNL     1       5.346   3.698   6.167  0.00  0.00    +0.000 A 
ATOM     18  C   UNL     1       4.576   4.061   7.256  0.00  0.00    +0.000 A 
ATOM     19  C   UNL     1       3.476   3.303   7.609  0.00  0.00    +0.000 A 
ATOM     20  C   UNL     1       3.143   2.183   6.871  0.00  0.00    +0.006 A 
ENDBRANCH  14  15
ENDBRANCH  13  14
ENDBRANCH  12  13
ENDBRANCH   8  12
BRANCH  10  21
ATOM     21  C   UNL     1       0.610  -4.296  -1.950  0.00  0.00    +0.020 C 
BRANCH  21  22
ATOM     22  N   UNL     1      -0.053  -5.013  -3.047  0.00  0.00    +0.393 N 
ATOM     23  C   UNL     1       0.548  -4.604  -4.324  0.00  0.00    -0.072 C 
ATOM     24  C   UNL     1      -0.350  -5.090  -5.475  0.00  0.00    +0.024 C 
ATOM     25  C   UNL     1      -0.690  -6.520  -5.208  0.00  0.00    -0.010 A 
ATOM     26  C   UNL     1      -0.505  -7.190  -4.035  0.00  0.00    -0.047 A 
ATOM     27  C   UNL     1      -0.893  -8.527  -4.016  0.00  0.00    +0.010 A 
ATOM     28  C   UNL     1      -1.424  -9.094  -5.125  0.00  0.00    +0.045 A 
ATOM     29  S   UNL     1      -1.403  -7.731  -6.282  0.00  0.00    -0.101 S 
ATOM     30  C   UNL     1       0.096  -6.458  -2.840  0.00  0.00    -0.005 C 
ATOM     31  H   UNL     1      -1.034  -4.778  -3.053  0.00  0.00    -0.080 HD
BRANCH  30  32
ATOM     32  C   UNL     1      -0.628  -6.865  -1.582  0.00  0.00    -0.056 A 
ATOM     33  C   UNL     1      -1.858  -6.309  -1.283  0.00  0.00    +0.006 A 
ATOM     34  C   UNL     1      -2.523  -6.681  -0.131  0.00  0.00    +0.046 A 
ATOM     35  C   UNL     1      -1.956  -7.612   0.727  0.00  0.00    +0.120 A 
ATOM     36  C   UNL     1      -0.722  -8.168   0.425  0.00  0.00    +0.046 A 
ATOM     37  C   UNL     1      -0.063  -7.798  -0.732  0.00  0.00    +0.006 A 
BRANCH  35  38
ATOM     38  O   UNL     1      -2.608  -7.978   1.862  0.00  0.00    -0.495 OA
ATOM     39  C   UNL     1      -1.964  -8.942   2.697  0.00  0.00    +0.277 C 
ENDBRANCH  35  38
ENDBRANCH  30  32
ENDBRANCH  21  22
ENDBRANCH  10  21
TORSDOF 8
