REMARK  Name = ZINC09237794
REMARK  7 active torsions:
REMARK  status: ('A' for Active; 'I' for Inactive)
REMARK    1  A    between atoms: C_1  and  C_2
REMARK    2  A    between atoms: C_6  and  N_8
REMARK    3  A    between atoms: C_9  and  C_11
REMARK    4  A    between atoms: C_13  and  C_23
REMARK    5  A    between atoms: C_17  and  C_22
REMARK    6  A    between atoms: C_26  and  O_30
REMARK    7  A    between atoms: O_30  and  C_31
REMARK                            x       y       z     vdW  Elec       q    Type
REMARK                         _______ _______ _______ _____ _____    ______ ____
ROOT
ATOM      1  C   UNL     1       4.863   4.229  -0.237  0.00  0.00    +0.166 C 
ATOM      2  C   UNL     1       4.627   5.536  -1.007  0.00  0.00    +0.140 C 
ATOM      3  N   UNL     1       5.903   6.147  -1.381  0.00  0.00    -0.272 N 
ATOM      4  N   UNL     1       6.697   6.446  -0.321  0.00  0.00    -0.225 N 
ATOM      5  C   UNL     1       7.720   7.350  -0.274  0.00  0.00    +0.148 A 
ATOM      6  N   UNL     1       8.225   7.303   0.928  0.00  0.00    -0.132 NA
ATOM      7  N   UNL     1       7.591   6.439   1.643  0.00  0.00    -0.121 NA
ATOM      8  C   UNL     1       6.647   5.893   0.927  0.00  0.00    +0.209 A 
ATOM      9  S   UNL     1       5.481   4.661   1.417  0.00  0.00    -0.069 S 
ATOM     10  C   UNL     1       8.180   8.236  -1.403  0.00  0.00    +0.090 C 
ATOM     11  H   UNL     1       6.395   5.575  -2.051  0.00  0.00    +0.167 HD
ENDROOT
BRANCH   2  12
ATOM     12  C   UNL     1       3.830   5.244  -2.252  0.00  0.00    -0.023 A 
ATOM     13  C   UNL     1       4.463   4.741  -3.374  0.00  0.00    +0.009 A 
ATOM     14  C   UNL     1       3.734   4.467  -4.515  0.00  0.00    +0.047 A 
ATOM     15  C   UNL     1       2.368   4.707  -4.539  0.00  0.00    +0.134 A 
ATOM     16  C   UNL     1       1.736   5.217  -3.413  0.00  0.00    +0.060 A 
ATOM     17  C   UNL     1       2.469   5.484  -2.272  0.00  0.00    +0.024 A 
ATOM     18 BR   UNL     1      -0.126   5.545  -3.441  0.00  0.00    -0.047 Br
BRANCH  15  19
ATOM     19  O   UNL     1       1.650   4.444  -5.663  0.00  0.00    -0.494 OA
ATOM     20  C   UNL     1       2.367   3.921  -6.783  0.00  0.00    +0.277 C 
ENDBRANCH  15  19
ENDBRANCH   2  12
BRANCH   1  22
ATOM     21  N   UNL     1       3.584   2.123  -0.021  0.00  0.00    -0.285 N 
ATOM     22  C   UNL     1       3.569   3.468  -0.116  0.00  0.00    +0.233 C 
ATOM     23  O   UNL     1       2.513   4.065  -0.102  0.00  0.00    -0.274 OA
ATOM     24  H   UNL     1       4.429   1.651   0.036  0.00  0.00    +0.155 HD
BRANCH  21  30
ATOM     25  C   UNL     1       1.029  -1.892  -1.256  0.00  0.00    +0.044 C 
ATOM     26  C   UNL     1       1.114  -0.539  -0.596  0.00  0.00    -0.049 A 
ATOM     27  C   UNL     1       0.001  -0.003   0.026  0.00  0.00    +0.003 A 
ATOM     28  C   UNL     1       0.075   1.238   0.632  0.00  0.00    +0.002 A 
ATOM     29  C   UNL     1       1.262   1.945   0.618  0.00  0.00    +0.023 A 
ATOM     30  C   UNL     1       2.381   1.409  -0.006  0.00  0.00    +0.034 A 
ATOM     31  C   UNL     1       2.303   0.163  -0.614  0.00  0.00    +0.026 A 
ENDBRANCH  21  30
ENDBRANCH   1  22
TORSDOF 4
