REMARK  Name = ZINC16432454
REMARK  15 active torsions:
REMARK  status: ('A' for Active; 'I' for Inactive)
REMARK    1  A    between atoms: C_1  and  C_2
REMARK    2  A    between atoms: C_2  and  C_3
REMARK    3  A    between atoms: C_3  and  C_4
REMARK    4  A    between atoms: C_4  and  N_5
REMARK    5  A    between atoms: N_5  and  C_6
REMARK    6  A    between atoms: C_6  and  C_7
REMARK    7  A    between atoms: N_9  and  C_10
REMARK    8  A    between atoms: C_12  and  C_22
REMARK    9  A    between atoms: N_14  and  C_15
REMARK   10  A    between atoms: C_22  and  C_23
REMARK   11  A    between atoms: C_22  and  C_24
REMARK   12  A    between atoms: C_22  and  C_25
REMARK   13  A    between atoms: N_28  and  C_29
REMARK   14  A    between atoms: C_34  and  C_35
REMARK   15  A    between atoms: C_35  and  C_36
REMARK                            x       y       z     vdW  Elec       q    Type
REMARK                         _______ _______ _______ _____ _____    ______ ____
ROOT
ATOM      1  C   UNL     1       1.757   7.461  -0.389  0.00  0.00    +0.236 C 
ATOM      2  O   UNL     1       2.904   7.845  -0.475  0.00  0.00    -0.274 OA
ATOM      3  N   UNL     1       1.496   6.151  -0.208  0.00  0.00    -0.269 N 
ATOM      4  H   UNL     1       0.579   5.844  -0.139  0.00  0.00    +0.156 HD
ENDROOT
BRANCH   3   5
ATOM      5  C   UNL     1       2.546   5.237  -0.121  0.00  0.00    +0.129 A 
ATOM      6  C   UNL     1       3.874   5.536  -0.093  0.00  0.00    +0.069 A 
ATOM      7  C   UNL     1       4.582   4.335  -0.000  0.00  0.00    +0.071 A 
ATOM      8  N   UNL     1       3.723   3.348   0.033  0.00  0.00    -0.169 NA
ATOM      9  N   UNL     1       2.431   3.884  -0.047  0.00  0.00    -0.217 N 
BRANCH   9  10
ATOM     10  C   UNL     1       1.233   3.155  -0.046  0.00  0.00    +0.086 A 
ATOM     11  C   UNL     1       0.203   3.512   0.813  0.00  0.00    +0.029 A 
ATOM     12  C   UNL     1      -0.976   2.792   0.813  0.00  0.00    +0.002 A 
ATOM     13  C   UNL     1      -1.129   1.713  -0.038  0.00  0.00    +0.002 A 
ATOM     14  C   UNL     1      -0.107   1.357  -0.899  0.00  0.00    +0.022 A 
ATOM     15  C   UNL     1       1.075   2.074  -0.903  0.00  0.00    +0.066 A 
ATOM     16 CL   UNL     1       2.360   1.623  -1.980  0.00  0.00    -0.081 Cl
ENDBRANCH   9  10
BRANCH   7  17
ATOM     17  C   UNL     1       6.082   4.199   0.059  0.00  0.00    +0.006 C 
ATOM     18  C   UNL     1       6.576   4.603   1.449  0.00  0.00    +0.017 C 
ATOM     19  C   UNL     1       6.473   2.746  -0.219  0.00  0.00    +0.017 C 
ATOM     20  C   UNL     1       6.718   5.109  -0.994  0.00  0.00    +0.017 C 
ENDBRANCH   7  17
ENDBRANCH   3   5
BRANCH   1  21
ATOM     21  C   UNL     1       0.622   8.449  -0.484  0.00  0.00    +0.205 C 
BRANCH  21  22
ATOM     22  N   UNL     1       1.163   9.796  -0.678  0.00  0.00    -0.277 N 
ATOM     23  C   UNL     1       1.376  10.264  -1.924  0.00  0.00    +0.307 C 
ATOM     24  O   UNL     1       1.119   9.567  -2.887  0.00  0.00    -0.252 OA
ATOM     25  N   UNL     1       1.873  11.504  -2.103  0.00  0.00    -0.269 N 
ATOM     26  H   UNL     1       2.136  12.036  -1.336  0.00  0.00    +0.156 HD
BRANCH  25  27
ATOM     27  C   UNL     1       2.011  12.023  -3.396  0.00  0.00    +0.038 A 
ATOM     28  C   UNL     1       2.342  11.183  -4.451  0.00  0.00    +0.023 A 
ATOM     29  C   UNL     1       2.473  11.697  -5.726  0.00  0.00    +0.002 A 
ATOM     30  C   UNL     1       2.284  13.049  -5.950  0.00  0.00    +0.000 A 
ATOM     31  C   UNL     1       1.960  13.888  -4.901  0.00  0.00    +0.005 A 
ATOM     32  C   UNL     1       1.823  13.379  -3.624  0.00  0.00    -0.026 A 
BRANCH  32  33
ATOM     33  C   UNL     1       1.470  14.295  -2.481  0.00  0.00    +0.033 C 
ATOM     34  C   UNL     1       2.750  14.742  -1.772  0.00  0.00    +0.009 C 
ENDBRANCH  32  33
ENDBRANCH  25  27
BRANCH  22  35
ATOM     35  C   UNL     1       1.473  10.636   0.482  0.00  0.00    +0.110 C 
BRANCH  35  36
ATOM     36  C   UNL     1       2.920  10.395   0.914  0.00  0.00    +0.019 C 
BRANCH  36  38
ATOM     37  C   UNL     1       4.691  11.030   2.558  0.00  0.00    +0.004 C 
ATOM     38  C   UNL     1       3.243  11.271   2.126  0.00  0.00    -0.002 C 
ENDBRANCH  36  38
ENDBRANCH  35  36
ENDBRANCH  22  35
ENDBRANCH  21  22
ENDBRANCH   1  21
TORSDOF 10
