REMARK  Name = ZINC14963023
REMARK  8 active torsions:
REMARK  status: ('A' for Active; 'I' for Inactive)
REMARK    1  A    between atoms: C_1  and  N_47
REMARK    2  A    between atoms: C_2  and  C_3
REMARK    3  A    between atoms: C_2  and  N_47
REMARK    4  A    between atoms: C_6  and  C_9
REMARK    5  A    between atoms: N_11  and  C_12
REMARK    6  A    between atoms: C_13  and  C_21
REMARK    7  A    between atoms: C_17  and  O_18
REMARK    8  A    between atoms: O_18  and  C_19
REMARK                            x       y       z     vdW  Elec       q    Type
REMARK                         _______ _______ _______ _____ _____    ______ ____
ROOT
ATOM      1  C   UNL     1       4.958   5.442  -0.268  0.00  0.00    +0.088 A 
ATOM      2  C   UNL     1       4.903   4.150  -0.810  0.00  0.00    +0.063 A 
ATOM      3  C   UNL     1       6.080   3.411  -0.958  0.00  0.00    +0.035 A 
ATOM      4  C   UNL     1       7.289   3.958  -0.582  0.00  0.00    +0.045 A 
ATOM      5  C   UNL     1       7.344   5.235  -0.046  0.00  0.00    +0.067 A 
ATOM      6  C   UNL     1       6.187   5.977   0.113  0.00  0.00    +0.143 A 
ATOM      7 CL   UNL     1       8.749   3.038  -0.774  0.00  0.00    -0.083 Cl
ENDROOT
BRANCH   2   8
ATOM      8  C   UNL     1       3.609   3.572  -1.216  0.00  0.00    +0.251 C 
ATOM      9  O   UNL     1       2.602   4.253  -1.186  0.00  0.00    -0.270 OA
ATOM     10  N   UNL     1       3.542   2.288  -1.622  0.00  0.00    -0.266 N 
ATOM     11  C   UNL     1       2.341   1.772  -2.105  0.00  0.00    +0.125 A 
ATOM     12  C   UNL     1       2.305   0.481  -2.622  0.00  0.00    +0.045 A 
ATOM     13  C   UNL     1       1.107  -0.020  -3.099  0.00  0.00    +0.025 A 
ATOM     14  C   UNL     1      -0.020   0.792  -3.043  0.00  0.00    +0.059 A 
ATOM     15  C   UNL     1       0.089   2.064  -2.516  0.00  0.00    +0.132 A 
ATOM     16  N   UNL     1       1.246   2.514  -2.069  0.00  0.00    -0.239 NA
ATOM     17 CL   UNL     1      -1.548   0.213  -3.628  0.00  0.00    -0.082 Cl
ATOM     18  H   UNL     1       4.329   1.723  -1.577  0.00  0.00    +0.157 HD
ENDBRANCH   2   8
BRANCH   1  21
ATOM     19  C   UNL     1       3.809   7.519  -0.304  0.00  0.00    +0.256 C 
ATOM     20  O   UNL     1       4.832   8.066  -0.674  0.00  0.00    -0.269 OA
ATOM     21  N   UNL     1       3.790   6.186  -0.109  0.00  0.00    -0.277 N 
ATOM     22  H   UNL     1       2.964   5.744   0.141  0.00  0.00    +0.155 HD
BRANCH  19  26
ATOM     23  C   UNL     1       1.156  10.165   0.077  0.00  0.00    -0.038 A 
ATOM     24  C   UNL     1       0.185   9.304   0.477  0.00  0.00    +0.049 A 
ATOM     25  S   UNL     1       0.987   7.767   0.466  0.00  0.00    -0.090 S 
ATOM     26  C   UNL     1       2.599   8.310  -0.072  0.00  0.00    +0.093 A 
ATOM     27  C   UNL     1       2.409   9.678  -0.206  0.00  0.00    +0.062 A 
ATOM     28 CL   UNL     1       3.696  10.727  -0.714  0.00  0.00    -0.082 Cl
BRANCH  23  29
ATOM     29  C   UNL     1       0.864  11.638  -0.049  0.00  0.00    -0.045 C 
BRANCH  29  31
ATOM     30  C   UNL     1       0.337  13.402  -1.622  0.00  0.00    -0.100 C 
ATOM     31  N   UNL     1       0.626  11.964  -1.468  0.00  0.00    +0.380 N 
ATOM     32  H   UNL     1       1.461  11.726  -2.015  0.00  0.00    -0.086 HD
ATOM     33  H   UNL     1      -0.174  11.419  -1.811  0.00  0.00    -0.086 HD
ENDBRANCH  29  31
ENDBRANCH  23  29
ENDBRANCH  19  26
ENDBRANCH   1  21
BRANCH   6  34
ATOM     34  O   UNL     1       6.249   7.229   0.639  0.00  0.00    -0.493 OA
ATOM     35  C   UNL     1       7.541   7.715   1.007  0.00  0.00    +0.277 C 
ENDBRANCH   6  34
TORSDOF 6
