REMARK  Name = ZINC36549950
REMARK  13 active torsions:
REMARK  status: ('A' for Active; 'I' for Inactive)
REMARK    1  A    between atoms: C_1  and  C_2
REMARK    2  A    between atoms: C_2  and  C_3
REMARK    3  A    between atoms: C_2  and  C_4
REMARK    4  A    between atoms: C_2  and  N_5
REMARK    5  A    between atoms: C_6  and  C_8
REMARK    6  A    between atoms: C_8  and  C_10
REMARK    7  A    between atoms: C_8  and  N_19
REMARK    8  A    between atoms: C_11  and  O_18
REMARK    9  A    between atoms: C_13  and  O_17
REMARK   10  A    between atoms: C_15  and  O_16
REMARK   11  A    between atoms: N_19  and  C_20
REMARK   12  A    between atoms: C_27  and  C_29
REMARK   13  A    between atoms: C_32  and  N_35
REMARK                            x       y       z     vdW  Elec       q    Type
REMARK                         _______ _______ _______ _____ _____    ______ ____
ROOT
ATOM      1  C   UNL     1       2.834  -0.410  -2.416  0.00  0.00    +0.204 C 
ENDROOT
BRANCH   1   2
ATOM      2  C   UNL     1       2.784  -1.908  -2.255  0.00  0.00    +0.065 A 
ATOM      3  C   UNL     1       3.726  -2.552  -1.467  0.00  0.00    +0.129 A 
ATOM      4  C   UNL     1       3.680  -3.930  -1.319  0.00  0.00    +0.091 A 
ATOM      5  C   UNL     1       2.693  -4.664  -1.958  0.00  0.00    +0.124 A 
ATOM      6  C   UNL     1       1.750  -4.020  -2.746  0.00  0.00    +0.091 A 
ATOM      7  C   UNL     1       1.794  -2.641  -2.891  0.00  0.00    +0.129 A 
BRANCH   7   8
ATOM      8  O   UNL     1       0.868  -2.010  -3.659  0.00  0.00    -0.506 OA
ATOM      9  H   UNL     1       1.122  -1.920  -4.588  0.00  0.00    +0.292 HD
ENDBRANCH   7   8
BRANCH   5  10
ATOM     10  O   UNL     1       2.648  -6.014  -1.814  0.00  0.00    -0.507 OA
ATOM     11  H   UNL     1       2.111  -6.313  -1.068  0.00  0.00    +0.292 HD
ENDBRANCH   5  10
BRANCH   3  12
ATOM     12  O   UNL     1       4.694  -1.833  -0.840  0.00  0.00    -0.506 OA
ATOM     13  H   UNL     1       4.448  -1.531   0.045  0.00  0.00    +0.292 HD
ENDBRANCH   3  12
ENDBRANCH   1   2
BRANCH   1  15
ATOM     14  N   UNL     1       1.475   0.198  -0.441  0.00  0.00    -0.309 N 
ATOM     15  C   UNL     1       2.666   0.245  -1.070  0.00  0.00    +0.239 C 
ATOM     16  O   UNL     1       3.603   0.816  -0.552  0.00  0.00    -0.273 OA
ATOM     17  H   UNL     1       0.725  -0.258  -0.855  0.00  0.00    +0.149 HD
BRANCH  14  19
ATOM     18  C   UNL     1       1.607   2.332   0.746  0.00  0.00    +0.031 C 
ATOM     19  C   UNL     1       1.312   0.836   0.868  0.00  0.00    +0.026 C 
ATOM     20  C   UNL     1       2.282   0.204   1.867  0.00  0.00    +0.031 C 
ATOM     21  C   UNL     1      -0.125   0.637   1.356  0.00  0.00    +0.031 C 
ENDBRANCH  14  19
ENDBRANCH   1  15
BRANCH   1  22
ATOM     22  N   UNL     1       4.125  -0.024  -2.990  0.00  0.00    -0.250 N 
ATOM     23  C   UNL     1       4.364   1.265  -3.304  0.00  0.00    +0.252 C 
ATOM     24  O   UNL     1       3.544   2.120  -3.030  0.00  0.00    -0.270 OA
BRANCH  22  25
ATOM     25  C   UNL     1       5.110  -0.992  -3.213  0.00  0.00    +0.056 A 
ATOM     26  C   UNL     1       4.926  -1.958  -4.194  0.00  0.00    +0.025 A 
ATOM     27  C   UNL     1       5.900  -2.912  -4.412  0.00  0.00    +0.002 A 
ATOM     28  C   UNL     1       7.058  -2.907  -3.655  0.00  0.00    +0.002 A 
ATOM     29  C   UNL     1       7.244  -1.947  -2.678  0.00  0.00    +0.022 A 
ATOM     30  C   UNL     1       6.276  -0.985  -2.458  0.00  0.00    +0.062 A 
ATOM     31 CL   UNL     1       6.514   0.224  -1.236  0.00  0.00    -0.082 Cl
ENDBRANCH  22  25
BRANCH  23  32
ATOM     32  C   UNL     1       5.623   1.640  -3.981  0.00  0.00    +0.037 A 
ATOM     33  C   UNL     1       6.223   0.759  -4.882  0.00  0.00    +0.015 A 
ATOM     34  C   UNL     1       7.399   1.115  -5.511  0.00  0.00    +0.033 A 
ATOM     35  C   UNL     1       7.983   2.342  -5.249  0.00  0.00    +0.126 A 
ATOM     36  C   UNL     1       7.394   3.219  -4.356  0.00  0.00    +0.033 A 
ATOM     37  C   UNL     1       6.215   2.878  -3.726  0.00  0.00    +0.015 A 
BRANCH  35  38
ATOM     38  N   UNL     1       9.245   2.716  -5.926  0.00  0.00    +0.056 N 
ATOM     39  O   UNL     1       9.763   1.952  -6.706  0.00  0.00    -0.126 OA
ATOM     40  O   UNL     1       9.758   3.788  -5.699  0.00  0.00    -0.126 OA
ENDBRANCH  35  38
ENDBRANCH  23  32
ENDBRANCH   1  22
TORSDOF 10
