REMARK  Name = ZINC36346508
REMARK  19 active torsions:
REMARK  status: ('A' for Active; 'I' for Inactive)
REMARK    1  A    between atoms: C_1  and  C_2
REMARK    2  A    between atoms: C_2  and  C_3
REMARK    3  A    between atoms: C_4  and  C_22
REMARK    4  A    between atoms: C_5  and  O_14
REMARK    5  A    between atoms: N_6  and  C_8
REMARK    6  A    between atoms: O_14  and  C_15
REMARK    7  A    between atoms: C_18  and  C_21
REMARK    8  A    between atoms: C_22  and  N_23
REMARK    9  A    between atoms: N_23  and  C_24
REMARK   10  A    between atoms: N_23  and  C_33
REMARK   11  A    between atoms: C_24  and  C_25
REMARK   12  A    between atoms: C_25  and  C_27
REMARK   13  A    between atoms: C_25  and  O_32
REMARK   14  A    between atoms: C_27  and  O_28
REMARK   15  A    between atoms: O_28  and  C_29
REMARK   16  A    between atoms: C_29  and  C_30
REMARK   17  A    between atoms: C_29  and  C_31
REMARK   18  A    between atoms: C_33  and  C_34
REMARK   19  A    between atoms: C_33  and  C_35
REMARK                            x       y       z     vdW  Elec       q    Type
REMARK                         _______ _______ _______ _____ _____    ______ ____
ROOT
ATOM      1  C   UNL     1       0.111   1.501   0.600  0.00  0.00    +0.068 A 
ATOM      2  C   UNL     1       1.196   0.623   0.518  0.00  0.00    +0.021 A 
ATOM      3  C   UNL     1       1.030  -0.335   1.469  0.00  0.00    +0.225 A 
ATOM      4  N   UNL     1      -0.128  -0.061   2.127  0.00  0.00    -0.200 N 
ATOM      5  N   UNL     1      -0.677   1.097   1.564  0.00  0.00    -0.168 NA
ENDROOT
BRANCH   4   6
ATOM      6  C   UNL     1      -0.672  -0.803   3.185  0.00  0.00    +0.069 A 
ATOM      7  C   UNL     1      -0.667  -2.191   3.136  0.00  0.00    +0.028 A 
ATOM      8  C   UNL     1      -1.204  -2.919   4.180  0.00  0.00    +0.002 A 
ATOM      9  C   UNL     1      -1.746  -2.267   5.273  0.00  0.00    +0.000 A 
ATOM     10  C   UNL     1      -1.752  -0.886   5.324  0.00  0.00    +0.002 A 
ATOM     11  C   UNL     1      -1.211  -0.152   4.286  0.00  0.00    +0.028 A 
ENDBRANCH   4   6
BRANCH   1  13
ATOM     12  C   UNL     1       0.549   3.932   0.376  0.00  0.00    +0.010 C 
ATOM     13  C   UNL     1      -0.111   2.712  -0.270  0.00  0.00    +0.054 C 
ENDBRANCH   1  13
BRANCH   3  14
ATOM     14  O   UNL     1       1.868  -1.374   1.716  0.00  0.00    -0.438 OA
BRANCH  14  15
ATOM     15  C   UNL     1       1.718  -2.503   0.975  0.00  0.00    +0.130 A 
ATOM     16  C   UNL     1       0.684  -2.599   0.055  0.00  0.00    +0.046 A 
ATOM     17  C   UNL     1       0.535  -3.748  -0.697  0.00  0.00    +0.007 A 
ATOM     18  C   UNL     1       1.414  -4.803  -0.533  0.00  0.00    -0.050 A 
ATOM     19  C   UNL     1       2.445  -4.710   0.384  0.00  0.00    +0.007 A 
ATOM     20  C   UNL     1       2.603  -3.561   1.134  0.00  0.00    +0.046 A 
ATOM     21  C   UNL     1       1.247  -6.056  -1.353  0.00  0.00    +0.044 C 
ENDBRANCH  14  15
ENDBRANCH   3  14
BRANCH   2  22
ATOM     22  C   UNL     1       2.344   0.721  -0.453  0.00  0.00    -0.035 C 
BRANCH  22  23
ATOM     23  N   UNL     1       3.103   1.951  -0.191  0.00  0.00    +0.386 N 
ATOM     24  H   UNL     1       2.472   2.738  -0.171  0.00  0.00    -0.081 HD
BRANCH  23  25
ATOM     25  C   UNL     1       3.787   1.839   1.104  0.00  0.00    -0.074 C 
ATOM     26  C   UNL     1       2.750   1.836   2.229  0.00  0.00    -0.014 C 
ATOM     27  C   UNL     1       4.588   0.536   1.147  0.00  0.00    -0.014 C 
ENDBRANCH  23  25
BRANCH  23  28
ATOM     28  C   UNL     1       4.098   2.148  -1.254  0.00  0.00    -0.044 C 
BRANCH  28  29
ATOM     29  C   UNL     1       4.752   3.521  -1.092  0.00  0.00    +0.124 C 
BRANCH  29  30
ATOM     30  O   UNL     1       5.550   3.531   0.094  0.00  0.00    -0.391 OA
ATOM     31  H   UNL     1       6.308   2.931   0.063  0.00  0.00    +0.210 HD
ENDBRANCH  29  30
BRANCH  29  32
ATOM     32  C   UNL     1       5.638   3.810  -2.305  0.00  0.00    +0.189 C 
BRANCH  32  33
ATOM     33  O   UNL     1       6.158   5.138  -2.211  0.00  0.00    -0.375 OA
BRANCH  33  34
ATOM     34  C   UNL     1       7.003   5.511  -3.301  0.00  0.00    +0.112 C 
ATOM     35  C   UNL     1       6.158   6.143  -4.408  0.00  0.00    +0.037 C 
ATOM     36  C   UNL     1       8.046   6.520  -2.815  0.00  0.00    +0.037 C 
ENDBRANCH  33  34
ENDBRANCH  32  33
ENDBRANCH  29  32
ENDBRANCH  28  29
ENDBRANCH  23  28
ENDBRANCH  22  23
ENDBRANCH   2  22
TORSDOF 13
