REMARK  Name = ZINC17729653
REMARK  15 active torsions:
REMARK  status: ('A' for Active; 'I' for Inactive)
REMARK    1  A    between atoms: C_1  and  C_2
REMARK    2  A    between atoms: C_5  and  C_8
REMARK    3  A    between atoms: C_8  and  C_9
REMARK    4  A    between atoms: C_8  and  C_16
REMARK    5  A    between atoms: C_8  and  N_23
REMARK    6  A    between atoms: C_12  and  C_15
REMARK    7  A    between atoms: C_19  and  C_22
REMARK    8  A    between atoms: N_23  and  C_24
REMARK    9  A    between atoms: C_24  and  C_26
REMARK   10  A    between atoms: C_24  and  C_33
REMARK   11  A    between atoms: C_26  and  C_27
REMARK   12  A    between atoms: C_27  and  C_28
REMARK   13  A    between atoms: C_28  and  N_29
REMARK   14  A    between atoms: C_33  and  O_35
REMARK   15  A    between atoms: O_35  and  C_36
REMARK                            x       y       z     vdW  Elec       q    Type
REMARK                         _______ _______ _______ _____ _____    ______ ____
ROOT
ATOM      1  C   UNL     1      -0.767  -4.554  -0.308  0.00  0.00    +0.096 C 
ENDROOT
BRANCH   1   6
ATOM      2  C   UNL     1      -2.311   1.011  -0.529  0.00  0.00    +0.044 C 
ATOM      3  C   UNL     1      -1.909  -0.441  -0.472  0.00  0.00    -0.050 A 
ATOM      4  C   UNL     1      -2.797  -1.386   0.005  0.00  0.00    +0.004 A 
ATOM      5  C   UNL     1      -2.428  -2.717   0.058  0.00  0.00    +0.006 A 
ATOM      6  C   UNL     1      -1.170  -3.103  -0.366  0.00  0.00    -0.019 A 
ATOM      7  C   UNL     1      -0.282  -2.158  -0.844  0.00  0.00    +0.006 A 
ATOM      8  C   UNL     1      -0.653  -0.827  -0.901  0.00  0.00    +0.004 A 
ENDBRANCH   1   6
BRANCH   1   9
ATOM      9  C   UNL     1      -1.994  -5.421  -0.426  0.00  0.00    -0.019 A 
ATOM     10  C   UNL     1      -3.037  -5.035  -1.247  0.00  0.00    +0.006 A 
ATOM     11  C   UNL     1      -4.162  -5.831  -1.355  0.00  0.00    +0.004 A 
ATOM     12  C   UNL     1      -4.245  -7.012  -0.642  0.00  0.00    -0.050 A 
ATOM     13  C   UNL     1      -3.202  -7.398   0.179  0.00  0.00    +0.004 A 
ATOM     14  C   UNL     1      -2.075  -6.605   0.283  0.00  0.00    +0.006 A 
ATOM     15  C   UNL     1      -5.472  -7.879  -0.759  0.00  0.00    +0.044 C 
ENDBRANCH   1   9
BRANCH   1  16
ATOM     16  C   UNL     1       0.175  -4.860  -1.443  0.00  0.00    -0.019 A 
ATOM     17  C   UNL     1       1.448  -5.327  -1.178  0.00  0.00    +0.006 A 
ATOM     18  C   UNL     1       2.313  -5.607  -2.219  0.00  0.00    +0.004 A 
ATOM     19  C   UNL     1       1.904  -5.421  -3.526  0.00  0.00    -0.050 A 
ATOM     20  C   UNL     1       0.630  -4.955  -3.792  0.00  0.00    +0.004 A 
ATOM     21  C   UNL     1      -0.236  -4.678  -2.751  0.00  0.00    +0.006 A 
ATOM     22  C   UNL     1       2.846  -5.726  -4.662  0.00  0.00    +0.044 C 
ENDBRANCH   1  16
BRANCH   1  23
ATOM     23  N   UNL     1      -0.098  -4.824   0.971  0.00  0.00    -0.287 NA
ATOM     24  H   UNL     1       0.155  -5.798   1.048  0.00  0.00    +0.124 HD
BRANCH  23  25
ATOM     25  C   UNL     1      -0.936  -4.408   2.103  0.00  0.00    +0.165 C 
BRANCH  25  26
ATOM     26  C   UNL     1      -0.764  -2.929   2.338  0.00  0.00    +0.324 C 
ATOM     27  O   UNL     1       0.192  -2.351   1.877  0.00  0.00    -0.249 OA
BRANCH  26  28
ATOM     28  O   UNL     1      -1.672  -2.254   3.059  0.00  0.00    -0.467 OA
ATOM     29  C   UNL     1      -1.484  -0.843   3.183  0.00  0.00    +0.280 C 
ENDBRANCH  26  28
ENDBRANCH  25  26
BRANCH  25  30
ATOM     30  C   UNL     1      -0.516  -5.175   3.358  0.00  0.00    +0.032 C 
BRANCH  30  31
ATOM     31  C   UNL     1      -0.810  -6.665   3.167  0.00  0.00    +0.023 C 
BRANCH  31  32
ATOM     32  C   UNL     1      -0.499  -7.416   4.463  0.00  0.00    +0.115 C 
BRANCH  32  33
ATOM     33  N   UNL     1      -0.781  -8.842   4.281  0.00  0.00    -0.358 N 
ATOM     34  C   UNL     1      -0.577  -9.717   5.312  0.00  0.00    +0.166 C 
ATOM     35  N   UNL     1      -0.833 -11.014   5.146  0.00  0.00    -0.372 N 
ATOM     36  N   UNL     1      -0.122  -9.273   6.482  0.00  0.00    -0.372 N 
ATOM     37  H   UNL     1      -1.112  -9.166   3.428  0.00  0.00    +0.162 HD
ATOM     38  H   UNL     1      -1.164 -11.337   4.293  0.00  0.00    +0.159 HD
ATOM     39  H   UNL     1       0.064  -8.329   6.603  0.00  0.00    +0.159 HD
ATOM     40  H   UNL     1       0.023  -9.894   7.213  0.00  0.00    +0.159 HD
ATOM     41  H   UNL     1      -0.688 -11.634   5.877  0.00  0.00    +0.159 HD
ENDBRANCH  32  33
ENDBRANCH  31  32
ENDBRANCH  30  31
ENDBRANCH  25  30
ENDBRANCH  23  25
ENDBRANCH   1  23
TORSDOF 11
