REMARK  Name = ZINC02273596
REMARK  8 active torsions:
REMARK  status: ('A' for Active; 'I' for Inactive)
REMARK    1  A    between atoms: C_1  and  C_2
REMARK    2  A    between atoms: C_2  and  C_32
REMARK    3  A    between atoms: N_9  and  C_24
REMARK    4  A    between atoms: C_24  and  C_25
REMARK    5  A    between atoms: N_27  and  C_28
REMARK    6  A    between atoms: C_28  and  C_29
REMARK    7  A    between atoms: C_28  and  C_30
REMARK    8  A    between atoms: C_28  and  C_31
REMARK                            x       y       z     vdW  Elec       q    Type
REMARK                         _______ _______ _______ _____ _____    ______ ____
ROOT
ATOM      1  C   UNL     1      -0.762   3.842   3.036  0.00  0.00    +0.022 C 
ATOM      2  C   UNL     1       0.543   4.194   2.319  0.00  0.00    +0.053 C 
ATOM      3  C   UNL     1       0.900   5.639   2.539  0.00  0.00    -0.015 A 
ATOM      4  C   UNL     1       1.445   6.258   3.646  0.00  0.00    +0.006 A 
ATOM      5  C   UNL     1       1.680   7.625   3.555  0.00  0.00    +0.000 A 
ATOM      6  C   UNL     1       1.383   8.332   2.408  0.00  0.00    +0.002 A 
ATOM      7  C   UNL     1       0.834   7.720   1.292  0.00  0.00    +0.023 A 
ATOM      8  C   UNL     1       0.589   6.347   1.372  0.00  0.00    +0.037 A 
ATOM      9  N   UNL     1       0.046   5.508   0.407  0.00  0.00    -0.279 N 
ATOM     10  C   UNL     1       0.363   4.117   0.787  0.00  0.00    +0.208 C 
ATOM     11  C   UNL     1      -0.783   3.208   0.450  0.00  0.00    +0.042 C 
ATOM     12  C   UNL     1      -0.550   1.916   0.200  0.00  0.00    +0.013 C 
ATOM     13  C   UNL     1       0.844   1.439   0.268  0.00  0.00    +0.024 A 
ATOM     14  C   UNL     1       1.145   0.061   0.349  0.00  0.00    -0.007 A 
ATOM     15  C   UNL     1       0.135  -0.910   0.380  0.00  0.00    +0.009 A 
ATOM     16  C   UNL     1       0.467  -2.229   0.458  0.00  0.00    +0.001 A 
ATOM     17  C   UNL     1       1.800  -2.629   0.506  0.00  0.00    +0.001 A 
ATOM     18  C   UNL     1       2.807  -1.714   0.479  0.00  0.00    +0.008 A 
ATOM     19  C   UNL     1       2.502  -0.345   0.400  0.00  0.00    -0.017 A 
ATOM     20  C   UNL     1       3.519   0.626   0.374  0.00  0.00    +0.012 A 
ATOM     21  C   UNL     1       3.207   1.949   0.299  0.00  0.00    +0.047 A 
ATOM     22  C   UNL     1       1.879   2.371   0.246  0.00  0.00    +0.131 A 
ATOM     23  O   UNL     1       1.571   3.693   0.170  0.00  0.00    -0.463 OA
ATOM     24  C   UNL     1       1.680   3.278   2.778  0.00  0.00    +0.022 C 
ENDROOT
BRANCH   9  25
ATOM     25  C   UNL     1       0.578   5.824  -0.925  0.00  0.00    +0.204 C 
BRANCH  25  26
ATOM     26  C   UNL     1      -0.302   5.201  -1.978  0.00  0.00    +0.231 C 
ATOM     27  O   UNL     1      -1.339   4.659  -1.659  0.00  0.00    -0.274 OA
ATOM     28  N   UNL     1       0.063   5.247  -3.275  0.00  0.00    -0.309 N 
ATOM     29  H   UNL     1       0.892   5.681  -3.530  0.00  0.00    +0.149 HD
BRANCH  28  30
ATOM     30  C   UNL     1      -0.792   4.641  -4.298  0.00  0.00    +0.026 C 
ATOM     31  C   UNL     1      -2.167   5.313  -4.277  0.00  0.00    +0.031 C 
ATOM     32  C   UNL     1      -0.153   4.831  -5.675  0.00  0.00    +0.031 C 
ATOM     33  C   UNL     1      -0.951   3.147  -4.011  0.00  0.00    +0.031 C 
ENDBRANCH  28  30
ENDBRANCH  25  26
ENDBRANCH   9  25
TORSDOF 3
