REMARK  Name = ZINC61999427
REMARK  4 active torsions:
REMARK  status: ('A' for Active; 'I' for Inactive)
REMARK    1  A    between atoms: C_1  and  C_2
REMARK    2  A    between atoms: C_2  and  C_3
REMARK    3  A    between atoms: C_23  and  C_31
REMARK    4  A    between atoms: C_31  and  C_33
REMARK                            x       y       z     vdW  Elec       q    Type
REMARK                         _______ _______ _______ _____ _____    ______ ____
ROOT
ATOM      1  C   UNL     1       0.625  -0.689   1.157  0.00  0.00    -0.047 A 
ATOM      2  C   UNL     1       1.969  -1.005   1.076  0.00  0.00    +0.005 A 
ATOM      3  C   UNL     1       2.631  -1.519   2.171  0.00  0.00    +0.024 A 
ATOM      4  C   UNL     1       1.951  -1.724   3.369  0.00  0.00    +0.039 A 
ATOM      5  C   UNL     1       0.600  -1.403   3.439  0.00  0.00    +0.004 A 
ATOM      6  C   UNL     1      -0.057  -0.884   2.345  0.00  0.00    +0.011 A 
ATOM      7  C   UNL     1       0.165  -1.735   4.841  0.00  0.00    +0.145 C 
ATOM      8  C   UNL     1       1.408  -2.264   5.512  0.00  0.00    +0.244 C 
ATOM      9  O   UNL     1       1.502  -2.652   6.657  0.00  0.00    -0.273 OA
ATOM     10  N   UNL     1       2.393  -2.224   4.595  0.00  0.00    -0.283 N 
ATOM     11  C   UNL     1      -0.373  -0.506   5.564  0.00  0.00    +0.116 C 
ATOM     12  C   UNL     1       0.454  -0.152   6.767  0.00  0.00    -0.008 A 
ATOM     13  C   UNL     1       0.802  -0.835   7.912  0.00  0.00    +0.006 A 
ATOM     14  C   UNL     1       1.599  -0.226   8.866  0.00  0.00    +0.000 A 
ATOM     15  C   UNL     1       2.043   1.068   8.667  0.00  0.00    +0.002 A 
ATOM     16  C   UNL     1       1.697   1.756   7.522  0.00  0.00    +0.023 A 
ATOM     17  C   UNL     1       0.895   1.151   6.557  0.00  0.00    +0.038 A 
ATOM     18  N   UNL     1       0.417   1.631   5.336  0.00  0.00    -0.284 N 
ATOM     19  C   UNL     1      -0.335   0.719   4.691  0.00  0.00    +0.231 C 
ATOM     20  O   UNL     1      -0.877   0.858   3.614  0.00  0.00    -0.274 OA
ATOM     21  C   UNL     1      -1.817  -0.854   5.964  0.00  0.00    +0.102 C 
ATOM     22  C   UNL     1      -2.181  -2.000   4.990  0.00  0.00    +0.070 C 
ATOM     23  N   UNL     1      -0.900  -2.754   4.834  0.00  0.00    -0.281 NA
ATOM     24  C   UNL     1      -0.800  -3.584   6.059  0.00  0.00    +0.086 C 
ATOM     25  C   UNL     1      -2.244  -4.024   6.372  0.00  0.00    +0.017 C 
ATOM     26  C   UNL     1      -3.155  -2.966   5.687  0.00  0.00    +0.021 C 
ATOM     27  H   UNL     1       3.304  -2.509   4.767  0.00  0.00    +0.155 HD
ATOM     28  H   UNL     1       0.604   2.519   4.993  0.00  0.00    +0.155 HD
ENDROOT
BRANCH   1  30
ATOM     29  C   UNL     1       0.009   1.399  -0.030  0.00  0.00    +0.009 C 
ATOM     30  C   UNL     1      -0.094  -0.127  -0.043  0.00  0.00    +0.032 C 
ENDBRANCH   1  30
BRANCH  21  31
ATOM     31  C   UNL     1      -1.875  -1.326   7.394  0.00  0.00    +0.204 C 
ATOM     32  O   UNL     1      -1.751  -2.507   7.649  0.00  0.00    -0.288 OA
BRANCH  31  33
ATOM     33  C   UNL     1      -2.072  -0.395   8.439  0.00  0.00    +0.170 A 
ATOM     34  C   UNL     1      -2.140  -0.686   9.787  0.00  0.00    +0.053 A 
ATOM     35  C   UNL     1      -2.344   0.532  10.448  0.00  0.00    +0.042 A 
ATOM     36  C   UNL     1      -2.393   1.498   9.502  0.00  0.00    +0.196 A 
ATOM     37  O   UNL     1      -2.224   0.939   8.297  0.00  0.00    -0.460 OA
ENDBRANCH  31  33
ENDBRANCH  21  31
TORSDOF 3
