REMARK  Name = ZINC05758007
REMARK  12 active torsions:
REMARK  status: ('A' for Active; 'I' for Inactive)
REMARK    1  A    between atoms: C_4  and  C_7
REMARK    2  A    between atoms: C_7  and  C_8
REMARK    3  A    between atoms: C_8  and  C_10
REMARK    4  A    between atoms: C_8  and  N_56
REMARK    5  A    between atoms: N_12  and  N_13
REMARK    6  A    between atoms: C_14  and  C_16
REMARK    7  A    between atoms: C_16  and  N_17
REMARK    8  A    between atoms: C_18  and  C_20
REMARK    9  A    between atoms: C_20  and  N_21
REMARK   10  A    between atoms: C_22  and  O_24
REMARK   11  A    between atoms: O_24  and  C_25
REMARK   12  A    between atoms: C_25  and  C_26
REMARK                            x       y       z     vdW  Elec       q    Type
REMARK                         _______ _______ _______ _____ _____    ______ ____
ROOT
ATOM      1  N   UNL     1       0.180  -7.737   7.710  0.00  0.00    -0.233 N 
ATOM      2  C   UNL     1       0.162  -7.215   6.468  0.00  0.00    +0.246 C 
ATOM      3  O   UNL     1       0.162  -7.948   5.502  0.00  0.00    -0.273 OA
ATOM      4  H   UNL     1       0.180  -7.150   8.483  0.00  0.00    +0.173 HD
ENDROOT
BRANCH   1   7
ATOM      5  C   UNL     1       0.220  -9.648   9.129  0.00  0.00    +0.215 C 
ATOM      6  O   UNL     1       0.219  -8.915  10.095  0.00  0.00    -0.276 OA
ATOM      7  N   UNL     1       0.201  -9.126   7.886  0.00  0.00    -0.236 N 
ATOM      8  H   UNL     1       0.202  -9.713   7.114  0.00  0.00    +0.173 HD
BRANCH   5   9
ATOM      9  C   UNL     1       0.242 -11.143   9.318  0.00  0.00    +0.019 C 
BRANCH   9  12
ATOM     10  H   UNL     1       1.689 -11.158  10.782  0.00  0.00    -0.089 HD
ATOM     11  H   UNL     1       0.138 -11.052  11.372  0.00  0.00    -0.089 HD
ATOM     12  N   UNL     1       0.731 -11.484  10.666  0.00  0.00    +0.386 N 
ATOM     13  H   UNL     1       0.707 -12.504  10.786  0.00  0.00    -0.089 HD
ENDBRANCH   9  12
BRANCH   9  14
ATOM     14  C   UNL     1      -1.173 -11.700   9.147  0.00  0.00    +0.028 C 
BRANCH  14  18
ATOM     15  C   UNL     1      -1.058 -15.966   9.337  0.00  0.00    +0.000 A 
ATOM     16  C   UNL     1      -1.238 -15.227  10.492  0.00  0.00    +0.000 A 
ATOM     17  C   UNL     1      -1.276 -13.847  10.430  0.00  0.00    +0.003 A 
ATOM     18  C   UNL     1      -1.132 -13.205   9.214  0.00  0.00    -0.048 A 
ATOM     19  C   UNL     1      -0.957 -13.944   8.059  0.00  0.00    +0.003 A 
ATOM     20  C   UNL     1      -0.914 -15.324   8.121  0.00  0.00    +0.000 A 
ENDBRANCH  14  18
ENDBRANCH   9  14
ENDBRANCH   5   9
ENDBRANCH   1   7
BRANCH   2  21
ATOM     21  C   UNL     1       0.139  -5.720   6.279  0.00  0.00    +0.201 C 
BRANCH  21  22
ATOM     22  N   UNL     1       0.122  -5.409   4.847  0.00  0.00    -0.305 N 
ATOM     23  C   UNL     1       0.100  -4.126   4.436  0.00  0.00    +0.231 C 
ATOM     24  O   UNL     1       0.096  -3.228   5.252  0.00  0.00    -0.274 OA
ATOM     25  H   UNL     1       0.125  -6.127   4.195  0.00  0.00    +0.149 HD
BRANCH  23  26
ATOM     26  C   UNL     1       0.082  -3.806   2.964  0.00  0.00    +0.203 C 
BRANCH  26  27
ATOM     27  N   UNL     1       0.060  -2.353   2.780  0.00  0.00    -0.273 N 
ATOM     28  C   UNL     1       0.042  -1.831   1.537  0.00  0.00    +0.401 C 
ATOM     29  O   UNL     1       0.042  -2.566   0.570  0.00  0.00    -0.226 OA
ATOM     30  H   UNL     1       0.060  -1.766   3.552  0.00  0.00    +0.153 HD
BRANCH  28  31
ATOM     31  O   UNL     1       0.022  -0.495   1.368  0.00  0.00    -0.446 OA
BRANCH  31  32
ATOM     32  C   UNL     1       0.002  -0.004   0.002  0.00  0.00    +0.269 C 
BRANCH  32  33
ATOM     33  C   UNL     1      -0.018   1.503   0.010  0.00  0.00    -0.010 A 
ATOM     34  C   UNL     1      -1.225   2.178   0.020  0.00  0.00    +0.007 A 
ATOM     35  C   UNL     1      -1.244   3.560   0.032  0.00  0.00    +0.000 A 
ATOM     36  C   UNL     1      -0.056   4.267   0.025  0.00  0.00    +0.000 A 
ATOM     37  C   UNL     1       1.151   3.592   0.010  0.00  0.00    +0.000 A 
ATOM     38  C   UNL     1       1.169   2.210   0.003  0.00  0.00    +0.007 A 
ENDBRANCH  32  33
ENDBRANCH  31  32
ENDBRANCH  28  31
ENDBRANCH  26  27
ENDBRANCH  23  26
ENDBRANCH  21  22
ENDBRANCH   2  21
TORSDOF 12
