REMARK  Name = ZINC39636014
REMARK  7 active torsions:
REMARK  status: ('A' for Active; 'I' for Inactive)
REMARK    1  A    between atoms: C_1  and  C_2
REMARK    2  A    between atoms: C_8  and  N_10
REMARK    3  A    between atoms: C_11  and  C_13
REMARK    4  A    between atoms: C_24  and  C_26
REMARK    5  A    between atoms: C_29  and  O_36
REMARK    6  A    between atoms: C_30  and  C_32
REMARK    7  A    between atoms: O_36  and  C_37
REMARK                            x       y       z     vdW  Elec       q    Type
REMARK                         _______ _______ _______ _____ _____    ______ ____
ROOT
ATOM      1  C   UNL     1       0.430   0.974   4.523  0.00  0.00    +0.100 C 
ATOM      2  C   UNL     1      -0.273   2.350   4.522  0.00  0.00    +0.121 C 
ATOM      3  N   UNL     1      -0.069   2.875   5.893  0.00  0.00    -0.296 N 
ATOM      4  C   UNL     1       1.318   2.481   6.236  0.00  0.00    +0.115 C 
ATOM      5  C   UNL     1       1.474   1.064   5.649  0.00  0.00    -0.004 C 
ATOM      6  C   UNL     1       1.189   0.015   6.720  0.00  0.00    -0.010 C 
ATOM      7  C   UNL     1       2.272   0.087   7.799  0.00  0.00    -0.082 C 
ATOM      8  N   UNL     1       3.587  -0.149   7.192  0.00  0.00    +0.379 N 
ATOM      9  C   UNL     1       3.894   0.916   6.230  0.00  0.00    -0.082 C 
ATOM     10  C   UNL     1       2.879   0.879   5.084  0.00  0.00    -0.010 C 
ATOM     11  C   UNL     1      -0.947   3.557   6.655  0.00  0.00    +0.247 C 
ATOM     12  O   UNL     1      -2.092   3.710   6.275  0.00  0.00    -0.270 OA
ATOM     13  H   UNL     1       4.293  -0.162   7.914  0.00  0.00    -0.086 HD
ATOM     14  H   UNL     1       3.582  -1.039   6.716  0.00  0.00    -0.086 HD
ENDROOT
BRANCH  11  15
ATOM     15  C   UNL     1      -0.518   4.119   7.951  0.00  0.00    +0.038 A 
ATOM     16  C   UNL     1       0.837   4.356   8.198  0.00  0.00    +0.016 A 
ATOM     17  C   UNL     1       1.232   4.880   9.408  0.00  0.00    +0.047 A 
ATOM     18  C   UNL     1       0.286   5.174  10.383  0.00  0.00    +0.132 A 
ATOM     19  C   UNL     1      -1.062   4.940  10.141  0.00  0.00    +0.097 A 
ATOM     20  C   UNL     1      -1.467   4.421   8.931  0.00  0.00    +0.029 A 
BRANCH  19  21
ATOM     21  C   UNL     1      -2.084   5.261  11.202  0.00  0.00    +0.421 C 
ATOM     22  F   UNL     1      -3.361   4.942  10.730  0.00  0.00    -0.166 F 
ATOM     23  F   UNL     1      -1.812   4.513  12.352  0.00  0.00    -0.166 F 
ATOM     24  F   UNL     1      -2.026   6.625  11.508  0.00  0.00    -0.166 F 
ENDBRANCH  19  21
BRANCH  18  25
ATOM     25  O   UNL     1       0.680   5.691  11.575  0.00  0.00    -0.495 OA
ATOM     26  C   UNL     1       2.081   5.906  11.757  0.00  0.00    +0.277 C 
ENDBRANCH  18  25
ENDBRANCH  11  15
BRANCH   1  28
ATOM     27  N   UNL     1       1.229  -0.527   2.727  0.00  0.00    -0.312 N 
ATOM     28  C   UNL     1       1.107   0.729   3.199  0.00  0.00    +0.218 C 
ATOM     29  O   UNL     1       1.541   1.663   2.558  0.00  0.00    -0.275 OA
ATOM     30  H   UNL     1       0.881  -1.274   3.239  0.00  0.00    +0.149 HD
BRANCH  27  37
ATOM     31  C   UNL     1      -0.136  -1.990   0.632  0.00  0.00    +0.009 C 
ATOM     32  C   UNL     1       1.377  -2.078   0.841  0.00  0.00    +0.006 C 
ATOM     33  C   UNL     1       1.694  -3.230   1.796  0.00  0.00    +0.005 C 
ATOM     34  C   UNL     1       3.207  -3.318   2.005  0.00  0.00    +0.000 C 
ATOM     35  C   UNL     1       3.717  -2.005   2.603  0.00  0.00    +0.002 C 
ATOM     36  C   UNL     1       3.400  -0.853   1.648  0.00  0.00    +0.022 C 
ATOM     37  C   UNL     1       1.886  -0.765   1.439  0.00  0.00    +0.076 C 
ENDBRANCH  27  37
ENDBRANCH   1  28
TORSDOF 5
