REMARK  Name = ZINC08861286
REMARK  8 active torsions:
REMARK  status: ('A' for Active; 'I' for Inactive)
REMARK    1  A    between atoms: C_1  and  C_2
REMARK    2  A    between atoms: C_7  and  N_8
REMARK    3  A    between atoms: C_11  and  C_16
REMARK    4  A    between atoms: C_16  and  S_17
REMARK    5  A    between atoms: S_17  and  C_18
REMARK    6  A    between atoms: C_21  and  C_26
REMARK    7  A    between atoms: N_22  and  C_23
REMARK    8  A    between atoms: C_23  and  C_24
REMARK                            x       y       z     vdW  Elec       q    Type
REMARK                         _______ _______ _______ _____ _____    ______ ____
ROOT
ATOM      1  C   UNL     1       0.120  -2.953  -0.014  0.00  0.00    +0.153 C 
ENDROOT
BRANCH   1   5
ATOM      2  N   UNL     1       0.764  -7.106   2.303  0.00  0.00    -0.283 N 
ATOM      3  C   UNL     1       0.653  -6.418   1.110  0.00  0.00    +0.224 A 
ATOM      4  N   UNL     1       0.453  -5.102   1.115  0.00  0.00    -0.198 NA
ATOM      5  C   UNL     1       0.347  -4.443  -0.025  0.00  0.00    +0.146 A 
ATOM      6  N   UNL     1       0.436  -5.088  -1.175  0.00  0.00    -0.199 NA
ATOM      7  C   UNL     1       0.641  -6.403  -1.189  0.00  0.00    +0.217 A 
ATOM      8  N   UNL     1       0.748  -7.069  -0.044  0.00  0.00    -0.181 NA
ATOM      9  N   UNL     1       0.739  -7.074  -2.391  0.00  0.00    -0.327 N 
ATOM     10  H   UNL     1       0.780  -6.620   3.143  0.00  0.00    +0.155 HD
ATOM     11  H   UNL     1       0.884  -8.033  -2.400  0.00  0.00    +0.145 HD
ATOM     12  H   UNL     1       0.661  -6.588  -3.226  0.00  0.00    +0.145 HD
BRANCH   2  19
ATOM     13  C   UNL     1       2.015  -8.378   4.519  0.00  0.00    +0.045 C 
ATOM     14  C   UNL     1       1.454  -9.163   3.361  0.00  0.00    -0.029 A 
ATOM     15  C   UNL     1       1.538 -10.542   3.355  0.00  0.00    +0.005 A 
ATOM     16  C   UNL     1       1.023 -11.263   2.294  0.00  0.00    +0.000 A 
ATOM     17  C   UNL     1       0.422 -10.607   1.235  0.00  0.00    +0.002 A 
ATOM     18  C   UNL     1       0.330  -9.229   1.237  0.00  0.00    +0.023 A 
ATOM     19  C   UNL     1       0.851  -8.501   2.300  0.00  0.00    +0.036 A 
ENDBRANCH   2  19
ENDBRANCH   1   5
BRANCH   1  20
ATOM     20  S   UNL     1       1.715  -2.099  -0.017  0.00  0.00    -0.078 S 
BRANCH  20  21
ATOM     21  C   UNL     1       1.166  -0.425  -0.003  0.00  0.00    +0.192 A 
ATOM     22  N   UNL     1      -0.080  -0.012   0.005  0.00  0.00    -0.122 NA
ATOM     23  N   UNL     1      -0.115   1.272   0.014  0.00  0.00    -0.129 NA
ATOM     24  C   UNL     1       1.097   1.752   0.011  0.00  0.00    +0.179 A 
ATOM     25  N   UNL     1       1.956   0.689   0.000  0.00  0.00    -0.299 N 
BRANCH  24  26
ATOM     26  C   UNL     1       1.480   3.210   0.018  0.00  0.00    +0.278 C 
ATOM     27  C   UNL     1       1.228   3.804   1.410  0.00  0.00    +0.281 C 
ATOM     28  O   UNL     1       1.589   5.190   1.378  0.00  0.00    -0.484 OA
ATOM     29  C   UNL     1       1.139   5.914   0.318  0.00  0.00    +0.162 A 
ATOM     30  C   UNL     1       1.135   7.299   0.392  0.00  0.00    +0.049 A 
ATOM     31  C   UNL     1       0.683   8.049  -0.677  0.00  0.00    +0.004 A 
ATOM     32  C   UNL     1       0.234   7.421  -1.824  0.00  0.00    +0.004 A 
ATOM     33  C   UNL     1       0.235   6.041  -1.905  0.00  0.00    +0.049 A 
ATOM     34  C   UNL     1       0.685   5.283  -0.834  0.00  0.00    +0.163 A 
ATOM     35  O   UNL     1       0.676   3.925  -0.927  0.00  0.00    -0.474 OA
ENDBRANCH  24  26
BRANCH  25  36
ATOM     36  C   UNL     1       3.420   0.735  -0.007  0.00  0.00    +0.152 C 
BRANCH  36  37
ATOM     37  C   UNL     1       3.915   0.759  -1.430  0.00  0.00    -0.013 C 
ATOM     38  C   UNL     1       4.715   1.716  -1.829  0.00  0.00    +0.005 C 
ENDBRANCH  36  37
ENDBRANCH  25  36
ENDBRANCH  20  21
ENDBRANCH   1  20
TORSDOF 7
