REMARK  Name = ZINC17092752
REMARK  15 active torsions:
REMARK  status: ('A' for Active; 'I' for Inactive)
REMARK    1  A    between atoms: C_1  and  C_2
REMARK    2  A    between atoms: C_2  and  O_3
REMARK    3  A    between atoms: O_3  and  C_4
REMARK    4  A    between atoms: C_4  and  C_6
REMARK    5  A    between atoms: C_7  and  C_28
REMARK    6  A    between atoms: C_8  and  C_25
REMARK    7  A    between atoms: C_10  and  N_11
REMARK    8  A    between atoms: C_12  and  C_14
REMARK    9  A    between atoms: C_14  and  N_56
REMARK   10  A    between atoms: C_15  and  N_56
REMARK   11  A    between atoms: C_16  and  C_17
REMARK   12  A    between atoms: C_16  and  N_56
REMARK   13  A    between atoms: C_18  and  C_24
REMARK   14  A    between atoms: N_20  and  C_23
REMARK   15  A    between atoms: C_21  and  C_22
REMARK                            x       y       z     vdW  Elec       q    Type
REMARK                         _______ _______ _______ _____ _____    ______ ____
ROOT
ATOM      1  N   UNL     1       2.276  -5.498  -3.193  0.00  0.00    -0.281 N 
ATOM      2  C   UNL     1       2.084  -4.197  -2.898  0.00  0.00    +0.201 C 
ATOM      3  O   UNL     1       1.832  -3.406  -3.782  0.00  0.00    -0.278 OA
ATOM      4  H   UNL     1       2.478  -6.131  -2.486  0.00  0.00    +0.155 HD
ENDROOT
BRANCH   1   9
ATOM      5  C   UNL     1       2.349  -7.225  -5.005  0.00  0.00    +0.091 A 
ATOM      6  C   UNL     1       2.206  -7.408  -6.373  0.00  0.00    -0.015 A 
ATOM      7  C   UNL     1       1.914  -6.309  -7.134  0.00  0.00    +0.079 A 
ATOM      8  S   UNL     1       1.832  -5.003  -5.923  0.00  0.00    -0.068 S 
ATOM      9  C   UNL     1       2.185  -5.930  -4.502  0.00  0.00    +0.087 A 
ATOM     10  C   UNL     1       2.367  -8.769  -6.998  0.00  0.00    +0.046 C 
BRANCH   7  11
ATOM     11  C   UNL     1       1.714  -6.227  -8.582  0.00  0.00    +0.248 C 
ATOM     12  O   UNL     1       1.802  -7.229  -9.267  0.00  0.00    -0.270 OA
ATOM     13  N   UNL     1       1.431  -5.041  -9.157  0.00  0.00    -0.325 N 
ATOM     14  H   UNL     1       1.360  -4.242  -8.612  0.00  0.00    +0.145 HD
ATOM     15  H   UNL     1       1.298  -4.987 -10.117  0.00  0.00    +0.145 HD
ENDBRANCH   7  11
BRANCH   5  16
ATOM     16  C   UNL     1       2.662  -8.350  -4.118  0.00  0.00    +0.342 C 
ATOM     17  O   UNL     1       1.763  -8.999  -3.618  0.00  0.00    -0.245 OA
BRANCH  16  18
ATOM     18  O   UNL     1       3.946  -8.666  -3.857  0.00  0.00    -0.461 OA
BRANCH  18  20
ATOM     19  C   UNL     1       5.688  -9.996  -2.793  0.00  0.00    +0.048 C 
ATOM     20  C   UNL     1       4.182  -9.791  -2.970  0.00  0.00    +0.229 C 
ENDBRANCH  18  20
ENDBRANCH  16  18
ENDBRANCH   5  16
ENDBRANCH   1   9
BRANCH   2  21
ATOM     21  C   UNL     1       2.183  -3.725  -1.470  0.00  0.00    +0.019 C 
BRANCH  21  23
ATOM     22  C   UNL     1       2.999  -1.535  -2.102  0.00  0.00    -0.095 C 
ATOM     23  N   UNL     1       1.911  -2.273  -1.427  0.00  0.00    +0.386 N 
ATOM     24  H   UNL     1       1.028  -2.085  -1.916  0.00  0.00    -0.081 HD
BRANCH  23  25
ATOM     25  C   UNL     1       1.789  -1.823  -0.025  0.00  0.00    -0.039 C 
BRANCH  25  26
ATOM     26  C   UNL     1       1.296  -0.399  -0.013  0.00  0.00    -0.021 A 
ATOM     27  C   UNL     1       2.096   0.748  -0.014  0.00  0.00    +0.062 A 
ATOM     28  N   UNL     1       1.311   1.794  -0.001  0.00  0.00    -0.176 NA
ATOM     29  N   UNL     1      -0.016   1.345   0.009  0.00  0.00    -0.271 N 
ATOM     30  C   UNL     1       0.002  -0.004   0.002  0.00  0.00    +0.037 A 
ATOM     31  C   UNL     1      -1.203  -0.909   0.009  0.00  0.00    +0.065 C 
ATOM     32  C   UNL     1      -1.212   2.191   0.020  0.00  0.00    +0.172 C 
ATOM     33  C   UNL     1       3.603   0.775  -0.028  0.00  0.00    +0.068 C 
ENDBRANCH  25  26
ENDBRANCH  23  25
ENDBRANCH  21  23
ENDBRANCH   2  21
TORSDOF 9
