REMARK  Name = ZINC08964471
REMARK  10 active torsions:
REMARK  status: ('A' for Active; 'I' for Inactive)
REMARK    1  A    between atoms: C_1  and  C_2
REMARK    2  A    between atoms: C_13  and  O_15
REMARK    3  A    between atoms: O_15  and  C_16
REMARK    4  A    between atoms: C_16  and  C_18
REMARK    5  A    between atoms: C_18  and  C_19
REMARK    6  A    between atoms: C_19  and  C_20
REMARK    7  A    between atoms: N_22  and  C_23
REMARK    8  A    between atoms: C_23  and  C_24
REMARK    9  A    between atoms: C_24  and  C_25
REMARK   10  A    between atoms: C_43  and  C_44
REMARK                            x       y       z     vdW  Elec       q    Type
REMARK                         _______ _______ _______ _____ _____    ______ ____
ROOT
ATOM      1  O   UNL     1      -0.451   1.391   3.713  0.00  0.00    -0.461 OA
ENDROOT
BRANCH   1  11
ATOM      2  C   UNL     1      -1.609   1.911   6.008  0.00  0.00    +0.015 C 
ATOM      3  C   UNL     1      -0.621   0.746   6.066  0.00  0.00    +0.008 C 
ATOM      4  C   UNL     1      -1.380  -0.551   6.200  0.00  0.00    +0.011 C 
ATOM      5  C   UNL     1      -2.114  -0.545   7.558  0.00  0.00    +0.005 C 
ATOM      6  C   UNL     1      -1.132  -0.389   8.702  0.00  0.00    +0.002 C 
ATOM      7  C   UNL     1      -0.228   0.830   8.579  0.00  0.00    -0.003 C 
ATOM      8  C   UNL     1       0.404   0.862   7.212  0.00  0.00    +0.002 C 
ATOM      9  C   UNL     1       1.151   2.142   6.807  0.00  0.00    +0.008 C 
ATOM     10  C   UNL     1       1.380   1.899   5.285  0.00  0.00    +0.045 C 
ATOM     11  C   UNL     1       0.299   0.877   4.841  0.00  0.00    +0.183 C 
ATOM     12  C   UNL     1      -0.834   2.154   8.989  0.00  0.00    +0.008 C 
ATOM     13  C   UNL     1      -2.183   1.989   9.684  0.00  0.00    +0.032 C 
ATOM     14  C   UNL     1      -2.044   0.841  10.653  0.00  0.00    -0.060 C 
ATOM     15  C   UNL     1      -2.130   1.034  11.962  0.00  0.00    +0.046 C 
ATOM     16  C   UNL     1      -1.907  -0.065  12.900  0.00  0.00    +0.156 C 
ATOM     17  O   UNL     1      -2.127   0.100  14.083  0.00  0.00    -0.293 OA
ATOM     18  C   UNL     1      -1.411  -1.400  12.409  0.00  0.00    +0.080 C 
ATOM     19  C   UNL     1      -0.793  -1.257  11.018  0.00  0.00    +0.019 C 
ATOM     20  C   UNL     1      -1.760  -0.526  10.080  0.00  0.00    -0.007 C 
ATOM     21  C   UNL     1      -3.072  -1.311  10.011  0.00  0.00    +0.016 C 
ENDBRANCH   1  11
BRANCH   1  22
ATOM     22  C   UNL     1       0.000   1.080   2.488  0.00  0.00    +0.308 C 
ATOM     23  O   UNL     1       0.991   0.399   2.364  0.00  0.00    -0.251 OA
BRANCH  22  24
ATOM     24  C   UNL     1      -0.729   1.579   1.267  0.00  0.00    +0.130 C 
BRANCH  24  25
ATOM     25  C   UNL     1      -0.013   1.086   0.008  0.00  0.00    +0.107 C 
BRANCH  25  26
ATOM     26  C   UNL     1      -0.742   1.585  -1.213  0.00  0.00    +0.214 C 
ATOM     27  O   UNL     1      -1.736   2.268  -1.088  0.00  0.00    -0.276 OA
ATOM     28  N   UNL     1      -0.288   1.272  -2.443  0.00  0.00    -0.315 N 
ATOM     29  H   UNL     1       0.507   0.726  -2.543  0.00  0.00    +0.149 HD
BRANCH  28  30
ATOM     30  C   UNL     1      -0.997   1.758  -3.630  0.00  0.00    +0.109 C 
BRANCH  30  31
ATOM     31  C   UNL     1      -0.281   1.264  -4.889  0.00  0.00    +0.056 C 
BRANCH  31  32
ATOM     32  C   UNL     1      -1.010   1.763  -6.110  0.00  0.00    -0.021 A 
ATOM     33  C   UNL     1      -1.938   1.096  -6.814  0.00  0.00    +0.087 A 
ATOM     34  N   UNL     1      -2.378   1.869  -7.854  0.00  0.00    -0.360 N 
ATOM     35  H   UNL     1      -3.050   1.601  -8.501  0.00  0.00    +0.165 HD
ATOM     36  C   UNL     1      -1.721   3.079  -7.850  0.00  0.00    +0.047 A 
ATOM     37  C   UNL     1      -0.836   3.066  -6.757  0.00  0.00    +0.003 A 
ATOM     38  C   UNL     1      -0.029   4.176  -6.501  0.00  0.00    +0.010 A 
ATOM     39  C   UNL     1      -0.104   5.271  -7.315  0.00  0.00    +0.001 A 
ATOM     40  C   UNL     1      -0.976   5.289  -8.395  0.00  0.00    +0.002 A 
ATOM     41  C   UNL     1      -1.781   4.204  -8.665  0.00  0.00    +0.026 A 
ENDBRANCH  31  32
ENDBRANCH  30  31
ENDBRANCH  28  30
ENDBRANCH  25  26
ENDBRANCH  24  25
ENDBRANCH  22  24
ENDBRANCH   1  22
TORSDOF 8
