REMARK  Name = ZINC23979948
REMARK  11 active torsions:
REMARK  status: ('A' for Active; 'I' for Inactive)
REMARK    1  A    between atoms: C_1  and  C_2
REMARK    2  A    between atoms: C_5  and  N_9
REMARK    3  A    between atoms: C_7  and  C_8
REMARK    4  A    between atoms: N_9  and  S_10
REMARK    5  A    between atoms: S_10  and  C_13
REMARK    6  A    between atoms: C_16  and  N_19
REMARK    7  A    between atoms: C_20  and  C_22
REMARK    8  A    between atoms: C_23  and  C_32
REMARK    9  A    between atoms: C_24  and  C_29
REMARK   10  A    between atoms: C_25  and  C_28
REMARK   11  A    between atoms: C_29  and  C_31
REMARK                            x       y       z     vdW  Elec       q    Type
REMARK                         _______ _______ _______ _____ _____    ______ ____
ROOT
ATOM      1  C   UNL     1       1.645   2.621   0.074  0.00  0.00    +0.109 A 
ATOM      2  C   UNL     1       2.261   3.096   1.218  0.00  0.00    +0.030 A 
ATOM      3  C   UNL     1       3.440   3.810   1.124  0.00  0.00    +0.025 A 
ATOM      4  C   UNL     1       4.002   4.059  -0.122  0.00  0.00    +0.034 A 
ATOM      5  C   UNL     1       3.378   3.584  -1.269  0.00  0.00    +0.025 A 
ATOM      6  C   UNL     1       2.202   2.867  -1.168  0.00  0.00    +0.030 A 
ENDROOT
BRANCH   4   7
ATOM      7  N   UNL     1       5.192   4.785  -0.221  0.00  0.00    -0.280 N 
ATOM      8  C   UNL     1       6.129   4.677   0.742  0.00  0.00    +0.265 C 
ATOM      9  O   UNL     1       5.981   3.879   1.648  0.00  0.00    -0.268 OA
ATOM     10  H   UNL     1       5.365   5.443  -1.085  0.00  0.00    +0.155 HD
BRANCH   8  11
ATOM     11  C   UNL     1       7.328   5.524   0.698  0.00  0.00    +0.106 A 
ATOM     12  C   UNL     1       8.342   5.518   1.608  0.00  0.00    -0.010 A 
ATOM     13  C   UNL     1       9.287   6.481   1.181  0.00  0.00    +0.041 A 
ATOM     14  C   UNL     1       8.792   7.044   0.015  0.00  0.00    +0.024 A 
ATOM     15  N   UNL     1       7.616   6.464  -0.268  0.00  0.00    -0.354 N 
ATOM     16  H   UNL     1       6.916   6.630  -1.100  0.00  0.00    +0.166 HD
ATOM     17  C   UNL     1       9.460   8.124  -0.797  0.00  0.00    +0.064 C 
ATOM     18  C   UNL     1       8.440   4.648   2.835  0.00  0.00    +0.047 C 
BRANCH  13  19
ATOM     19  C   UNL     1      10.547   6.823   1.847  0.00  0.00    +0.162 C 
ATOM     20  O   UNL     1      10.557   7.637   2.747  0.00  0.00    -0.292 OA
ATOM     21  C   UNL     1      11.831   6.162   1.415  0.00  0.00    +0.091 C 
ENDBRANCH  13  19
ENDBRANCH   8  11
ENDBRANCH   4   7
BRANCH   1  22
ATOM     22  S   UNL     1       0.145   1.705   0.199  0.00  0.00    +0.072 S 
ATOM     23  O   UNL     1      -0.470   1.758  -1.081  0.00  0.00    -0.150 OA
ATOM     24  O   UNL     1      -0.508   2.155   1.378  0.00  0.00    -0.150 OA
BRANCH  22  25
ATOM     25  N   UNL     1       0.558   0.123   0.460  0.00  0.00    -0.216 N 
ATOM     26  H   UNL     1       0.323  -0.639  -0.297  0.00  0.00    +0.174 HD
BRANCH  25  31
ATOM     27  C   UNL     1       3.183  -1.368   5.261  0.00  0.00    +0.044 C 
ATOM     28  C   UNL     1       2.486  -0.971   3.985  0.00  0.00    -0.047 A 
ATOM     29  C   UNL     1       3.197  -0.909   2.800  0.00  0.00    +0.005 A 
ATOM     30  C   UNL     1       2.559  -0.552   1.629  0.00  0.00    +0.025 A 
ATOM     31  C   UNL     1       1.205  -0.244   1.643  0.00  0.00    +0.048 A 
ATOM     32  C   UNL     1       0.494  -0.307   2.834  0.00  0.00    +0.028 A 
ATOM     33  C   UNL     1       1.136  -0.671   4.001  0.00  0.00    -0.046 A 
ATOM     34  C   UNL     1       0.366  -0.740   5.295  0.00  0.00    +0.044 C 
ENDBRANCH  25  31
ENDBRANCH  22  25
ENDBRANCH   1  22
TORSDOF 6
