REMARK  Name = ZINC63230239
REMARK  10 active torsions:
REMARK  status: ('A' for Active; 'I' for Inactive)
REMARK    1  A    between atoms: C_1  and  O_2
REMARK    2  A    between atoms: O_2  and  C_3
REMARK    3  A    between atoms: C_6  and  C_9
REMARK    4  A    between atoms: C_9  and  N_10
REMARK    5  A    between atoms: N_10  and  C_11
REMARK    6  A    between atoms: C_11  and  N_13
REMARK    7  A    between atoms: N_13  and  C_14
REMARK    8  A    between atoms: C_14  and  C_15
REMARK    9  A    between atoms: C_15  and  C_17
REMARK   10  A    between atoms: C_15  and  C_24
REMARK                            x       y       z     vdW  Elec       q    Type
REMARK                         _______ _______ _______ _____ _____    ______ ____
ROOT
ATOM      1  C   UNL     1      -8.502  -4.461  -4.619  0.00  0.00    +0.066 C 
ENDROOT
BRANCH   1   2
ATOM      2  C   UNL     1      -9.868  -5.039  -4.886  0.00  0.00    -0.033 C 
ATOM      3  C   UNL     1     -10.876  -4.458  -5.575  0.00  0.00    -0.000 A 
ATOM      4  C   UNL     1     -10.998  -3.163  -6.256  0.00  0.00    +0.010 A 
ATOM      5  C   UNL     1     -12.161  -2.855  -6.874  0.00  0.00    +0.001 A 
ATOM      6  C   UNL     1     -13.250  -3.738  -6.880  0.00  0.00    +0.002 A 
ATOM      7  C   UNL     1     -13.213  -4.945  -6.277  0.00  0.00    +0.026 A 
ATOM      8  C   UNL     1     -12.040  -5.373  -5.597  0.00  0.00    +0.043 A 
ATOM      9  N   UNL     1     -11.761  -6.476  -4.946  0.00  0.00    -0.380 N 
ATOM     10  C   UNL     1     -10.386  -6.389  -4.442  0.00  0.00    +0.145 C 
ATOM     11  H   UNL     1     -12.363  -7.227  -4.821  0.00  0.00    +0.160 HD
ENDBRANCH   1   2
BRANCH   1  12
ATOM     12  C   UNL     1      -7.450  -5.359  -5.217  0.00  0.00    -0.020 A 
ATOM     13  C   UNL     1      -7.348  -6.674  -4.803  0.00  0.00    +0.006 A 
ATOM     14  C   UNL     1      -6.383  -7.499  -5.352  0.00  0.00    +0.000 A 
ATOM     15  C   UNL     1      -5.521  -7.008  -6.315  0.00  0.00    +0.001 A 
ATOM     16  C   UNL     1      -5.622  -5.694  -6.729  0.00  0.00    +0.020 A 
ATOM     17  C   UNL     1      -6.591  -4.870  -6.184  0.00  0.00    +0.045 A 
ATOM     18 CL   UNL     1      -6.723  -3.220  -6.709  0.00  0.00    -0.083 Cl
ENDBRANCH   1  12
BRANCH   1  19
ATOM     19  C   UNL     1      -8.280  -4.351  -3.109  0.00  0.00    +0.115 C 
BRANCH  19  20
ATOM     20  N   UNL     1      -7.004  -3.680  -2.850  0.00  0.00    -0.326 N 
ATOM     21  H   UNL     1      -6.452  -3.386  -3.591  0.00  0.00    +0.148 HD
BRANCH  20  22
ATOM     22  C   UNL     1      -6.597  -3.473  -1.582  0.00  0.00    +0.131 C 
ATOM     23  S   UNL     1      -7.572  -3.993  -0.274  0.00  0.00    -0.019 S 
BRANCH  22  24
ATOM     24  N   UNL     1      -5.423  -2.855  -1.343  0.00  0.00    -0.322 N 
ATOM     25  H   UNL     1      -4.871  -2.561  -2.084  0.00  0.00    +0.148 HD
BRANCH  24  26
ATOM     26  C   UNL     1      -4.981  -2.629   0.035  0.00  0.00    +0.138 C 
BRANCH  26  30
ATOM     27  C   UNL     1      -1.200  -0.637   0.010  0.00  0.00    +0.120 A 
ATOM     28  C   UNL     1      -2.375   0.101   0.019  0.00  0.00    +0.046 A 
ATOM     29  C   UNL     1      -3.596  -0.545   0.027  0.00  0.00    +0.009 A 
ATOM     30  C   UNL     1      -3.648  -1.927   0.026  0.00  0.00    -0.030 A 
ATOM     31  C   UNL     1      -2.479  -2.665   0.017  0.00  0.00    +0.009 A 
ATOM     32  C   UNL     1      -1.255  -2.024   0.003  0.00  0.00    +0.046 A 
BRANCH  27  34
ATOM     33  C   UNL     1      -0.017   1.425   0.010  0.00  0.00    +0.277 C 
ATOM     34  O   UNL     1       0.002  -0.004   0.002  0.00  0.00    -0.495 OA
ENDBRANCH  27  34
ENDBRANCH  26  30
ENDBRANCH  24  26
ENDBRANCH  22  24
ENDBRANCH  20  22
ENDBRANCH  19  20
ENDBRANCH   1  19
TORSDOF 9
