REMARK  Name = ZINC64182197
REMARK  3 active torsions:
REMARK  status: ('A' for Active; 'I' for Inactive)
REMARK    1  A    between atoms: N_12  and  C_15
REMARK    2  A    between atoms: C_15  and  C_16
REMARK    3  A    between atoms: C_21  and  C_24
REMARK                            x       y       z     vdW  Elec       q    Type
REMARK                         _______ _______ _______ _____ _____    ______ ____
ROOT
ATOM      1  C   UNL     1       3.450  -6.126   1.635  0.00  0.00    +0.233 C 
ATOM      2  O   UNL     1       3.046  -5.429   2.542  0.00  0.00    -0.274 OA
ATOM      3  N   UNL     1       4.029  -7.313   1.904  0.00  0.00    -0.296 N 
ATOM      4  C   UNL     1       4.178  -7.795   3.288  0.00  0.00    +0.113 C 
ATOM      5  C   UNL     1       3.365  -9.085   3.430  0.00  0.00    +0.054 C 
ATOM      6  C   UNL     1       3.621  -9.996   2.266  0.00  0.00    -0.043 C 
ATOM      7  C   UNL     1       4.132  -9.599   1.107  0.00  0.00    -0.004 C 
ATOM      8  C   UNL     1       4.529  -8.179   0.827  0.00  0.00    +0.135 C 
ENDROOT
BRANCH   6   9
ATOM      9  C   UNL     1       3.299 -11.360   2.413  0.00  0.00    -0.016 C 
ATOM     10  C   UNL     1       2.654 -11.960   3.487  0.00  0.00    +0.003 A 
ATOM     11  C   UNL     1       2.142 -11.447   4.702  0.00  0.00    +0.010 A 
ATOM     12  C   UNL     1       1.548 -12.284   5.587  0.00  0.00    +0.001 A 
ATOM     13  C   UNL     1       1.425 -13.654   5.333  0.00  0.00    +0.002 A 
ATOM     14  C   UNL     1       1.891 -14.215   4.192  0.00  0.00    +0.026 A 
ATOM     15  C   UNL     1       2.526 -13.403   3.215  0.00  0.00    +0.043 A 
ATOM     16  N   UNL     1       3.054 -13.699   2.047  0.00  0.00    -0.380 N 
ATOM     17  C   UNL     1       3.578 -12.476   1.430  0.00  0.00    +0.149 C 
ATOM     18  H   UNL     1       3.088 -14.585   1.654  0.00  0.00    +0.160 HD
ENDBRANCH   6   9
BRANCH   1  19
ATOM     19  C   UNL     1       3.306  -5.663   0.208  0.00  0.00    +0.205 C 
BRANCH  19  31
ATOM     20  C   UNL     1      -0.097   1.509   1.201  0.00  0.00    +0.001 A 
ATOM     21  C   UNL     1       1.084   2.209   1.004  0.00  0.00    +0.004 A 
ATOM     22  C   UNL     1       2.259   1.541   0.736  0.00  0.00    +0.047 A 
ATOM     23  C   UNL     1       2.268   0.153   0.662  0.00  0.00    +0.138 A 
ATOM     24  C   UNL     1       1.065  -0.554   0.864  0.00  0.00    +0.042 A 
ATOM     25  C   UNL     1      -0.113   0.145   1.133  0.00  0.00    +0.013 A 
ATOM     26  C   UNL     1       1.416  -1.957   0.720  0.00  0.00    +0.087 A 
ATOM     27  C   UNL     1       2.768  -1.998   0.446  0.00  0.00    +0.211 A 
ATOM     28  O   UNL     1       3.249  -0.746   0.422  0.00  0.00    -0.448 OA
ATOM     29  C   UNL     1       3.419  -3.242   0.237  0.00  0.00    +0.285 C 
ATOM     30  O   UNL     1       4.628  -3.307   0.112  0.00  0.00    -0.266 OA
ATOM     31  N   UNL     1       2.651  -4.353   0.183  0.00  0.00    -0.270 N 
ATOM     32  C   UNL     1       1.193  -4.298   0.101  0.00  0.00    +0.214 C 
ATOM     33  N   UNL     1       0.670  -3.120   0.814  0.00  0.00    -0.325 N 
ATOM     34  H   UNL     1      -0.155  -3.157   1.323  0.00  0.00    +0.148 HD
ENDBRANCH  19  31
ENDBRANCH   1  19
TORSDOF 3
