REMARK  Name = ZINC43548265
REMARK  8 active torsions:
REMARK  status: ('A' for Active; 'I' for Inactive)
REMARK    1  A    between atoms: C_1  and  C_2
REMARK    2  A    between atoms: N_9  and  C_10
REMARK    3  A    between atoms: C_10  and  C_11
REMARK    4  A    between atoms: C_14  and  C_35
REMARK    5  A    between atoms: C_17  and  O_34
REMARK    6  A    between atoms: C_19  and  C_23
REMARK    7  A    between atoms: C_23  and  C_25
REMARK    8  A    between atoms: C_23  and  C_26
REMARK                            x       y       z     vdW  Elec       q    Type
REMARK                         _______ _______ _______ _____ _____    ______ ____
ROOT
ATOM      1  C   UNL     1      -0.590   1.361  -0.129  0.00  0.00    +0.014 C 
ATOM      2  C   UNL     1      -0.544  -0.166  -0.032  0.00  0.00    +0.039 C 
ATOM      3  C   UNL     1      -1.887  -0.685   0.460  0.00  0.00    +0.031 A 
ATOM      4  C   UNL     1      -2.044  -1.066   1.753  0.00  0.00    +0.013 A 
ATOM      5  S   UNL     1      -3.740  -1.573   1.801  0.00  0.00    -0.059 S 
ATOM      6  C   UNL     1      -4.109  -1.262   0.187  0.00  0.00    +0.137 A 
ATOM      7  N   UNL     1      -2.975  -0.806  -0.297  0.00  0.00    -0.340 N 
ATOM      8  N   UNL     1      -5.316  -1.443  -0.472  0.00  0.00    -0.321 N 
ATOM      9  C   UNL     1      -1.024  -1.052   2.838  0.00  0.00    +0.051 C 
ATOM     10  C   UNL     1       0.168  -0.188   2.386  0.00  0.00    -0.022 C 
ATOM     11  C   UNL     1       0.546  -0.581   0.952  0.00  0.00    +0.033 C 
ATOM     12  C   UNL     1       0.781  -2.090   0.889  0.00  0.00    +0.123 C 
ATOM     13  C   UNL     1       1.946  -2.453   1.815  0.00  0.00    +0.029 C 
ATOM     14  C   UNL     1       1.621  -2.026   3.247  0.00  0.00    +0.007 C 
ATOM     15  C   UNL     1       1.359  -0.517   3.298  0.00  0.00    +0.008 C 
ATOM     16  C   UNL     1      -0.183   1.298   2.474  0.00  0.00    +0.012 C 
ATOM     17  H   UNL     1      -5.392  -1.222  -1.413  0.00  0.00    +0.148 HD
ATOM     18  H   UNL     1      -2.929  -0.550  -1.231  0.00  0.00    +0.167 HD
ENDROOT
BRANCH  13  19
ATOM     19  C   UNL     1       2.175  -3.965   1.776  0.00  0.00    +0.078 C 
ATOM     20  C   UNL     1       0.952  -4.681   2.354  0.00  0.00    +0.017 C 
BRANCH  19  21
ATOM     21  C   UNL     1       3.393  -4.310   2.593  0.00  0.00    +0.219 C 
ATOM     22  O   UNL     1       3.269  -4.656   3.749  0.00  0.00    -0.275 OA
ATOM     23  N   UNL     1       4.619  -4.234   2.040  0.00  0.00    -0.300 N 
ATOM     24  C   UNL     1       4.769  -3.702   0.685  0.00  0.00    +0.118 C 
ATOM     25  C   UNL     1       5.555  -2.386   0.738  0.00  0.00    +0.088 C 
ATOM     26  S   UNL     1       7.158  -2.697   1.537  0.00  0.00    -0.158 S 
ATOM     27  C   UNL     1       6.691  -3.487   3.107  0.00  0.00    +0.088 C 
ATOM     28  C   UNL     1       5.786  -4.681   2.804  0.00  0.00    +0.118 C 
ENDBRANCH  19  21
ENDBRANCH  13  19
BRANCH  12  29
ATOM     29  O   UNL     1       1.099  -2.469  -0.452  0.00  0.00    -0.391 OA
ATOM     30  H   UNL     1       1.182  -3.424  -0.581  0.00  0.00    +0.210 HD
ENDBRANCH  12  29
BRANCH   8  31
ATOM     31  C   UNL     1      -6.474  -1.969   0.254  0.00  0.00    +0.130 C 
BRANCH  31  32
ATOM     32  C   UNL     1      -7.651  -2.070  -0.683  0.00  0.00    -0.016 C 
ATOM     33  C   UNL     1      -8.275  -3.212  -0.830  0.00  0.00    +0.005 C 
ENDBRANCH  31  32
ENDBRANCH   8  31
TORSDOF 5
