REMARK  Name = ZINC12136588
REMARK  8 active torsions:
REMARK  status: ('A' for Active; 'I' for Inactive)
REMARK    1  A    between atoms: C_1  and  C_2
REMARK    2  A    between atoms: C_8  and  N_10
REMARK    3  A    between atoms: C_14  and  C_16
REMARK    4  A    between atoms: C_16  and  S_17
REMARK    5  A    between atoms: S_17  and  C_18
REMARK    6  A    between atoms: C_21  and  C_30
REMARK    7  A    between atoms: N_22  and  C_23
REMARK    8  A    between atoms: C_30  and  N_67
REMARK                            x       y       z     vdW  Elec       q    Type
REMARK                         _______ _______ _______ _____ _____    ______ ____
ROOT
ATOM      1  C   UNL     1       0.002  -0.004   0.002  0.00  0.00    +0.197 A 
ATOM      2  N   UNL     1      -0.016   1.309   0.009  0.00  0.00    -0.122 NA
ATOM      3  N   UNL     1       1.186   1.763   0.000  0.00  0.00    -0.135 NA
ATOM      4  C   UNL     1       2.038   0.777  -0.013  0.00  0.00    +0.122 A 
ATOM      5  N   UNL     1       1.315  -0.386  -0.013  0.00  0.00    -0.276 N 
ENDROOT
BRANCH   5   6
ATOM      6  C   UNL     1       1.817  -1.697  -0.025  0.00  0.00    +0.050 A 
ATOM      7  C   UNL     1       2.555  -2.168   1.052  0.00  0.00    +0.029 A 
ATOM      8  C   UNL     1       3.044  -3.460   1.040  0.00  0.00    +0.040 A 
ATOM      9  C   UNL     1       2.808  -4.281  -0.049  0.00  0.00    +0.124 A 
ATOM     10  C   UNL     1       2.076  -3.810  -1.127  0.00  0.00    +0.040 A 
ATOM     11  C   UNL     1       1.581  -2.521  -1.116  0.00  0.00    +0.029 A 
ATOM     12  F   UNL     1       3.291  -5.542  -0.061  0.00  0.00    -0.205 F 
ENDBRANCH   5   6
BRANCH   1  13
ATOM     13  S   UNL     1      -1.400  -1.071   0.010  0.00  0.00    -0.076 S 
BRANCH  13  14
ATOM     14  C   UNL     1      -2.730   0.157   0.029  0.00  0.00    +0.173 C 
BRANCH  14  19
ATOM     15  N   UNL     1      -7.535   0.261   0.076  0.00  0.00    -0.296 N 
ATOM     16  C   UNL     1      -6.395  -0.457   0.061  0.00  0.00    +0.306 C 
ATOM     17  O   UNL     1      -6.442  -1.672   0.056  0.00  0.00    -0.252 OA
ATOM     18  N   UNL     1      -5.203   0.172   0.053  0.00  0.00    -0.239 N 
ATOM     19  C   UNL     1      -4.062  -0.546   0.038  0.00  0.00    +0.231 C 
ATOM     20  O   UNL     1      -4.109  -1.758   0.033  0.00  0.00    -0.274 OA
ATOM     21  H   UNL     1      -7.498   1.230   0.081  0.00  0.00    +0.151 HD
ATOM     22  H   UNL     1      -5.166   1.141   0.058  0.00  0.00    +0.159 HD
BRANCH  15  29
ATOM     23  C   UNL     1      -9.520   0.855  -1.948  0.00  0.00    +0.009 C 
ATOM     24  C   UNL     1      -9.898   0.499  -0.510  0.00  0.00    +0.006 C 
ATOM     25  C   UNL     1     -11.251  -0.215  -0.500  0.00  0.00    +0.005 C 
ATOM     26  C   UNL     1     -11.630  -0.571   0.939  0.00  0.00    +0.000 C 
ATOM     27  C   UNL     1     -10.563  -1.493   1.534  0.00  0.00    +0.002 C 
ATOM     28  C   UNL     1      -9.210  -0.779   1.524  0.00  0.00    +0.022 C 
ATOM     29  C   UNL     1      -8.831  -0.423   0.085  0.00  0.00    +0.077 C 
ENDBRANCH  15  29
ENDBRANCH  14  19
ENDBRANCH  13  14
ENDBRANCH   1  13
BRANCH   4  30
ATOM     30  C   UNL     1       3.541   0.895  -0.028  0.00  0.00    -0.001 C 
BRANCH  30  36
ATOM     31  C   UNL     1       3.752  -0.329  -2.106  0.00  0.00    -0.078 C 
ATOM     32  C   UNL     1       4.125  -0.197  -3.584  0.00  0.00    -0.019 C 
ATOM     33  C   UNL     1       5.606   0.172  -3.701  0.00  0.00    -0.004 C 
ATOM     34  C   UNL     1       5.862   1.473  -2.935  0.00  0.00    -0.019 C 
ATOM     35  C   UNL     1       5.440   1.292  -1.476  0.00  0.00    -0.078 C 
ATOM     36  N   UNL     1       3.999   0.963  -1.431  0.00  0.00    +0.384 N 
ATOM     37  H   UNL     1       3.474   1.698  -1.918  0.00  0.00    -0.081 HD
ENDBRANCH  30  36
ENDBRANCH   4  30
TORSDOF 7
