REMARK  Name = ZINC29973863
REMARK  10 active torsions:
REMARK  status: ('A' for Active; 'I' for Inactive)
REMARK    1  A    between atoms: C_1  and  C_2
REMARK    2  A    between atoms: C_2  and  C_3
REMARK    3  A    between atoms: C_3  and  N_4
REMARK    4  A    between atoms: N_4  and  C_5
REMARK    5  A    between atoms: N_4  and  C_21
REMARK    6  A    between atoms: C_5  and  C_6
REMARK    7  A    between atoms: C_9  and  C_11
REMARK    8  A    between atoms: N_13  and  C_14
REMARK    9  A    between atoms: C_21  and  C_22
REMARK   10  A    between atoms: N_24  and  C_25
REMARK                            x       y       z     vdW  Elec       q    Type
REMARK                         _______ _______ _______ _____ _____    ______ ____
ROOT
ATOM      1  N   UNL     1      -4.810   1.139  -0.270  0.00  0.00    +0.389 N 
ATOM      2  H   UNL     1      -4.575   0.441  -1.086  0.00  0.00    -0.081 HD
ENDROOT
BRANCH   1   3
ATOM      3  C   UNL     1      -4.945   0.358   0.967  0.00  0.00    -0.078 C 
BRANCH   3   5
ATOM      4  C   UNL     1      -5.365   0.498   3.426  0.00  0.00    +0.002 C 
ATOM      5  C   UNL     1      -5.346   1.287   2.115  0.00  0.00    -0.022 C 
ENDBRANCH   3   5
ENDBRANCH   1   3
BRANCH   1   6
ATOM      6  C   UNL     1      -6.069   1.817  -0.604  0.00  0.00    -0.012 C 
BRANCH   6   7
ATOM      7  C   UNL     1      -7.082   0.799  -1.060  0.00  0.00    +0.086 A 
ATOM      8  N   UNL     1      -8.024   0.182  -0.367  0.00  0.00    -0.148 NA
ATOM      9  N   UNL     1      -8.805  -0.655  -0.897  0.00  0.00    -0.137 NA
ATOM     10  C   UNL     1      -8.700  -0.945  -2.191  0.00  0.00    +0.187 A 
ATOM     11  S   UNL     1      -7.336   0.122  -2.641  0.00  0.00    -0.048 S 
BRANCH  10  12
ATOM     12  C   UNL     1      -9.486  -1.874  -3.020  0.00  0.00    +0.275 C 
ATOM     13  O   UNL     1      -9.231  -2.000  -4.202  0.00  0.00    -0.268 OA
ATOM     14  N   UNL     1     -10.489  -2.586  -2.467  0.00  0.00    -0.280 N 
ATOM     15  H   UNL     1     -10.776  -2.410  -1.420  0.00  0.00    +0.155 HD
BRANCH  14  16
ATOM     16  C   UNL     1     -11.164  -3.549  -3.226  0.00  0.00    +0.034 A 
ATOM     17  C   UNL     1     -12.521  -3.764  -3.027  0.00  0.00    +0.026 A 
ATOM     18  C   UNL     1     -13.187  -4.712  -3.780  0.00  0.00    +0.040 A 
ATOM     19  C   UNL     1     -12.499  -5.454  -4.726  0.00  0.00    +0.124 A 
ATOM     20  C   UNL     1     -11.144  -5.244  -4.922  0.00  0.00    +0.040 A 
ATOM     21  C   UNL     1     -10.476  -4.294  -4.175  0.00  0.00    +0.026 A 
ATOM     22  F   UNL     1     -13.151  -6.383  -5.458  0.00  0.00    -0.205 F 
ENDBRANCH  14  16
ENDBRANCH  10  12
ENDBRANCH   6   7
ENDBRANCH   1   6
BRANCH   1  23
ATOM     23  C   UNL     1      -3.705   2.102  -0.166  0.00  0.00    +0.019 C 
BRANCH  23  24
ATOM     24  C   UNL     1      -2.398   1.358  -0.068  0.00  0.00    +0.201 C 
ATOM     25  O   UNL     1      -2.388   0.145  -0.082  0.00  0.00    -0.278 OA
ATOM     26  N   UNL     1      -1.240   2.040   0.036  0.00  0.00    -0.286 N 
ATOM     27  H   UNL     1      -1.254   3.135   0.141  0.00  0.00    +0.155 HD
BRANCH  26  28
ATOM     28  C   UNL     1      -0.019   1.355   0.011  0.00  0.00    +0.052 A 
ATOM     29  C   UNL     1       0.071   0.117  -0.612  0.00  0.00    +0.026 A 
ATOM     30  C   UNL     1       1.278  -0.554  -0.641  0.00  0.00    +0.022 A 
ATOM     31  C   UNL     1       2.397   0.006  -0.050  0.00  0.00    +0.042 A 
ATOM     32  C   UNL     1       2.311   1.239   0.572  0.00  0.00    +0.041 A 
ATOM     33  C   UNL     1       1.105   1.915   0.604  0.00  0.00    +0.064 A 
ATOM     34 CL   UNL     1       0.997   3.462   1.385  0.00  0.00    -0.082 Cl
ATOM     35 CL   UNL     1       3.912  -0.841  -0.088  0.00  0.00    -0.083 Cl
ENDBRANCH  26  28
ENDBRANCH  23  24
ENDBRANCH   1  23
TORSDOF 9
