REMARK  Name = ZINC02763162
REMARK  3 active torsions:
REMARK  status: ('A' for Active; 'I' for Inactive)
REMARK    1  A    between atoms: C_1  and  N_2
REMARK    2  A    between atoms: C_3  and  C_8
REMARK    3  A    between atoms: N_10  and  C_11
REMARK                            x       y       z     vdW  Elec       q    Type
REMARK                         _______ _______ _______ _____ _____    ______ ____
ROOT
ATOM      1  C   UNL     1       1.144   1.650  -0.001  0.00  0.00    +0.263 C 
ATOM      2  O   UNL     1       1.125   2.864  -0.075  0.00  0.00    -0.268 OA
ATOM      3  N   UNL     1      -0.012   0.957  -0.006  0.00  0.00    -0.307 N 
ATOM      4  H   UNL     1       0.004  -0.013  -0.023  0.00  0.00    +0.149 HD
ENDROOT
BRANCH   3   5
ATOM      5  C   UNL     1      -1.293   1.668   0.008  0.00  0.00    +0.073 C 
ATOM      6  C   UNL     1      -1.676   2.001   1.451  0.00  0.00    +0.022 C 
ATOM      7  C   UNL     1      -2.775   3.065   1.455  0.00  0.00    +0.002 C 
ATOM      8  C   UNL     1      -2.433   4.156   0.438  0.00  0.00    +0.000 C 
ATOM      9  C   UNL     1      -3.446   4.120  -0.708  0.00  0.00    +0.000 C 
ATOM     10  C   UNL     1      -3.131   2.939  -1.629  0.00  0.00    +0.000 C 
ATOM     11  C   UNL     1      -3.593   1.639  -0.967  0.00  0.00    +0.002 C 
ATOM     12  C   UNL     1      -2.374   0.784  -0.616  0.00  0.00    +0.022 C 
ENDBRANCH   3   5
BRANCH   1  15
ATOM     13  C   UNL     1       2.454   0.555   2.579  0.00  0.00    +0.173 C 
ATOM     14  N   UNL     1       3.014   0.452   1.229  0.00  0.00    -0.261 N 
ATOM     15  C   UNL     1       2.428   0.939   0.095  0.00  0.00    +0.136 A 
ATOM     16  C   UNL     1       3.282   0.622  -0.948  0.00  0.00    +0.063 A 
ATOM     17  C   UNL     1       4.359  -0.043  -0.355  0.00  0.00    +0.149 A 
ATOM     18  N   UNL     1       4.130  -0.110   0.931  0.00  0.00    -0.178 NA
ATOM     19  I   UNL     1       3.020   1.053  -2.981  0.00  0.00    -0.040 I 
ENDBRANCH   1  15
TORSDOF 2
