REMARK  Name = ZINC39920614
REMARK  6 active torsions:
REMARK  status: ('A' for Active; 'I' for Inactive)
REMARK    1  A    between atoms: C_4  and  O_7
REMARK    2  A    between atoms: O_7  and  C_8
REMARK    3  A    between atoms: C_8  and  C_9
REMARK    4  A    between atoms: N_11  and  N_12
REMARK    5  A    between atoms: C_13  and  C_25
REMARK    6  A    between atoms: C_28  and  O_31
REMARK                            x       y       z     vdW  Elec       q    Type
REMARK                         _______ _______ _______ _____ _____    ______ ____
ROOT
ATOM      1  N   UNL     1       6.430  -4.465  -0.086  0.00  0.00    -0.191 N 
ATOM      2  C   UNL     1       6.965  -5.025  -1.328  0.00  0.00    +0.212 C 
ATOM      3  N   UNL     1       8.419  -4.827  -1.390  0.00  0.00    -0.320 N 
ATOM      4  C   UNL     1       9.174  -5.088  -0.252  0.00  0.00    +0.041 A 
ATOM      5  C   UNL     1      10.488  -5.518  -0.327  0.00  0.00    +0.025 A 
ATOM      6  C   UNL     1      11.193  -5.767   0.835  0.00  0.00    +0.017 A 
ATOM      7  C   UNL     1      10.595  -5.590   2.074  0.00  0.00    +0.019 A 
ATOM      8  C   UNL     1       9.287  -5.161   2.166  0.00  0.00    +0.030 A 
ATOM      9  C   UNL     1       8.565  -4.905   1.003  0.00  0.00    +0.060 A 
ATOM     10  C   UNL     1       7.170  -4.433   1.042  0.00  0.00    +0.267 C 
ATOM     11  O   UNL     1       6.689  -4.022   2.080  0.00  0.00    -0.268 OA
ATOM     12 BR   UNL     1      11.581  -5.940   3.650  0.00  0.00    -0.050 Br
ATOM     13  H   UNL     1       8.843  -4.521  -2.207  0.00  0.00    +0.148 HD
ENDROOT
BRANCH   2  14
ATOM     14  C   UNL     1       6.663  -6.500  -1.381  0.00  0.00    -0.008 A 
ATOM     15  C   UNL     1       5.528  -6.995  -0.766  0.00  0.00    +0.011 A 
ATOM     16  C   UNL     1       5.249  -8.347  -0.814  0.00  0.00    +0.046 A 
ATOM     17  C   UNL     1       6.109  -9.209  -1.479  0.00  0.00    +0.117 A 
ATOM     18  C   UNL     1       7.247  -8.710  -2.095  0.00  0.00    +0.046 A 
ATOM     19  C   UNL     1       7.519  -7.356  -2.050  0.00  0.00    +0.011 A 
BRANCH  17  20
ATOM     20  O   UNL     1       5.836 -10.539  -1.527  0.00  0.00    -0.507 OA
ATOM     21  H   UNL     1       5.301 -10.804  -2.287  0.00  0.00    +0.292 HD
ENDBRANCH  17  20
ENDBRANCH   2  14
BRANCH   1  24
ATOM     22  C   UNL     1       4.932  -2.615  -0.061  0.00  0.00    +0.267 C 
ATOM     23  O   UNL     1       5.883  -1.863  -0.067  0.00  0.00    -0.271 OA
ATOM     24  N   UNL     1       5.128  -3.949  -0.070  0.00  0.00    -0.227 N 
ATOM     25  H   UNL     1       4.368  -4.551  -0.066  0.00  0.00    +0.173 HD
BRANCH  22  26
ATOM     26  C   UNL     1       3.531  -2.060  -0.044  0.00  0.00    +0.326 C 
BRANCH  26  27
ATOM     27  O   UNL     1       3.586  -0.632  -0.037  0.00  0.00    -0.483 OA
BRANCH  27  31
ATOM     28  C   UNL     1      -0.017   1.378   0.010  0.00  0.00    +0.000 A 
ATOM     29  C   UNL     1       1.170   2.088   0.002  0.00  0.00    +0.004 A 
ATOM     30  C   UNL     1       2.377   1.417  -0.013  0.00  0.00    +0.045 A 
ATOM     31  C   UNL     1       2.399   0.030  -0.021  0.00  0.00    +0.121 A 
ATOM     32  C   UNL     1       1.207  -0.680  -0.013  0.00  0.00    +0.045 A 
ATOM     33  C   UNL     1       0.002  -0.004   0.002  0.00  0.00    +0.004 A 
ENDBRANCH  27  31
ENDBRANCH  26  27
ENDBRANCH  22  26
ENDBRANCH   1  24
TORSDOF 6
