REMARK  Name = ZINC36303556
REMARK  17 active torsions:
REMARK  status: ('A' for Active; 'I' for Inactive)
REMARK    1  A    between atoms: C_1  and  C_2
REMARK    2  A    between atoms: C_3  and  C_21
REMARK    3  A    between atoms: C_4  and  O_13
REMARK    4  A    between atoms: N_5  and  C_7
REMARK    5  A    between atoms: O_13  and  C_14
REMARK    6  A    between atoms: C_21  and  N_22
REMARK    7  A    between atoms: N_22  and  C_23
REMARK    8  A    between atoms: N_22  and  C_30
REMARK    9  A    between atoms: C_23  and  C_24
REMARK   10  A    between atoms: C_30  and  C_31
REMARK   11  A    between atoms: C_31  and  C_33
REMARK   12  A    between atoms: C_31  and  O_39
REMARK   13  A    between atoms: C_33  and  O_34
REMARK   14  A    between atoms: O_34  and  C_35
REMARK   15  A    between atoms: C_35  and  C_36
REMARK   16  A    between atoms: C_35  and  C_37
REMARK   17  A    between atoms: C_35  and  C_38
REMARK                            x       y       z     vdW  Elec       q    Type
REMARK                         _______ _______ _______ _____ _____    ______ ____
ROOT
ATOM      1  C   UNL     1      -0.405  -3.282  -1.219  0.00  0.00    +0.068 C 
ATOM      2  C   UNL     1      -1.275  -2.539  -2.200  0.00  0.00    +0.065 A 
ATOM      3  C   UNL     1      -1.162  -1.186  -2.532  0.00  0.00    +0.021 A 
ATOM      4  C   UNL     1      -2.125  -0.899  -3.448  0.00  0.00    +0.225 A 
ATOM      5  N   UNL     1      -2.821  -2.044  -3.682  0.00  0.00    -0.200 N 
ATOM      6  N   UNL     1      -2.262  -3.054  -2.889  0.00  0.00    -0.168 NA
ENDROOT
BRANCH   5   7
ATOM      7  C   UNL     1      -3.902  -2.188  -4.562  0.00  0.00    +0.069 A 
ATOM      8  C   UNL     1      -4.897  -1.221  -4.606  0.00  0.00    +0.028 A 
ATOM      9  C   UNL     1      -5.961  -1.365  -5.475  0.00  0.00    +0.002 A 
ATOM     10  C   UNL     1      -6.035  -2.472  -6.301  0.00  0.00    +0.000 A 
ATOM     11  C   UNL     1      -5.046  -3.437  -6.259  0.00  0.00    +0.002 A 
ATOM     12  C   UNL     1      -3.977  -3.295  -5.396  0.00  0.00    +0.028 A 
ENDBRANCH   5   7
BRANCH   4  13
ATOM     13  O   UNL     1      -2.350   0.309  -4.024  0.00  0.00    -0.436 OA
BRANCH  13  14
ATOM     14  C   UNL     1      -3.156   1.187  -3.370  0.00  0.00    +0.149 A 
ATOM     15  C   UNL     1      -3.632   0.883  -2.103  0.00  0.00    +0.048 A 
ATOM     16  C   UNL     1      -4.450   1.777  -1.440  0.00  0.00    +0.004 A 
ATOM     17  C   UNL     1      -4.796   2.974  -2.038  0.00  0.00    +0.002 A 
ATOM     18  C   UNL     1      -4.324   3.281  -3.301  0.00  0.00    +0.024 A 
ATOM     19  C   UNL     1      -3.500   2.393  -3.966  0.00  0.00    +0.083 A 
ATOM     20 CL   UNL     1      -2.901   2.781  -5.549  0.00  0.00    -0.080 Cl
ENDBRANCH  13  14
ENDBRANCH   4  13
BRANCH   3  21
ATOM     21  C   UNL     1      -0.152  -0.217  -1.973  0.00  0.00    -0.036 C 
BRANCH  21  22
ATOM     22  N   UNL     1       1.096  -0.313  -2.741  0.00  0.00    +0.386 N 
ATOM     23  H   UNL     1       1.415  -1.270  -2.746  0.00  0.00    -0.081 HD
BRANCH  22  24
ATOM     24  C   UNL     1       2.119   0.541  -2.123  0.00  0.00    -0.046 C 
BRANCH  24  25
ATOM     25  C   UNL     1       1.562   1.955  -1.945  0.00  0.00    +0.102 C 
ATOM     26  C   UNL     1       2.569   2.834  -1.160  0.00  0.00    +0.032 C 
ATOM     27  C   UNL     1       2.162   4.252  -1.645  0.00  0.00    +0.030 C 
ATOM     28  C   UNL     1       1.739   3.990  -3.106  0.00  0.00    +0.160 C 
ATOM     29  O   UNL     1       1.416   2.598  -3.221  0.00  0.00    -0.378 OA
ENDBRANCH  24  25
ENDBRANCH  22  24
BRANCH  22  30
ATOM     30  C   UNL     1       0.857   0.130  -4.121  0.00  0.00    -0.044 C 
BRANCH  30  31
ATOM     31  C   UNL     1       2.094  -0.161  -4.972  0.00  0.00    +0.124 C 
BRANCH  31  32
ATOM     32  O   UNL     1       3.149   0.729  -4.599  0.00  0.00    -0.391 OA
ATOM     33  H   UNL     1       2.934   1.664  -4.718  0.00  0.00    +0.210 HD
ENDBRANCH  31  32
BRANCH  31  34
ATOM     34  C   UNL     1       1.756   0.041  -6.450  0.00  0.00    +0.189 C 
BRANCH  34  35
ATOM     35  O   UNL     1       2.875  -0.343  -7.252  0.00  0.00    -0.372 OA
BRANCH  35  36
ATOM     36  C   UNL     1       2.662  -0.192  -8.657  0.00  0.00    +0.061 C 
ATOM     37  C   UNL     1       2.361   1.274  -8.973  0.00  0.00    +0.041 C 
ATOM     38  C   UNL     1       3.918  -0.630  -9.413  0.00  0.00    +0.041 C 
ATOM     39  C   UNL     1       1.479  -1.060  -9.089  0.00  0.00    +0.041 C 
ENDBRANCH  35  36
ENDBRANCH  34  35
ENDBRANCH  31  34
ENDBRANCH  30  31
ENDBRANCH  22  30
ENDBRANCH  21  22
ENDBRANCH   3  21
TORSDOF 13
