REMARK  Name = ZINC63817335
REMARK  8 active torsions:
REMARK  status: ('A' for Active; 'I' for Inactive)
REMARK    1  A    between atoms: C_1  and  C_2
REMARK    2  A    between atoms: N_4  and  C_5
REMARK    3  A    between atoms: C_5  and  C_7
REMARK    4  A    between atoms: C_5  and  C_17
REMARK    5  A    between atoms: C_7  and  C_8
REMARK    6  A    between atoms: N_19  and  C_20
REMARK    7  A    between atoms: C_20  and  C_21
REMARK    8  A    between atoms: C_24  and  C_26
REMARK                            x       y       z     vdW  Elec       q    Type
REMARK                         _______ _______ _______ _____ _____    ______ ____
ROOT
ATOM      1  C   UNL     1       0.020  -2.136  -1.177  0.00  0.00    +0.163 C 
ENDROOT
BRANCH   1   5
ATOM      2  C   UNL     1      -0.018   1.503   0.010  0.00  0.00    +0.109 C 
ATOM      3  C   UNL     1       0.002  -0.004   0.002  0.00  0.00    +0.211 C 
ATOM      4  O   UNL     1       0.020  -0.616   1.049  0.00  0.00    -0.276 OA
ATOM      5  N   UNL     1       0.000  -0.672  -1.169  0.00  0.00    -0.304 N 
ATOM      6  H   UNL     1      -0.015  -0.182  -2.006  0.00  0.00    +0.149 HD
ENDBRANCH   1   5
BRANCH   1   7
ATOM      7  C   UNL     1       1.264  -2.626  -0.481  0.00  0.00    +0.234 C 
ATOM      8  O   UNL     1       1.862  -1.893   0.279  0.00  0.00    -0.274 OA
ATOM      9  N   UNL     1       1.712  -3.877  -0.703  0.00  0.00    -0.307 N 
ATOM     10  H   UNL     1       1.234  -4.463  -1.310  0.00  0.00    +0.149 HD
BRANCH   9  11
ATOM     11  C   UNL     1       2.921  -4.353  -0.026  0.00  0.00    +0.178 C 
BRANCH  11  12
ATOM     12  C   UNL     1       3.204  -5.773  -0.443  0.00  0.00    +0.123 A 
ATOM     13  C   UNL     1       3.966  -6.148  -1.490  0.00  0.00    +0.047 A 
ATOM     14  C   UNL     1       3.964  -7.557  -1.518  0.00  0.00    +0.050 A 
ATOM     15  C   UNL     1       3.194  -7.969  -0.476  0.00  0.00    +0.135 A 
ATOM     16  O   UNL     1       2.744  -6.876   0.170  0.00  0.00    -0.458 OA
BRANCH  15  17
ATOM     17  C   UNL     1       2.905  -9.372  -0.113  0.00  0.00    +0.017 A 
ATOM     18  C   UNL     1       3.446 -10.416  -0.864  0.00  0.00    +0.013 A 
ATOM     19  C   UNL     1       3.173 -11.723  -0.520  0.00  0.00    +0.021 A 
ATOM     20  C   UNL     1       2.364 -12.001   0.569  0.00  0.00    +0.041 A 
ATOM     21  C   UNL     1       1.823 -10.969   1.318  0.00  0.00    +0.021 A 
ATOM     22  C   UNL     1       2.094  -9.658   0.987  0.00  0.00    +0.013 A 
ATOM     23 CL   UNL     1       2.024 -13.649   0.995  0.00  0.00    -0.084 Cl
ENDBRANCH  15  17
ENDBRANCH  11  12
ENDBRANCH   9  11
ENDBRANCH   1   7
BRANCH   1  24
ATOM     24  C   UNL     1      -1.215  -2.667  -0.447  0.00  0.00    +0.065 C 
BRANCH  24  25
ATOM     25  C   UNL     1      -2.455  -2.281  -1.211  0.00  0.00    -0.039 C 
ATOM     26  C   UNL     1      -3.119  -3.034  -2.117  0.00  0.00    -0.001 A 
ATOM     27  C   UNL     1      -2.894  -4.386  -2.643  0.00  0.00    +0.010 A 
ATOM     28  C   UNL     1      -3.750  -4.882  -3.566  0.00  0.00    +0.001 A 
ATOM     29  C   UNL     1      -4.843  -4.139  -4.032  0.00  0.00    +0.002 A 
ATOM     30  C   UNL     1      -5.115  -2.891  -3.596  0.00  0.00    +0.026 A 
ATOM     31  C   UNL     1      -4.282  -2.271  -2.625  0.00  0.00    +0.043 A 
ATOM     32  N   UNL     1      -4.334  -1.091  -2.055  0.00  0.00    -0.380 N 
ATOM     33  C   UNL     1      -3.213  -0.976  -1.115  0.00  0.00    +0.144 C 
ATOM     34  H   UNL     1      -5.004  -0.410  -2.223  0.00  0.00    +0.160 HD
ENDBRANCH  24  25
ENDBRANCH   1  24
TORSDOF 7
