REMARK  Name = ZINC18407658
REMARK  9 active torsions:
REMARK  status: ('A' for Active; 'I' for Inactive)
REMARK    1  A    between atoms: C_1  and  C_2
REMARK    2  A    between atoms: C_2  and  C_3
REMARK    3  A    between atoms: C_3  and  C_32
REMARK    4  A    between atoms: N_6  and  N_10
REMARK    5  A    between atoms: C_11  and  C_13
REMARK    6  A    between atoms: C_13  and  S_14
REMARK    7  A    between atoms: S_14  and  C_15
REMARK    8  A    between atoms: N_23  and  C_24
REMARK    9  A    between atoms: C_24  and  C_25
REMARK                            x       y       z     vdW  Elec       q    Type
REMARK                         _______ _______ _______ _____ _____    ______ ____
ROOT
ATOM      1  S   UNL     1      -4.184   5.659  -2.709  0.00  0.00    -0.078 S 
ENDROOT
BRANCH   1   2
ATOM      2  C   UNL     1      -5.297   6.992  -2.414  0.00  0.00    +0.171 A 
ATOM      3  N   UNL     1      -5.442   7.612  -1.268  0.00  0.00    -0.222 NA
ATOM      4  C   UNL     1      -6.381   8.587  -1.392  0.00  0.00    +0.092 A 
ATOM      5  C   UNL     1      -6.912   9.526  -0.504  0.00  0.00    +0.050 A 
ATOM      6  C   UNL     1      -7.879  10.407  -0.938  0.00  0.00    +0.043 A 
ATOM      7  C   UNL     1      -8.329  10.368  -2.251  0.00  0.00    +0.022 A 
ATOM      8  C   UNL     1      -7.813   9.447  -3.139  0.00  0.00    +0.029 A 
ATOM      9  C   UNL     1      -6.840   8.553  -2.719  0.00  0.00    +0.070 A 
ATOM     10  N   UNL     1      -6.134   7.538  -3.346  0.00  0.00    -0.314 N 
ATOM     11 CL   UNL     1      -8.539  11.573   0.165  0.00  0.00    -0.083 Cl
BRANCH  10  12
ATOM     12  C   UNL     1      -6.263   7.125  -4.745  0.00  0.00    +0.159 C 
BRANCH  12  13
ATOM     13  C   UNL     1      -7.321   6.058  -4.859  0.00  0.00    -0.028 A 
ATOM     14  C   UNL     1      -6.972   4.725  -4.745  0.00  0.00    +0.005 A 
ATOM     15  C   UNL     1      -7.943   3.746  -4.844  0.00  0.00    +0.000 A 
ATOM     16  C   UNL     1      -9.260   4.099  -5.068  0.00  0.00    +0.000 A 
ATOM     17  C   UNL     1      -9.608   5.431  -5.187  0.00  0.00    +0.000 A 
ATOM     18  C   UNL     1      -8.638   6.411  -5.083  0.00  0.00    +0.005 A 
ENDBRANCH  12  13
ENDBRANCH  10  12
ENDBRANCH   1   2
BRANCH   1  19
ATOM     19  C   UNL     1      -3.436   5.503  -1.069  0.00  0.00    +0.174 C 
BRANCH  19  21
ATOM     20  N   UNL     1      -1.733   4.091   0.038  0.00  0.00    -0.223 N 
ATOM     21  C   UNL     1      -2.421   4.390  -1.082  0.00  0.00    +0.240 C 
ATOM     22  O   UNL     1      -2.222   3.763  -2.101  0.00  0.00    -0.273 OA
ATOM     23  H   UNL     1      -1.892   4.593   0.853  0.00  0.00    +0.174 HD
BRANCH  20  27
ATOM     24  C   UNL     1       1.158   1.862   0.001  0.00  0.00    +0.111 C 
ATOM     25  C   UNL     1       0.545   3.248   0.013  0.00  0.00    +0.263 C 
ATOM     26  O   UNL     1       1.132   4.309   0.014  0.00  0.00    -0.271 OA
ATOM     27  N   UNL     1      -0.789   3.056   0.025  0.00  0.00    -0.137 N 
ATOM     28  C   UNL     1      -1.101   1.755   0.016  0.00  0.00    +0.326 C 
ATOM     29  O   UNL     1      -2.240   1.333   0.019  0.00  0.00    -0.251 OA
ATOM     30  N   UNL     1      -0.011   0.966   0.007  0.00  0.00    -0.284 N 
ATOM     31  C   UNL     1       2.013   1.641   1.250  0.00  0.00    +0.041 C 
ATOM     32  H   UNL     1       0.002  -0.004   0.002  0.00  0.00    +0.151 HD
BRANCH  24  34
ATOM     33  C   UNL     1       2.404   0.180  -1.363  0.00  0.00    +0.006 C 
ATOM     34  C   UNL     1       1.992   1.650  -1.264  0.00  0.00    +0.032 C 
ENDBRANCH  24  34
ENDBRANCH  20  27
ENDBRANCH  19  21
ENDBRANCH   1  19
TORSDOF 7
