REMARK  Name = ZINC13425196
REMARK  7 active torsions:
REMARK  status: ('A' for Active; 'I' for Inactive)
REMARK    1  A    between atoms: C_1  and  C_2
REMARK    2  A    between atoms: C_2  and  C_24
REMARK    3  A    between atoms: N_3  and  N_4
REMARK    4  A    between atoms: C_5  and  C_7
REMARK    5  A    between atoms: C_8  and  C_18
REMARK    6  A    between atoms: C_18  and  N_55
REMARK    7  A    between atoms: C_27  and  N_30
REMARK                            x       y       z     vdW  Elec       q    Type
REMARK                         _______ _______ _______ _____ _____    ______ ____
ROOT
ATOM      1  C   UNL     1       0.764   5.914   0.055  0.00  0.00    +0.170 A 
ATOM      2  C   UNL     1      -0.497   5.389   0.047  0.00  0.00    +0.063 A 
ATOM      3  N   UNL     1      -0.360   4.045   0.039  0.00  0.00    -0.194 N 
ATOM      4  N   UNL     1       1.016   3.778   0.034  0.00  0.00    -0.058 NA
ATOM      5  N   UNL     1       1.647   4.901   0.043  0.00  0.00    -0.124 NA
ATOM      6  C   UNL     1      -1.393   3.100   0.031  0.00  0.00    +0.240 A 
ATOM      7  C   UNL     1      -1.224   1.645   0.017  0.00  0.00    +0.206 A 
ATOM      8  N   UNL     1      -2.408   1.094   0.020  0.00  0.00    -0.032 NA
ATOM      9  O   UNL     1      -3.369   2.134   0.030  0.00  0.00    -0.239 OA
ATOM     10  N   UNL     1      -2.669   3.366   0.033  0.00  0.00    -0.027 NA
ATOM     11  N   UNL     1      -0.011   0.966   0.007  0.00  0.00    -0.337 N 
ATOM     12  H   UNL     1       0.002  -0.004   0.002  0.00  0.00    +0.144 HD
ATOM     13  H   UNL     1       0.822   1.462   0.002  0.00  0.00    +0.144 HD
ENDROOT
BRANCH   1  15
ATOM     14  N   UNL     1       2.390   7.740   0.070  0.00  0.00    -0.201 N 
ATOM     15  C   UNL     1       1.100   7.350   0.069  0.00  0.00    +0.285 C 
ATOM     16  O   UNL     1       0.213   8.182   0.079  0.00  0.00    -0.267 OA
ATOM     17  H   UNL     1       3.097   7.077   0.062  0.00  0.00    +0.178 HD
BRANCH  14  20
ATOM     18  C   UNL     1       5.050   8.449   0.071  0.00  0.00    +0.068 C 
ATOM     19  C   UNL     1       3.951   9.480   0.084  0.00  0.00    +0.063 C 
ATOM     20  N   UNL     1       2.709   9.104   0.083  0.00  0.00    -0.184 NA
BRANCH  19  21
ATOM     21  C   UNL     1       4.287  10.916   0.098  0.00  0.00    -0.002 A 
ATOM     22  C   UNL     1       5.623  11.324   0.105  0.00  0.00    +0.012 A 
ATOM     23  C   UNL     1       5.930  12.669   0.112  0.00  0.00    +0.033 A 
ATOM     24  C   UNL     1       4.918  13.613   0.123  0.00  0.00    +0.126 A 
ATOM     25  C   UNL     1       3.592  13.216   0.123  0.00  0.00    +0.033 A 
ATOM     26  C   UNL     1       3.271  11.875   0.110  0.00  0.00    +0.012 A 
BRANCH  24  27
ATOM     27  N   UNL     1       5.255  15.054   0.136  0.00  0.00    +0.056 N 
ATOM     28  O   UNL     1       4.367  15.887   0.146  0.00  0.00    -0.126 OA
ATOM     29  O   UNL     1       6.421  15.407   0.137  0.00  0.00    -0.126 OA
ENDBRANCH  24  27
ENDBRANCH  19  21
ENDBRANCH  14  20
ENDBRANCH   1  15
BRANCH   2  30
ATOM     30  C   UNL     1      -1.792   6.161   0.049  0.00  0.00    -0.020 C 
BRANCH  30  36
ATOM     31  C   UNL     1      -2.552   5.143   2.110  0.00  0.00    -0.078 C 
ATOM     32  C   UNL     1      -2.847   5.417   3.586  0.00  0.00    -0.019 C 
ATOM     33  C   UNL     1      -4.013   6.404   3.695  0.00  0.00    -0.004 C 
ATOM     34  C   UNL     1      -3.656   7.688   2.942  0.00  0.00    -0.019 C 
ATOM     35  C   UNL     1      -3.338   7.349   1.484  0.00  0.00    -0.078 C 
ATOM     36  N   UNL     1      -2.192   6.415   1.448  0.00  0.00    +0.383 N 
ATOM     37  H   UNL     1      -1.402   6.839   1.949  0.00  0.00    -0.081 HD
ENDBRANCH  30  36
ENDBRANCH   2  30
TORSDOF 6
