REMARK  Name = ZINC39671467
REMARK  8 active torsions:
REMARK  status: ('A' for Active; 'I' for Inactive)
REMARK    1  A    between atoms: C_1  and  C_2
REMARK    2  A    between atoms: C_2  and  C_3
REMARK    3  A    between atoms: C_3  and  C_4
REMARK    4  A    between atoms: C_3  and  C_6
REMARK    5  A    between atoms: C_4  and  C_5
REMARK    6  A    between atoms: C_10  and  C_19
REMARK    7  A    between atoms: N_21  and  C_22
REMARK    8  A    between atoms: C_22  and  C_23
REMARK                            x       y       z     vdW  Elec       q    Type
REMARK                         _______ _______ _______ _____ _____    ______ ____
ROOT
ATOM      1  C   UNL     1      -1.140  -2.381   0.502  0.00  0.00    +0.219 C 
ATOM      2  O   UNL     1      -1.690  -3.186  -0.220  0.00  0.00    -0.275 OA
ATOM      3  N   UNL     1      -0.618  -2.778   1.679  0.00  0.00    -0.300 N 
ATOM      4  C   UNL     1       0.080  -1.948   2.689  0.00  0.00    +0.121 C 
ATOM      5  C   UNL     1      -0.418  -2.487   4.049  0.00  0.00    +0.100 C 
ATOM      6  C   UNL     1      -0.868  -3.929   3.758  0.00  0.00    -0.004 C 
ATOM      7  C   UNL     1      -0.616  -4.143   2.259  0.00  0.00    +0.115 C 
ATOM      8  C   UNL     1      -2.353  -4.091   4.066  0.00  0.00    -0.010 C 
ATOM      9  C   UNL     1      -2.764  -5.546   3.824  0.00  0.00    -0.082 C 
ATOM     10  N   UNL     1      -1.967  -6.431   4.681  0.00  0.00    +0.379 N 
ATOM     11  C   UNL     1      -0.548  -6.338   4.316  0.00  0.00    -0.082 C 
ATOM     12  C   UNL     1      -0.044  -4.916   4.579  0.00  0.00    -0.010 C 
ATOM     13  H   UNL     1      -2.083  -6.157   5.645  0.00  0.00    -0.086 HD
ATOM     14  H   UNL     1      -2.281  -7.383   4.565  0.00  0.00    -0.086 HD
ENDROOT
BRANCH   5  15
ATOM     15  C   UNL     1      -1.577  -1.664   4.548  0.00  0.00    +0.219 C 
ATOM     16  O   UNL     1      -2.370  -1.192   3.759  0.00  0.00    -0.275 OA
ATOM     17  N   UNL     1      -1.734  -1.451   5.869  0.00  0.00    -0.309 N 
ATOM     18  H   UNL     1      -1.101  -1.828   6.500  0.00  0.00    +0.149 HD
BRANCH  17  19
ATOM     19  C   UNL     1      -2.861  -0.651   6.354  0.00  0.00    +0.157 C 
BRANCH  19  20
ATOM     20  C   UNL     1      -2.807  -0.566   7.857  0.00  0.00    +0.034 A 
ATOM     21  H   UNL     1      -3.784  -2.308   8.447  0.00  0.00    +0.166 HD
ATOM     22  C   UNL     1      -2.248   0.437   8.553  0.00  0.00    +0.032 A 
ATOM     23  C   UNL     1      -2.417   0.120   9.973  0.00  0.00    -0.000 A 
ATOM     24  C   UNL     1      -2.057   0.760  11.160  0.00  0.00    +0.010 A 
ATOM     25  C   UNL     1      -2.369   0.188  12.361  0.00  0.00    +0.001 A 
ATOM     26  C   UNL     1      -3.043  -1.024  12.411  0.00  0.00    +0.002 A 
ATOM     27  C   UNL     1      -3.408  -1.674  11.252  0.00  0.00    +0.026 A 
ATOM     28  C   UNL     1      -3.100  -1.110  10.018  0.00  0.00    +0.047 A 
ATOM     29  N   UNL     1      -3.327  -1.496   8.716  0.00  0.00    -0.357 N 
ENDBRANCH  19  20
ENDBRANCH  17  19
ENDBRANCH   5  15
BRANCH   1  30
ATOM     30  C   UNL     1      -1.042  -0.937   0.083  0.00  0.00    +0.075 C 
BRANCH  30  32
ATOM     31  C   UNL     1       0.531   0.966  -0.301  0.00  0.00    +0.004 C 
ATOM     32  C   UNL     1       0.431  -0.533  -0.012  0.00  0.00    +0.009 C 
ENDBRANCH  30  32
BRANCH  30  33
ATOM     33  C   UNL     1      -1.709  -0.755  -1.282  0.00  0.00    +0.009 C 
ATOM     34  C   UNL     1      -3.213  -0.999  -1.151  0.00  0.00    +0.004 C 
ENDBRANCH  30  33
ENDBRANCH   1  30
TORSDOF 6
