REMARK  Name = ZINC21672074
REMARK  5 active torsions:
REMARK  status: ('A' for Active; 'I' for Inactive)
REMARK    1  A    between atoms: C_8  and  C_25
REMARK    2  A    between atoms: N_10  and  C_12
REMARK    3  A    between atoms: C_12  and  C_13
REMARK    4  A    between atoms: N_18  and  C_19
REMARK    5  A    between atoms: C_19  and  C_20
REMARK                            x       y       z     vdW  Elec       q    Type
REMARK                         _______ _______ _______ _____ _____    ______ ____
ROOT
ATOM      1  C   UNL     1       3.723   2.867   0.859  0.00  0.00    +0.000 A 
ATOM      2  C   UNL     1       2.656   3.744   0.923  0.00  0.00    +0.000 A 
ATOM      3  C   UNL     1       1.395   3.319   0.560  0.00  0.00    +0.002 A 
ATOM      4  C   UNL     1       1.190   2.016   0.131  0.00  0.00    -0.061 A 
ATOM      5  C   UNL     1       2.253   1.141   0.070  0.00  0.00    -0.047 A 
ATOM      6  C   UNL     1       3.521   1.569   0.433  0.00  0.00    +0.004 A 
ATOM      7  C   UNL     1       2.079  -0.285  -0.385  0.00  0.00    +0.029 C 
ATOM      8  C   UNL     1       0.746  -0.441  -1.117  0.00  0.00    +0.024 C 
ATOM      9  N   UNL     1      -0.317   0.138  -0.281  0.00  0.00    +0.396 N 
ATOM     10  C   UNL     1      -0.205   1.600  -0.259  0.00  0.00    -0.041 C 
ATOM     11  H   UNL     1      -0.196  -0.233   0.747  0.00  0.00    -0.080 HD
ENDROOT
BRANCH   8  12
ATOM     12  C   UNL     1       0.463  -1.902  -1.357  0.00  0.00    +0.197 C 
ATOM     13  O   UNL     1      -0.070  -2.565  -0.493  0.00  0.00    -0.278 OA
ATOM     14  N   UNL     1       0.802  -2.470  -2.531  0.00  0.00    -0.331 N 
ATOM     15  H   UNL     1       0.595  -3.537  -2.705  0.00  0.00    +0.145 HD
ATOM     16  H   UNL     1       1.286  -1.868  -3.314  0.00  0.00    +0.145 HD
ENDBRANCH   8  12
BRANCH   9  17
ATOM     17  C   UNL     1      -1.644  -0.281  -0.752  0.00  0.00    +0.021 C 
BRANCH  17  18
ATOM     18  C   UNL     1      -1.827   0.148  -2.185  0.00  0.00    +0.204 C 
ATOM     19  O   UNL     1      -0.940   0.744  -2.758  0.00  0.00    -0.277 OA
ATOM     20  N   UNL     1      -2.977  -0.131  -2.830  0.00  0.00    -0.242 N 
ATOM     21  C   UNL     1      -3.141   0.253  -4.112  0.00  0.00    +0.306 C 
ATOM     22  O   UNL     1      -2.251   0.850  -4.686  0.00  0.00    -0.252 OA
ATOM     23  N   UNL     1      -4.291  -0.026  -4.757  0.00  0.00    -0.294 N 
ATOM     24  H   UNL     1      -3.782  -0.671  -2.311  0.00  0.00    +0.159 HD
ATOM     25  H   UNL     1      -5.096  -0.566  -4.238  0.00  0.00    +0.151 HD
BRANCH  23  26
ATOM     26  C   UNL     1      -4.469   0.391  -6.150  0.00  0.00    +0.148 C 
BRANCH  26  27
ATOM     27  C   UNL     1      -5.830  -0.039  -6.633  0.00  0.00    +0.007 A 
ATOM     28  C   UNL     1      -7.006   0.633  -6.581  0.00  0.00    +0.013 A 
ATOM     29  C   UNL     1      -8.143   0.036  -7.093  0.00  0.00    +0.008 A 
ATOM     30  C   UNL     1      -8.048  -1.204  -7.631  0.00  0.00    +0.045 A 
ATOM     31  S   UNL     1      -6.311  -1.563  -7.429  0.00  0.00    -0.100 S 
ENDBRANCH  26  27
ENDBRANCH  23  26
ENDBRANCH  17  18
ENDBRANCH   9  17
TORSDOF 5
