REMARK  Name = ZINC17913683
REMARK  8 active torsions:
REMARK  status: ('A' for Active; 'I' for Inactive)
REMARK    1  A    between atoms: C_1  and  C_2
REMARK    2  A    between atoms: C_2  and  C_3
REMARK    3  A    between atoms: C_3  and  C_26
REMARK    4  A    between atoms: N_6  and  C_10
REMARK    5  A    between atoms: C_10  and  C_11
REMARK    6  A    between atoms: N_13  and  C_14
REMARK    7  A    between atoms: C_14  and  C_15
REMARK    8  A    between atoms: N_17  and  C_18
REMARK                            x       y       z     vdW  Elec       q    Type
REMARK                         _______ _______ _______ _____ _____    ______ ____
ROOT
ATOM      1  C   UNL     1       5.291   8.030  -0.526  0.00  0.00    +0.213 C 
ENDROOT
BRANCH   1   5
ATOM      2  C   UNL     1       8.398   9.842  -1.452  0.00  0.00    +0.138 C 
ATOM      3  C   UNL     1       7.140   9.079  -1.815  0.00  0.00    +0.251 C 
ATOM      4  O   UNL     1       6.748   8.800  -2.928  0.00  0.00    -0.272 OA
ATOM      5  N   UNL     1       6.548   8.773  -0.644  0.00  0.00    -0.215 N 
ATOM      6  C   UNL     1       7.247   9.237   0.398  0.00  0.00    +0.310 C 
ATOM      7  O   UNL     1       6.912   9.089   1.557  0.00  0.00    -0.252 OA
ATOM      8  N   UNL     1       8.366   9.882   0.020  0.00  0.00    -0.281 N 
ATOM      9  H   UNL     1       9.021  10.296   0.603  0.00  0.00    +0.152 HD
BRANCH   2  10
ATOM     10  C   UNL     1       8.356  11.235  -2.024  0.00  0.00    -0.015 A 
ATOM     11  C   UNL     1       8.883  11.484  -3.278  0.00  0.00    +0.006 A 
ATOM     12  C   UNL     1       8.841  12.761  -3.805  0.00  0.00    +0.000 A 
ATOM     13  C   UNL     1       8.280  13.792  -3.074  0.00  0.00    +0.000 A 
ATOM     14  C   UNL     1       7.758  13.545  -1.818  0.00  0.00    +0.000 A 
ATOM     15  C   UNL     1       7.796  12.266  -1.293  0.00  0.00    +0.006 A 
ENDBRANCH   2  10
BRANCH   2  17
ATOM     16  C   UNL     1       9.686   7.706  -1.307  0.00  0.00    +0.007 C 
ATOM     17  C   UNL     1       9.640   9.097  -1.944  0.00  0.00    +0.037 C 
ENDBRANCH   2  17
ENDBRANCH   1   5
BRANCH   1  18
ATOM     18  C   UNL     1       5.585   6.555  -0.437  0.00  0.00    +0.231 C 
ATOM     19  O   UNL     1       6.732   6.163  -0.469  0.00  0.00    -0.274 OA
ATOM     20  N   UNL     1       4.574   5.672  -0.322  0.00  0.00    -0.305 N 
ATOM     21  H   UNL     1       3.656   5.986  -0.296  0.00  0.00    +0.149 HD
BRANCH  20  22
ATOM     22  C   UNL     1       4.860   4.237  -0.236  0.00  0.00    +0.200 C 
BRANCH  22  23
ATOM     23  C   UNL     1       3.567   3.474  -0.114  0.00  0.00    +0.234 C 
ATOM     24  O   UNL     1       2.510   4.069  -0.101  0.00  0.00    -0.274 OA
ATOM     25  N   UNL     1       3.584   2.129  -0.020  0.00  0.00    -0.284 N 
ATOM     26  H   UNL     1       4.430   1.659   0.046  0.00  0.00    +0.155 HD
BRANCH  25  27
ATOM     27  C   UNL     1       2.382   1.411  -0.019  0.00  0.00    +0.036 A 
ATOM     28  C   UNL     1       2.272   0.241   0.720  0.00  0.00    +0.026 A 
ATOM     29  C   UNL     1       1.086  -0.467   0.720  0.00  0.00    +0.043 A 
ATOM     30  C   UNL     1       0.006  -0.010  -0.015  0.00  0.00    +0.159 A 
ATOM     31  C   UNL     1       0.112   1.159  -0.754  0.00  0.00    +0.160 A 
ATOM     32  C   UNL     1       1.299   1.869  -0.756  0.00  0.00    +0.064 A 
ATOM     33  F   UNL     1      -0.943   1.603  -1.471  0.00  0.00    -0.202 F 
ATOM     34  F   UNL     1      -1.154  -0.704  -0.013  0.00  0.00    -0.202 F 
ENDBRANCH  25  27
ENDBRANCH  22  23
ENDBRANCH  20  22
ENDBRANCH   1  18
TORSDOF 7
