REMARK  Name = ZINC28252144
REMARK  13 active torsions:
REMARK  status: ('A' for Active; 'I' for Inactive)
REMARK    1  A    between atoms: C_1  and  C_2
REMARK    2  A    between atoms: C_2  and  C_3
REMARK    3  A    between atoms: C_3  and  C_4
REMARK    4  A    between atoms: C_4  and  C_5
REMARK    5  A    between atoms: C_5  and  O_6
REMARK    6  A    between atoms: O_6  and  C_7
REMARK    7  A    between atoms: C_9  and  S_14
REMARK    8  A    between atoms: S_14  and  N_17
REMARK    9  A    between atoms: N_17  and  C_18
REMARK   10  A    between atoms: C_20  and  C_26
REMARK   11  A    between atoms: C_20  and  C_27
REMARK   12  A    between atoms: C_22  and  C_24
REMARK   13  A    between atoms: C_22  and  C_25
REMARK                            x       y       z     vdW  Elec       q    Type
REMARK                         _______ _______ _______ _____ _____    ______ ____
ROOT
ATOM      1  S   UNL     1       0.256   5.849  -2.661  0.00  0.00    +0.059 S 
ATOM      2  O   UNL     1       0.249   7.238  -2.358  0.00  0.00    -0.153 OA
ATOM      3  O   UNL     1       1.215   5.264  -3.530  0.00  0.00    -0.153 OA
ENDROOT
BRANCH   1   6
ATOM      4  C   UNL     1      -2.732   4.082  -4.691  0.00  0.00    +0.136 A 
ATOM      5  C   UNL     1      -1.484   4.381  -4.166  0.00  0.00    +0.075 A 
ATOM      6  C   UNL     1      -1.329   5.473  -3.334  0.00  0.00    +0.109 A 
ATOM      7  C   UNL     1      -2.415   6.275  -3.034  0.00  0.00    +0.030 A 
ATOM      8  C   UNL     1      -3.659   5.983  -3.560  0.00  0.00    +0.021 A 
ATOM      9  C   UNL     1      -3.821   4.888  -4.388  0.00  0.00    +0.060 A 
ATOM     10 BR   UNL     1      -5.523   4.489  -5.108  0.00  0.00    -0.047 Br
BRANCH   4  11
ATOM     11  O   UNL     1      -2.888   3.005  -5.505  0.00  0.00    -0.491 OA
BRANCH  11  12
ATOM     12  C   UNL     1      -1.724   2.221  -5.774  0.00  0.00    +0.229 C 
BRANCH  12  13
ATOM     13  C   UNL     1      -2.093   1.061  -6.701  0.00  0.00    +0.041 C 
BRANCH  13  14
ATOM     14  C   UNL     1      -0.846   0.222  -6.989  0.00  0.00    +0.003 C 
BRANCH  14  16
ATOM     15  C   UNL     1       0.031  -1.778  -8.203  0.00  0.00    +0.004 C 
ATOM     16  C   UNL     1      -1.215  -0.938  -7.916  0.00  0.00    -0.003 C 
ENDBRANCH  14  16
ENDBRANCH  13  14
ENDBRANCH  12  13
ENDBRANCH  11  12
ENDBRANCH   4  11
ENDBRANCH   1   6
BRANCH   1  17
ATOM     17  N   UNL     1       0.376   5.050  -1.216  0.00  0.00    -0.187 NA
ATOM     18  H   UNL     1       0.285   5.617  -0.278  0.00  0.00    +0.148 HD
BRANCH  17  19
ATOM     19  C   UNL     1       0.383   3.582  -1.188  0.00  0.00    +0.074 C 
ATOM     20  C   UNL     1       1.307   3.104  -0.068  0.00  0.00    +0.007 C 
ATOM     21  C   UNL     1       1.318   1.579  -0.002  0.00  0.00    -0.072 C 
ATOM     22  N   UNL     1      -0.012   1.005   0.008  0.00  0.00    +0.386 N 
ATOM     23  C   UNL     1      -1.049   1.551  -0.842  0.00  0.00    -0.072 C 
ATOM     24  C   UNL     1      -1.030   3.077  -0.900  0.00  0.00    +0.007 C 
ATOM     25  C   UNL     1      -0.958   0.983  -2.263  0.00  0.00    -0.010 C 
ATOM     26  C   UNL     1      -2.418   1.125  -0.266  0.00  0.00    -0.010 C 
ATOM     27  C   UNL     1       2.027   1.175   1.309  0.00  0.00    -0.010 C 
ATOM     28  C   UNL     1       2.153   1.022  -1.161  0.00  0.00    -0.010 C 
ATOM     29  H   UNL     1       0.043  -0.052  -0.292  0.00  0.00    -0.084 HD
ATOM     30  H   UNL     1      -0.435   1.078   1.020  0.00  0.00    -0.084 HD
ENDBRANCH  17  19
ENDBRANCH   1  17
TORSDOF 8
