REMARK  Name = ZINC59791095
REMARK  11 active torsions:
REMARK  status: ('A' for Active; 'I' for Inactive)
REMARK    1  A    between atoms: C_1  and  C_2
REMARK    2  A    between atoms: C_2  and  C_30
REMARK    3  A    between atoms: C_4  and  N_10
REMARK    4  A    between atoms: C_6  and  C_8
REMARK    5  A    between atoms: C_6  and  C_9
REMARK    6  A    between atoms: C_11  and  C_13
REMARK    7  A    between atoms: C_13  and  S_14
REMARK    8  A    between atoms: S_14  and  C_15
REMARK    9  A    between atoms: C_18  and  C_21
REMARK   10  A    between atoms: N_19  and  N_20
REMARK   11  A    between atoms: C_24  and  N_27
REMARK                            x       y       z     vdW  Elec       q    Type
REMARK                         _______ _______ _______ _____ _____    ______ ____
ROOT
ATOM      1  S   UNL     1      -7.054  -0.236   2.801  0.00  0.00    -0.075 S 
ENDROOT
BRANCH   1   2
ATOM      2  C   UNL     1      -8.614  -0.994   2.488  0.00  0.00    +0.209 A 
ATOM      3  N   UNL     1      -8.863  -1.927   1.597  0.00  0.00    -0.121 NA
ATOM      4  N   UNL     1     -10.106  -2.253   1.635  0.00  0.00    -0.127 NA
ATOM      5  C   UNL     1     -10.726  -1.548   2.552  0.00  0.00    +0.182 A 
ATOM      6  N   UNL     1      -9.789  -0.724   3.130  0.00  0.00    -0.224 N 
BRANCH   5   7
ATOM      7  C   UNL     1     -12.161  -1.629   2.901  0.00  0.00    +0.021 A 
ATOM      8  C   UNL     1     -12.756  -0.619   3.658  0.00  0.00    +0.014 A 
ATOM      9  C   UNL     1     -14.095  -0.700   3.981  0.00  0.00    +0.033 A 
ATOM     10  C   UNL     1     -14.847  -1.780   3.555  0.00  0.00    +0.126 A 
ATOM     11  C   UNL     1     -14.264  -2.785   2.804  0.00  0.00    +0.033 A 
ATOM     12  C   UNL     1     -12.927  -2.713   2.470  0.00  0.00    +0.014 A 
BRANCH  10  13
ATOM     13  N   UNL     1     -16.284  -1.861   3.906  0.00  0.00    +0.056 N 
ATOM     14  O   UNL     1     -16.796  -0.985   4.562  0.00  0.00    -0.126 OA
ATOM     15  O   UNL     1     -16.944  -2.804   3.536  0.00  0.00    -0.126 OA
ENDBRANCH  10  13
ENDBRANCH   5   7
BRANCH   6  16
ATOM     16  N   UNL     1      -9.992   0.179   4.136  0.00  0.00    -0.295 N 
ATOM     17  H   UNL     1     -10.241   1.083   3.764  0.00  0.00    +0.163 HD
ATOM     18  H   UNL     1     -10.691  -0.152   4.783  0.00  0.00    +0.163 HD
ENDBRANCH   6  16
ENDBRANCH   1   2
BRANCH   1  19
ATOM     19  C   UNL     1      -5.934  -1.037   1.621  0.00  0.00    +0.173 C 
BRANCH  19  21
ATOM     20  N   UNL     1      -3.540  -0.922   1.007  0.00  0.00    -0.312 N 
ATOM     21  C   UNL     1      -4.546  -0.473   1.784  0.00  0.00    +0.224 C 
ATOM     22  O   UNL     1      -4.333   0.384   2.615  0.00  0.00    -0.275 OA
ATOM     23  H   UNL     1      -3.710  -1.608   0.342  0.00  0.00    +0.149 HD
BRANCH  20  27
ATOM     24  C   UNL     1      -0.019   1.528   0.010  0.00  0.00    -0.010 C 
ATOM     25  C   UNL     1       0.002  -0.004   0.002  0.00  0.00    -0.072 C 
ATOM     26  C   UNL     1      -1.419  -0.538  -0.145  0.00  0.00    +0.009 C 
ATOM     27  C   UNL     1      -2.188  -0.373   1.166  0.00  0.00    +0.070 C 
ATOM     28  C   UNL     1      -1.451  -1.155   2.253  0.00  0.00    +0.009 C 
ATOM     29  C   UNL     1      -0.030  -0.627   2.418  0.00  0.00    -0.072 C 
ATOM     30  N   UNL     1       0.697  -0.529   1.164  0.00  0.00    +0.386 N 
ATOM     31  C   UNL     1       0.730  -1.621   3.326  0.00  0.00    -0.010 C 
ATOM     32  C   UNL     1      -0.059   0.719   3.151  0.00  0.00    -0.010 C 
ATOM     33  C   UNL     1       0.791  -0.440  -1.254  0.00  0.00    -0.010 C 
ATOM     34  H   UNL     1       1.056  -1.460   0.929  0.00  0.00    -0.084 HD
ATOM     35  H   UNL     1       1.534   0.040   1.322  0.00  0.00    -0.084 HD
ENDBRANCH  20  27
ENDBRANCH  19  21
ENDBRANCH   1  19
TORSDOF 7
