REMARK  Name = ZINC39623921
REMARK  6 active torsions:
REMARK  status: ('A' for Active; 'I' for Inactive)
REMARK    1  A    between atoms: C_1  and  C_2
REMARK    2  A    between atoms: C_2  and  C_3
REMARK    3  A    between atoms: C_3  and  C_4
REMARK    4  A    between atoms: C_4  and  N_5
REMARK    5  A    between atoms: C_6  and  C_8
REMARK    6  A    between atoms: C_19  and  C_21
REMARK                            x       y       z     vdW  Elec       q    Type
REMARK                         _______ _______ _______ _____ _____    ______ ____
ROOT
ATOM      1  C   UNL     1       2.075  -4.467  -3.348  0.00  0.00    +0.100 C 
ATOM      2  C   UNL     1       3.449  -3.812  -3.615  0.00  0.00    +0.121 C 
ATOM      3  N   UNL     1       4.438  -4.841  -3.217  0.00  0.00    -0.296 N 
ATOM      4  C   UNL     1       3.851  -6.118  -3.687  0.00  0.00    +0.115 C 
ATOM      5  C   UNL     1       2.342  -5.980  -3.400  0.00  0.00    -0.004 C 
ATOM      6  C   UNL     1       2.001  -6.623  -2.059  0.00  0.00    -0.010 C 
ATOM      7  C   UNL     1       2.221  -8.136  -2.153  0.00  0.00    -0.082 C 
ATOM      8  N   UNL     1       1.372  -8.690  -3.214  0.00  0.00    +0.379 N 
ATOM      9  C   UNL     1       1.769  -8.135  -4.514  0.00  0.00    -0.082 C 
ATOM     10  C   UNL     1       1.530  -6.623  -4.520  0.00  0.00    -0.010 C 
ATOM     11  C   UNL     1       5.607  -4.657  -2.572  0.00  0.00    +0.248 C 
ATOM     12  O   UNL     1       6.360  -5.596  -2.399  0.00  0.00    -0.270 OA
ATOM     13  H   UNL     1       1.473  -9.694  -3.234  0.00  0.00    -0.086 HD
ATOM     14  H   UNL     1       0.408  -8.455  -3.030  0.00  0.00    -0.086 HD
ENDROOT
BRANCH  11  15
ATOM     15  C   UNL     1       5.975  -3.315  -2.076  0.00  0.00    +0.057 A 
ATOM     16  C   UNL     1       5.620  -2.177  -2.804  0.00  0.00    +0.014 A 
ATOM     17  C   UNL     1       5.966  -0.926  -2.336  0.00  0.00    +0.002 A 
ATOM     18  C   UNL     1       6.663  -0.796  -1.147  0.00  0.00    +0.021 A 
ATOM     19  C   UNL     1       7.018  -1.918  -0.420  0.00  0.00    +0.060 A 
ATOM     20  C   UNL     1       6.673  -3.178  -0.874  0.00  0.00    +0.071 A 
ATOM     21 CL   UNL     1       7.112  -4.585   0.043  0.00  0.00    -0.081 Cl
ATOM     22 CL   UNL     1       7.893  -1.744   1.069  0.00  0.00    -0.082 Cl
ENDBRANCH  11  15
BRANCH   1  24
ATOM     23  N   UNL     1       0.234  -4.040  -1.752  0.00  0.00    -0.315 N 
ATOM     24  C   UNL     1       1.560  -4.071  -1.988  0.00  0.00    +0.218 C 
ATOM     25  O   UNL     1       2.340  -3.780  -1.105  0.00  0.00    -0.275 OA
ATOM     26  H   UNL     1      -0.390  -4.273  -2.458  0.00  0.00    +0.149 HD
BRANCH  23  27
ATOM     27  C   UNL     1      -0.266  -3.655  -0.430  0.00  0.00    +0.104 C 
BRANCH  27  28
ATOM     28  C   UNL     1      -1.796  -3.703  -0.430  0.00  0.00    +0.018 C 
BRANCH  28  30
ATOM     29  C   UNL     1      -3.847  -3.348   0.951  0.00  0.00    +0.004 C 
ATOM     30  C   UNL     1      -2.318  -3.301   0.951  0.00  0.00    -0.002 C 
ENDBRANCH  28  30
ENDBRANCH  27  28
ENDBRANCH  23  27
ENDBRANCH   1  24
TORSDOF 5
