REMARK  Name = ZINC59170380
REMARK  5 active torsions:
REMARK  status: ('A' for Active; 'I' for Inactive)
REMARK    1  A    between atoms: C_4  and  N_7
REMARK    2  A    between atoms: C_8  and  C_10
REMARK    3  A    between atoms: N_24  and  C_25
REMARK    4  A    between atoms: C_28  and  S_31
REMARK    5  A    between atoms: S_31  and  N_34
REMARK                            x       y       z     vdW  Elec       q    Type
REMARK                         _______ _______ _______ _____ _____    ______ ____
ROOT
ATOM      1  C   UNL     1       4.914  -2.680   0.207  0.00  0.00    +0.098 A 
ATOM      2  C   UNL     1       4.954  -4.071   0.188  0.00  0.00    +0.030 A 
ATOM      3  C   UNL     1       6.215  -4.700   0.253  0.00  0.00    +0.026 A 
ATOM      4  C   UNL     1       6.348  -6.139   0.017  0.00  0.00    -0.007 A 
ATOM      5  C   UNL     1       5.238  -6.942  -0.258  0.00  0.00    +0.009 A 
ATOM      6  C   UNL     1       5.408  -8.279  -0.471  0.00  0.00    +0.001 A 
ATOM      7  C   UNL     1       6.673  -8.855  -0.417  0.00  0.00    +0.001 A 
ATOM      8  C   UNL     1       7.776  -8.100  -0.151  0.00  0.00    +0.008 A 
ATOM      9  C   UNL     1       7.637  -6.721   0.072  0.00  0.00    -0.017 A 
ATOM     10  C   UNL     1       8.754  -5.909   0.349  0.00  0.00    +0.012 A 
ATOM     11  C   UNL     1       8.615  -4.578   0.574  0.00  0.00    +0.047 A 
ATOM     12  C   UNL     1       7.366  -3.953   0.540  0.00  0.00    +0.138 A 
ATOM     13  O   UNL     1       7.261  -2.628   0.807  0.00  0.00    -0.439 OA
ATOM     14  C   UNL     1       6.207  -1.971   0.256  0.00  0.00    +0.212 A 
ATOM     15  N   UNL     1       6.332  -0.747  -0.213  0.00  0.00    -0.325 N 
ATOM     16  H   UNL     1       5.599  -0.338  -0.700  0.00  0.00    +0.169 HD
ENDROOT
BRANCH  15  17
ATOM     17  C   UNL     1       7.493  -0.054  -0.014  0.00  0.00    +0.042 A 
ATOM     18  C   UNL     1       8.106  -0.057   1.242  0.00  0.00    +0.027 A 
ATOM     19  C   UNL     1       9.277   0.645   1.435  0.00  0.00    +0.030 A 
ATOM     20  C   UNL     1       9.845   1.351   0.390  0.00  0.00    +0.105 A 
ATOM     21  C   UNL     1       9.244   1.359  -0.856  0.00  0.00    +0.030 A 
ATOM     22  C   UNL     1       8.076   0.657  -1.066  0.00  0.00    +0.027 A 
BRANCH  20  23
ATOM     23  S   UNL     1      11.342   2.245   0.647  0.00  0.00    +0.056 S 
ATOM     24  O   UNL     1      11.379   3.267  -0.340  0.00  0.00    -0.153 OA
ATOM     25  O   UNL     1      11.413   2.526   2.038  0.00  0.00    -0.153 OA
BRANCH  23  26
ATOM     26  N   UNL     1      12.592   1.214   0.308  0.00  0.00    -0.204 NA
ATOM     27  H   UNL     1      12.408   0.304   0.027  0.00  0.00    +0.144 HD
ATOM     28  H   UNL     1      13.509   1.520   0.390  0.00  0.00    +0.144 HD
ENDBRANCH  23  26
ENDBRANCH  20  23
ENDBRANCH  15  17
BRANCH   1  30
ATOM     29  N   UNL     1       3.624  -0.611   0.336  0.00  0.00    -0.281 N 
ATOM     30  C   UNL     1       3.638  -1.949   0.175  0.00  0.00    +0.253 C 
ATOM     31  O   UNL     1       2.595  -2.552   0.002  0.00  0.00    -0.270 OA
ATOM     32  H   UNL     1       4.458  -0.123   0.419  0.00  0.00    +0.155 HD
BRANCH  29  36
ATOM     33  C   UNL     1      -0.004   1.432   0.477  0.00  0.00    +0.000 A 
ATOM     34  C   UNL     1       1.061   1.862   1.248  0.00  0.00    +0.002 A 
ATOM     35  C   UNL     1       2.265   1.187   1.204  0.00  0.00    +0.023 A 
ATOM     36  C   UNL     1       2.406   0.075   0.384  0.00  0.00    +0.034 A 
ATOM     37  C   UNL     1       1.335  -0.354  -0.389  0.00  0.00    +0.023 A 
ATOM     38  C   UNL     1       0.134   0.325  -0.340  0.00  0.00    +0.002 A 
ENDBRANCH  29  36
ENDBRANCH   1  30
TORSDOF 5
