REMARK  Name = ZINC39637326
REMARK  5 active torsions:
REMARK  status: ('A' for Active; 'I' for Inactive)
REMARK    1  A    between atoms: C_1  and  C_2
REMARK    2  A    between atoms: C_7  and  N_12
REMARK    3  A    between atoms: C_9  and  C_11
REMARK    4  A    between atoms: C_13  and  C_15
REMARK    5  A    between atoms: C_26  and  C_28
REMARK                            x       y       z     vdW  Elec       q    Type
REMARK                         _______ _______ _______ _____ _____    ______ ____
ROOT
ATOM      1  C   UNL     1      -2.777  -4.758   1.156  0.00  0.00    +0.100 C 
ATOM      2  C   UNL     1      -3.366  -3.777   2.194  0.00  0.00    +0.121 C 
ATOM      3  N   UNL     1      -4.158  -4.633   3.110  0.00  0.00    -0.296 N 
ATOM      4  C   UNL     1      -3.339  -5.858   3.270  0.00  0.00    +0.115 C 
ATOM      5  C   UNL     1      -2.760  -6.122   1.866  0.00  0.00    -0.004 C 
ATOM      6  C   UNL     1      -1.330  -6.643   1.975  0.00  0.00    -0.010 C 
ATOM      7  C   UNL     1      -1.344  -8.026   2.632  0.00  0.00    -0.082 C 
ATOM      8  N   UNL     1      -2.161  -8.944   1.827  0.00  0.00    +0.379 N 
ATOM      9  C   UNL     1      -3.555  -8.484   1.805  0.00  0.00    -0.082 C 
ATOM     10  C   UNL     1      -3.634  -7.121   1.114  0.00  0.00    -0.010 C 
ATOM     11  C   UNL     1      -5.353  -4.359   3.670  0.00  0.00    +0.249 C 
ATOM     12  O   UNL     1      -5.841  -5.133   4.469  0.00  0.00    -0.270 OA
ATOM     13  H   UNL     1      -1.802  -8.972   0.885  0.00  0.00    -0.086 HD
ATOM     14  H   UNL     1      -2.119  -9.868   2.229  0.00  0.00    -0.086 HD
ENDROOT
BRANCH  11  15
ATOM     15  C   UNL     1      -6.069  -3.117   3.312  0.00  0.00    +0.073 A 
ATOM     16  C   UNL     1      -5.362  -1.925   3.140  0.00  0.00    +0.016 A 
ATOM     17  C   UNL     1      -6.036  -0.769   2.806  0.00  0.00    +0.002 A 
ATOM     18  C   UNL     1      -7.410  -0.786   2.640  0.00  0.00    +0.023 A 
ATOM     19  C   UNL     1      -8.119  -1.962   2.809  0.00  0.00    +0.077 A 
ATOM     20  C   UNL     1      -7.455  -3.131   3.139  0.00  0.00    +0.154 A 
ATOM     21  F   UNL     1      -8.147  -4.281   3.298  0.00  0.00    -0.203 F 
ATOM     22 CL   UNL     1      -9.842  -1.973   2.599  0.00  0.00    -0.081 Cl
ENDBRANCH  11  15
BRANCH   1  24
ATOM     23  N   UNL     1      -0.909  -4.602  -0.459  0.00  0.00    -0.312 N 
ATOM     24  C   UNL     1      -1.378  -4.345   0.779  0.00  0.00    +0.218 C 
ATOM     25  O   UNL     1      -0.673  -3.781   1.589  0.00  0.00    -0.275 OA
ATOM     26  H   UNL     1      -1.473  -5.052  -1.107  0.00  0.00    +0.149 HD
BRANCH  23  32
ATOM     27  C   UNL     1       0.277  -5.150  -4.552  0.00  0.00    +0.008 C 
ATOM     28  C   UNL     1       0.190  -5.334  -3.036  0.00  0.00    -0.009 C 
ATOM     29  C   UNL     1       1.177  -6.417  -2.597  0.00  0.00    +0.003 C 
ATOM     30  C   UNL     1       1.091  -6.602  -1.081  0.00  0.00    +0.002 C 
ATOM     31  C   UNL     1       1.438  -5.283  -0.386  0.00  0.00    +0.022 C 
ATOM     32  C   UNL     1       0.451  -4.200  -0.825  0.00  0.00    +0.076 C 
ATOM     33  C   UNL     1       0.537  -4.016  -2.341  0.00  0.00    +0.009 C 
ATOM     34  C   UNL     1      -0.450  -2.933  -2.781  0.00  0.00    +0.009 C 
ENDBRANCH  23  32
ENDBRANCH   1  24
TORSDOF 3
