REMARK  Name = ZINC15001397
REMARK  6 active torsions:
REMARK  status: ('A' for Active; 'I' for Inactive)
REMARK    1  A    between atoms: C_7  and  C_11
REMARK    2  A    between atoms: C_11  and  C_12
REMARK    3  A    between atoms: C_12  and  N_13
REMARK    4  A    between atoms: C_14  and  C_16
REMARK    5  A    between atoms: C_24  and  C_25
REMARK    6  A    between atoms: C_24  and  N_59
REMARK                            x       y       z     vdW  Elec       q    Type
REMARK                         _______ _______ _______ _____ _____    ______ ____
ROOT
ATOM      1  C   UNL     1       4.835   4.482  -5.230  0.00  0.00    +0.082 C 
ATOM      2  C   UNL     1       4.241   5.423  -4.180  0.00  0.00    +0.020 C 
ATOM      3  C   UNL     1       4.499   3.958  -3.835  0.00  0.00    -0.021 C 
ATOM      4  C   UNL     1       5.664   3.640  -2.891  0.00  0.00    -0.011 C 
ATOM      5  C   UNL     1       5.123   3.549  -1.460  0.00  0.00    -0.078 C 
ATOM      6  C   UNL     1       2.886   2.978  -2.213  0.00  0.00    -0.078 C 
ATOM      7  C   UNL     1       3.286   3.033  -3.691  0.00  0.00    -0.011 C 
ATOM      8  N   UNL     1       4.051   2.530  -1.419  0.00  0.00    +0.382 N 
ATOM      9  H   UNL     1       4.409   1.655  -1.821  0.00  0.00    -0.081 HD
ENDROOT
BRANCH   1  11
ATOM     10  N   UNL     1       4.191   4.489  -7.619  0.00  0.00    -0.315 N 
ATOM     11  C   UNL     1       3.942   4.056  -6.367  0.00  0.00    +0.217 C 
ATOM     12  O   UNL     1       2.998   3.324  -6.156  0.00  0.00    -0.275 OA
ATOM     13  H   UNL     1       4.946   5.075  -7.788  0.00  0.00    +0.149 HD
BRANCH  10  14
ATOM     14  C   UNL     1       3.324   4.075  -8.724  0.00  0.00    +0.109 C 
BRANCH  14  15
ATOM     15  C   UNL     1       3.823   4.702 -10.027  0.00  0.00    +0.056 C 
BRANCH  15  22
ATOM     16  C   UNL     1      -0.227   6.351 -11.714  0.00  0.00    +0.001 A 
ATOM     17  C   UNL     1      -0.696   5.624 -12.800  0.00  0.00    +0.002 A 
ATOM     18  C   UNL     1       0.008   4.541 -13.279  0.00  0.00    +0.026 A 
ATOM     19  C   UNL     1       1.202   4.170 -12.669  0.00  0.00    +0.047 A 
ATOM     20  C   UNL     1       1.673   4.909 -11.569  0.00  0.00    +0.003 A 
ATOM     21  C   UNL     1       0.943   6.003 -11.101  0.00  0.00    +0.010 A 
ATOM     22  C   UNL     1       2.930   4.276 -11.164  0.00  0.00    -0.021 A 
ATOM     23  C   UNL     1       3.139   3.247 -12.001  0.00  0.00    +0.087 A 
ATOM     24  N   UNL     1       2.114   3.165 -12.904  0.00  0.00    -0.360 N 
ATOM     25  H   UNL     1       2.042   2.501 -13.607  0.00  0.00    +0.165 HD
ENDBRANCH  15  22
ENDBRANCH  14  15
ENDBRANCH  10  14
ENDBRANCH   1  11
BRANCH   8  26
ATOM     26  C   UNL     1       3.644   2.284  -0.021  0.00  0.00    -0.043 C 
BRANCH  26  27
ATOM     27  C   UNL     1       2.382   1.461  -0.013  0.00  0.00    -0.062 A 
ATOM     28  C   UNL     1       1.146   2.108   0.002  0.00  0.00    +0.004 A 
ATOM     29  C   UNL     1      -0.017   1.415   0.010  0.00  0.00    +0.031 A 
ATOM     30  C   UNL     1       0.002  -0.004   0.002  0.00  0.00    +0.100 A 
ATOM     31  C   UNL     1       1.295  -0.682  -0.014  0.00  0.00    +0.100 A 
ATOM     32  C   UNL     1       2.473   0.110  -0.021  0.00  0.00    +0.032 A 
ATOM     33  N   UNL     1       1.165  -2.007  -0.020  0.00  0.00    -0.191 NA
ATOM     34  S   UNL     1      -0.375  -2.296  -0.007  0.00  0.00    +0.116 S 
ATOM     35  N   UNL     1      -1.014  -0.865   0.007  0.00  0.00    -0.191 NA
ENDBRANCH  26  27
ENDBRANCH   8  26
TORSDOF 6
