REMARK  Name = ZINC44879795
REMARK  9 active torsions:
REMARK  status: ('A' for Active; 'I' for Inactive)
REMARK    1  A    between atoms: C_1  and  C_2
REMARK    2  A    between atoms: N_8  and  S_32
REMARK    3  A    between atoms: C_10  and  C_13
REMARK    4  A    between atoms: N_15  and  C_16
REMARK    5  A    between atoms: C_16  and  C_17
REMARK    6  A    between atoms: C_20  and  C_23
REMARK    7  A    between atoms: C_23  and  N_24
REMARK    8  A    between atoms: C_28  and  C_31
REMARK    9  A    between atoms: S_32  and  C_35
REMARK                            x       y       z     vdW  Elec       q    Type
REMARK                         _______ _______ _______ _____ _____    ______ ____
ROOT
ATOM      1  C   UNL     1       0.764   1.535   0.183  0.00  0.00    +0.044 C 
ATOM      2  C   UNL     1       0.574   0.042   0.117  0.00  0.00    -0.048 A 
ATOM      3  C   UNL     1       0.573  -0.601  -1.107  0.00  0.00    +0.007 A 
ATOM      4  C   UNL     1       0.402  -1.971  -1.176  0.00  0.00    +0.048 A 
ATOM      5  C   UNL     1       0.229  -2.708  -0.014  0.00  0.00    +0.144 A 
ATOM      6  C   UNL     1       0.228  -2.058   1.218  0.00  0.00    +0.093 A 
ATOM      7  C   UNL     1       0.407  -0.685   1.281  0.00  0.00    +0.031 A 
ATOM      8  N   UNL     1       0.045  -2.799   2.396  0.00  0.00    -0.195 N 
ATOM      9  C   UNL     1       0.173  -4.264   2.310  0.00  0.00    +0.186 C 
ATOM     10  C   UNL     1      -0.535  -4.717   1.026  0.00  0.00    +0.277 C 
ATOM     11  O   UNL     1       0.066  -4.055  -0.090  0.00  0.00    -0.476 OA
ENDROOT
BRANCH  10  12
ATOM     12  C   UNL     1      -0.391  -6.209   0.869  0.00  0.00    +0.256 C 
ATOM     13  O   UNL     1       0.240  -6.663  -0.062  0.00  0.00    -0.272 OA
ATOM     14  N   UNL     1      -0.964  -7.039   1.763  0.00  0.00    -0.308 N 
ATOM     15  H   UNL     1      -1.468  -6.676   2.507  0.00  0.00    +0.149 HD
BRANCH  14  16
ATOM     16  C   UNL     1      -0.824  -8.489   1.610  0.00  0.00    +0.139 C 
BRANCH  16  17
ATOM     17  C   UNL     1      -1.551  -9.185   2.732  0.00  0.00    -0.030 A 
ATOM     18  C   UNL     1      -0.890  -9.473   3.911  0.00  0.00    +0.005 A 
ATOM     19  C   UNL     1      -1.557 -10.111   4.940  0.00  0.00    +0.002 A 
ATOM     20  C   UNL     1      -2.886 -10.461   4.790  0.00  0.00    -0.064 A 
ATOM     21  C   UNL     1      -3.547 -10.173   3.611  0.00  0.00    +0.002 A 
ATOM     22  C   UNL     1      -2.881  -9.531   2.584  0.00  0.00    +0.005 A 
BRANCH  20  23
ATOM     23  C   UNL     1      -3.613 -11.157   5.911  0.00  0.00    -0.043 C 
BRANCH  23  24
ATOM     24  N   UNL     1      -4.231 -10.156   6.790  0.00  0.00    +0.383 N 
ATOM     25  C   UNL     1      -3.181  -9.358   7.434  0.00  0.00    -0.078 C 
ATOM     26  C   UNL     1      -3.820  -8.261   8.288  0.00  0.00    -0.018 C 
ATOM     27  C   UNL     1      -4.703  -8.906   9.361  0.00  0.00    -0.001 C 
ATOM     28  C   UNL     1      -5.748  -9.795   8.680  0.00  0.00    -0.031 C 
ATOM     29  C   UNL     1      -5.037 -10.835   7.812  0.00  0.00    -0.075 C 
ATOM     30  C   UNL     1      -6.586 -10.505   9.746  0.00  0.00    +0.005 C 
ATOM     31  H   UNL     1      -4.824  -9.550   6.243  0.00  0.00    -0.081 HD
ENDBRANCH  23  24
ENDBRANCH  20  23
ENDBRANCH  16  17
ENDBRANCH  14  16
ENDBRANCH  10  12
BRANCH   8  32
ATOM     32  S   UNL     1      -0.302  -2.052   3.832  0.00  0.00    +0.075 S 
ATOM     33  O   UNL     1      -0.987  -0.850   3.510  0.00  0.00    -0.150 OA
ATOM     34  O   UNL     1      -0.864  -3.045   4.681  0.00  0.00    -0.150 OA
BRANCH  32  35
ATOM     35  C   UNL     1       1.232  -1.579   4.558  0.00  0.00    +0.109 A 
ATOM     36  C   UNL     1       1.896  -2.451   5.401  0.00  0.00    +0.029 A 
ATOM     37  C   UNL     1       3.100  -2.080   5.971  0.00  0.00    +0.002 A 
ATOM     38  C   UNL     1       3.640  -0.837   5.697  0.00  0.00    +0.000 A 
ATOM     39  C   UNL     1       2.977   0.034   4.853  0.00  0.00    +0.002 A 
ATOM     40  C   UNL     1       1.775  -0.339   4.280  0.00  0.00    +0.029 A 
ENDBRANCH  32  35
ENDBRANCH   8  32
TORSDOF 7
