REMARK  Name = ZINC15947354
REMARK  7 active torsions:
REMARK  status: ('A' for Active; 'I' for Inactive)
REMARK    1  A    between atoms: C_1  and  O_2
REMARK    2  A    between atoms: O_2  and  C_3
REMARK    3  A    between atoms: C_7  and  C_10
REMARK    4  A    between atoms: C_8  and  O_9
REMARK    5  A    between atoms: N_19  and  C_22
REMARK    6  A    between atoms: C_22  and  C_23
REMARK    7  A    between atoms: C_29  and  O_31
REMARK                            x       y       z     vdW  Elec       q    Type
REMARK                         _______ _______ _______ _____ _____    ______ ____
ROOT
ATOM      1  C   UNL     1       1.329  -4.110  -2.296  0.00  0.00    +0.227 C 
ATOM      2  N   UNL     1       1.482  -4.508  -3.708  0.00  0.00    -0.313 N 
ATOM      3  C   UNL     1       0.325  -4.571  -4.452  0.00  0.00    +0.080 A 
ATOM      4  C   UNL     1      -0.926  -4.785  -3.859  0.00  0.00    +0.067 A 
ATOM      5  C   UNL     1      -2.052  -4.814  -4.769  0.00  0.00    -0.027 A 
ATOM      6  C   UNL     1      -1.729  -4.638  -6.073  0.00  0.00    -0.021 A 
ATOM      7  S   UNL     1       0.029  -4.437  -6.078  0.00  0.00    -0.080 S 
ATOM      8  C   UNL     1      -2.682  -4.627  -7.226  0.00  0.00    -0.035 C 
ATOM      9  N   UNL     1      -3.960  -5.209  -6.777  0.00  0.00    +0.386 N 
ATOM     10  C   UNL     1      -4.388  -4.559  -5.532  0.00  0.00    -0.073 C 
ATOM     11  C   UNL     1      -3.506  -5.019  -4.366  0.00  0.00    +0.018 C 
ATOM     12  C   UNL     1      -0.962  -4.963  -2.384  0.00  0.00    +0.220 C 
ATOM     13  N   UNL     1       0.115  -4.665  -1.712  0.00  0.00    -0.223 NA
ATOM     14  H   UNL     1       2.349  -4.712  -4.091  0.00  0.00    +0.149 HD
ATOM     15  H   UNL     1      -3.841  -6.198  -6.616  0.00  0.00    -0.081 HD
ENDROOT
BRANCH   1  20
ATOM     16  C   UNL     1       0.606  -0.608  -1.056  0.00  0.00    +0.163 A 
ATOM     17  C   UNL     1       1.173   0.159  -2.062  0.00  0.00    +0.064 A 
ATOM     18  C   UNL     1       1.787  -0.456  -3.138  0.00  0.00    +0.022 A 
ATOM     19  C   UNL     1       1.838  -1.837  -3.212  0.00  0.00    +0.026 A 
ATOM     20  C   UNL     1       1.274  -2.607  -2.212  0.00  0.00    +0.041 A 
ATOM     21  C   UNL     1       0.662  -1.996  -1.129  0.00  0.00    +0.165 A 
ATOM     22 BR   UNL     1       2.559   0.591  -4.510  0.00  0.00    -0.050 Br
BRANCH  16  24
ATOM     23  C   UNL     1      -0.017   1.425   0.010  0.00  0.00    +0.277 C 
ATOM     24  O   UNL     1       0.002  -0.004   0.002  0.00  0.00    -0.491 OA
ENDBRANCH  16  24
BRANCH  21  25
ATOM     25  O   UNL     1       0.111  -2.752  -0.141  0.00  0.00    -0.503 OA
ATOM     26  H   UNL     1      -0.817  -2.979  -0.291  0.00  0.00    +0.292 HD
ENDBRANCH  21  25
ENDBRANCH   1  20
BRANCH  12  27
ATOM     27  O   UNL     1      -2.074  -5.418  -1.761  0.00  0.00    -0.492 OA
ATOM     28  H   UNL     1      -1.983  -5.494  -0.801  0.00  0.00    +0.294 HD
ENDBRANCH  12  27
BRANCH   9  29
ATOM     29  C   UNL     1      -4.982  -5.003  -7.812  0.00  0.00    -0.043 C 
BRANCH  29  30
ATOM     30  C   UNL     1      -4.605  -5.774  -9.051  0.00  0.00    -0.064 A 
ATOM     31  C   UNL     1      -3.823  -5.181 -10.024  0.00  0.00    +0.002 A 
ATOM     32  C   UNL     1      -3.477  -5.888 -11.160  0.00  0.00    +0.000 A 
ATOM     33  C   UNL     1      -3.914  -7.190 -11.323  0.00  0.00    +0.000 A 
ATOM     34  C   UNL     1      -4.695  -7.784 -10.350  0.00  0.00    +0.000 A 
ATOM     35  C   UNL     1      -5.037  -7.078  -9.212  0.00  0.00    +0.002 A 
ENDBRANCH  29  30
ENDBRANCH   9  29
TORSDOF 6
