REMARK  Name = ZINC03628263
REMARK  18 active torsions:
REMARK  status: ('A' for Active; 'I' for Inactive)
REMARK    1  A    between atoms: C_1  and  C_2
REMARK    2  A    between atoms: C_2  and  CA_3
REMARK    3  A    between atoms: CA_3  and  C_5
REMARK    4  A    between atoms: CA_3  and  N_66
REMARK    5  A    between atoms: C_5  and  O_6
REMARK    6  A    between atoms: C_7  and  C_8
REMARK    7  A    between atoms: C_7  and  N_66
REMARK    8  A    between atoms: C_8  and  C_10
REMARK    9  A    between atoms: C_8  and  O_34
REMARK   10  A    between atoms: C_10  and  O_11
REMARK   11  A    between atoms: O_11  and  C_12
REMARK   12  A    between atoms: C_18  and  C_29
REMARK   13  A    between atoms: C_19  and  C_28
REMARK   14  A    between atoms: N_20  and  C_21
REMARK   15  A    between atoms: C_24  and  C_27
REMARK   16  A    between atoms: C_29  and  O_31
REMARK   17  A    between atoms: O_31  and  C_32
REMARK   18  A    between atoms: C_32  and  C_33
REMARK                            x       y       z     vdW  Elec       q    Type
REMARK                         _______ _______ _______ _____ _____    ______ ____
ROOT
ATOM      1  C   UNL     1       5.451   1.702   2.626  0.00  0.00    +0.121 A 
ATOM      2  C   UNL     1       6.003   2.594   1.711  0.00  0.00    +0.048 A 
ATOM      3  C   UNL     1       7.264   3.110   1.911  0.00  0.00    +0.030 A 
ATOM      4  C   UNL     1       8.002   2.732   3.028  0.00  0.00    +0.055 A 
ATOM      5  C   UNL     1       7.448   1.829   3.948  0.00  0.00    +0.018 A 
ATOM      6  C   UNL     1       6.170   1.316   3.741  0.00  0.00    +0.056 A 
ATOM      7  C   UNL     1       8.468   1.642   4.997  0.00  0.00    +0.088 A 
ATOM      8  C   UNL     1       9.532   2.422   4.646  0.00  0.00    +0.036 A 
ATOM      9  N   UNL     1       9.264   3.068   3.485  0.00  0.00    -0.312 N 
ATOM     10  C   UNL     1      10.812   2.546   5.431  0.00  0.00    +0.065 C 
ENDROOT
BRANCH   9  11
ATOM     11  C   UNL     1      10.139   3.951   2.840  0.00  0.00    +0.047 A 
ATOM     12  C   UNL     1       9.804   5.292   2.709  0.00  0.00    +0.026 A 
ATOM     13  C   UNL     1      10.671   6.161   2.077  0.00  0.00    +0.005 A 
ATOM     14  C   UNL     1      11.869   5.694   1.566  0.00  0.00    -0.050 A 
ATOM     15  C   UNL     1      12.203   4.358   1.690  0.00  0.00    +0.005 A 
ATOM     16  C   UNL     1      11.342   3.486   2.325  0.00  0.00    +0.026 A 
ATOM     17  C   UNL     1      12.811   6.644   0.872  0.00  0.00    +0.044 C 
ENDBRANCH   9  11
BRANCH   7  18
ATOM     18  C   UNL     1       8.360   0.786   6.183  0.00  0.00    +0.342 C 
ATOM     19  O   UNL     1       8.727  -0.372   6.133  0.00  0.00    -0.245 OA
BRANCH  18  20
ATOM     20  O   UNL     1       7.855   1.284   7.330  0.00  0.00    -0.461 OA
BRANCH  20  21
ATOM     21  C   UNL     1       7.778   0.380   8.464  0.00  0.00    +0.229 C 
ATOM     22  C   UNL     1       7.184   1.118   9.665  0.00  0.00    +0.048 C 
ENDBRANCH  20  21
ENDBRANCH  18  20
ENDBRANCH   7  18
BRANCH   1  23
ATOM     23  O   UNL     1       4.202   1.205   2.418  0.00  0.00    -0.489 OA
BRANCH  23  24
ATOM     24  C   UNL     1       3.515   1.646   1.246  0.00  0.00    +0.258 C 
BRANCH  24  25
ATOM     25  C   UNL     1       2.136   0.985   1.184  0.00  0.00    +0.135 C 
BRANCH  25  26
ATOM     26  O   UNL     1       2.292  -0.427   1.022  0.00  0.00    -0.390 OA
ATOM     27  H   UNL     1       2.767  -0.681   0.219  0.00  0.00    +0.210 HD
ENDBRANCH  25  26
BRANCH  25  28
ATOM     28  C   UNL     1       1.353   1.550  -0.003  0.00  0.00    -0.047 C 
BRANCH  28  29
ATOM     29  N   UNL     1      -0.015   0.998   0.015  0.00  0.00    +0.384 N 
ATOM     30  H1  UNL     1       0.032  -0.025  -0.054  0.00  0.00    -0.085 HD
ATOM     31  H2  UNL     1      -0.475   1.261   0.894  0.00  0.00    -0.085 HD
BRANCH  29  32
ATOM     32  CA  UNL     1      -0.795   1.527  -1.120  0.00  0.00    -0.046 C 
BRANCH  32  34
ATOM     33  C   UNL     1      -1.307  -0.768  -1.964  0.00  0.00    +0.002 C 
ATOM     34  C   UNL     1      -1.916   0.542  -1.461  0.00  0.00    -0.017 C 
ENDBRANCH  32  34
BRANCH  32  35
ATOM     35  C   UNL     1      -1.403   2.878  -0.736  0.00  0.00    +0.140 C 
BRANCH  35  36
ATOM     36  O   UNL     1      -2.342   2.694   0.324  0.00  0.00    -0.397 OA
ATOM     37  H   UNL     1      -2.768   3.511   0.619  0.00  0.00    +0.209 HD
ENDBRANCH  35  36
ENDBRANCH  32  35
ENDBRANCH  29  32
ENDBRANCH  28  29
ENDBRANCH  25  28
ENDBRANCH  24  25
ENDBRANCH  23  24
ENDBRANCH   1  23
TORSDOF 14
