REMARK  Name = ZINC64198339
REMARK  6 active torsions:
REMARK  status: ('A' for Active; 'I' for Inactive)
REMARK    1  A    between atoms: C_1  and  C_2
REMARK    2  A    between atoms: C_2  and  C_3
REMARK    3  A    between atoms: C_3  and  N_4
REMARK    4  A    between atoms: C_11  and  O_30
REMARK    5  A    between atoms: C_13  and  C_16
REMARK    6  A    between atoms: C_16  and  N_18
REMARK                            x       y       z     vdW  Elec       q    Type
REMARK                         _______ _______ _______ _____ _____    ______ ____
ROOT
ATOM      1  N   UNL     1      -1.313  -1.979   0.003  0.00  0.00    -0.267 N 
ATOM      2  C   UNL     1      -1.247  -2.602  -1.246  0.00  0.00    +0.043 A 
ATOM      3  C   UNL     1      -1.518  -1.873  -2.397  0.00  0.00    +0.024 A 
ATOM      4  C   UNL     1      -1.457  -2.486  -3.632  0.00  0.00    +0.002 A 
ATOM      5  C   UNL     1      -1.128  -3.827  -3.722  0.00  0.00    +0.000 A 
ATOM      6  C   UNL     1      -0.857  -4.554  -2.579  0.00  0.00    +0.008 A 
ATOM      7  C   UNL     1      -0.913  -3.946  -1.337  0.00  0.00    +0.007 A 
ATOM      8  C   UNL     1      -0.605  -4.748  -0.104  0.00  0.00    +0.187 C 
ATOM      9  C   UNL     1      -1.091  -4.051   1.133  0.00  0.00    +0.111 C 
ATOM     10  C   UNL     1      -1.404  -2.738   1.142  0.00  0.00    +0.255 C 
ATOM     11  O   UNL     1      -1.821  -2.164   2.292  0.00  0.00    -0.270 OA
ENDROOT
BRANCH   9  12
ATOM     12  C   UNL     1      -1.218  -4.793   2.329  0.00  0.00    +0.273 C 
ATOM     13  O   UNL     1      -1.712  -4.275   3.319  0.00  0.00    -0.268 OA
BRANCH  12  14
ATOM     14  N   UNL     1      -0.797  -6.069   2.377  0.00  0.00    -0.152 NA
ATOM     15  C   UNL     1      -0.917  -6.765   3.498  0.00  0.00    +0.164 A 
ATOM     16  N   UNL     1      -1.440  -6.372   4.696  0.00  0.00    -0.335 N 
ATOM     17  H   UNL     1      -1.786  -5.472   4.800  0.00  0.00    +0.168 HD
ATOM     18  C   UNL     1      -1.478  -7.254   5.763  0.00  0.00    +0.055 A 
ATOM     19  C   UNL     1      -1.978  -7.013   7.054  0.00  0.00    +0.029 A 
ATOM     20  C   UNL     1      -1.948  -7.993   8.017  0.00  0.00    +0.040 A 
ATOM     21  C   UNL     1      -1.425  -9.249   7.749  0.00  0.00    +0.125 A 
ATOM     22  C   UNL     1      -0.925  -9.514   6.484  0.00  0.00    +0.055 A 
ATOM     23  C   UNL     1      -0.956  -8.533   5.522  0.00  0.00    +0.041 A 
ATOM     24  S   UNL     1      -0.443  -8.455   3.823  0.00  0.00    -0.052 S 
ATOM     25  F   UNL     1      -1.402 -10.200   8.708  0.00  0.00    -0.205 F 
ENDBRANCH  12  14
ENDBRANCH   9  12
BRANCH   8  26
ATOM     26  O   UNL     1      -1.244  -6.023  -0.203  0.00  0.00    -0.382 OA
ATOM     27  H   UNL     1      -0.994  -6.643   0.496  0.00  0.00    +0.211 HD
ENDBRANCH   8  26
BRANCH   1  28
ATOM     28  C   UNL     1      -1.278  -0.518   0.097  0.00  0.00    +0.114 C 
BRANCH  28  30
ATOM     29  C   UNL     1       0.209   1.478   0.316  0.00  0.00    +0.005 C 
ATOM     30  C   UNL     1       0.173  -0.049   0.219  0.00  0.00    +0.016 C 
ENDBRANCH  28  30
ENDBRANCH   1  28
TORSDOF 5
