REMARK  Name = ZINC39660428
REMARK  10 active torsions:
REMARK  status: ('A' for Active; 'I' for Inactive)
REMARK    1  A    between atoms: C_1  and  C_2
REMARK    2  A    between atoms: C_2  and  C_3
REMARK    3  A    between atoms: C_3  and  C_4
REMARK    4  A    between atoms: C_4  and  C_5
REMARK    5  A    between atoms: C_5  and  C_6
REMARK    6  A    between atoms: C_6  and  N_7
REMARK    7  A    between atoms: C_8  and  C_10
REMARK    8  A    between atoms: C_21  and  C_23
REMARK    9  A    between atoms: C_26  and  C_30
REMARK   10  A    between atoms: C_28  and  C_29
REMARK                            x       y       z     vdW  Elec       q    Type
REMARK                         _______ _______ _______ _____ _____    ______ ____
ROOT
ATOM      1  C   UNL     1      -5.223  -6.627  -0.104  0.00  0.00    +0.100 C 
ATOM      2  C   UNL     1      -6.161  -5.998  -1.159  0.00  0.00    +0.121 C 
ATOM      3  N   UNL     1      -6.289  -7.033  -2.211  0.00  0.00    -0.296 N 
ATOM      4  C   UNL     1      -6.369  -8.311  -1.463  0.00  0.00    +0.115 C 
ATOM      5  C   UNL     1      -5.365  -8.145  -0.305  0.00  0.00    -0.004 C 
ATOM      6  C   UNL     1      -4.020  -8.757  -0.683  0.00  0.00    -0.010 C 
ATOM      7  C   UNL     1      -4.175 -10.274  -0.822  0.00  0.00    -0.082 C 
ATOM      8  N   UNL     1      -4.651 -10.837   0.447  0.00  0.00    +0.379 N 
ATOM      9  C   UNL     1      -5.987 -10.313   0.757  0.00  0.00    -0.082 C 
ATOM     10  C   UNL     1      -5.909  -8.798   0.962  0.00  0.00    -0.010 C 
ATOM     11  C   UNL     1      -6.326  -6.854  -3.547  0.00  0.00    +0.247 C 
ATOM     12  O   UNL     1      -6.533  -7.800  -4.281  0.00  0.00    -0.270 OA
ATOM     13  H   UNL     1      -4.695 -11.842   0.372  0.00  0.00    -0.086 HD
ATOM     14  H   UNL     1      -4.013 -10.584   1.186  0.00  0.00    -0.086 HD
ENDROOT
BRANCH  11  15
ATOM     15  C   UNL     1      -6.113  -5.507  -4.118  0.00  0.00    +0.040 A 
ATOM     16  C   UNL     1      -6.594  -4.379  -3.451  0.00  0.00    +0.013 A 
ATOM     17  C   UNL     1      -6.392  -3.125  -3.989  0.00  0.00    +0.004 A 
ATOM     18  C   UNL     1      -5.714  -2.984  -5.187  0.00  0.00    -0.050 A 
ATOM     19  C   UNL     1      -5.234  -4.098  -5.853  0.00  0.00    +0.007 A 
ATOM     20  C   UNL     1      -5.425  -5.357  -5.323  0.00  0.00    -0.038 A 
ATOM     21  C   UNL     1      -4.897  -6.569  -6.046  0.00  0.00    +0.044 C 
ATOM     22  C   UNL     1      -5.497  -1.611  -5.769  0.00  0.00    +0.044 C 
ENDBRANCH  11  15
BRANCH   1  24
ATOM     23  N   UNL     1      -2.937  -6.110   0.687  0.00  0.00    -0.315 N 
ATOM     24  C   UNL     1      -3.799  -6.197  -0.345  0.00  0.00    +0.218 C 
ATOM     25  O   UNL     1      -3.428  -5.929  -1.469  0.00  0.00    -0.275 OA
ATOM     26  H   UNL     1      -3.234  -6.325   1.586  0.00  0.00    +0.149 HD
BRANCH  23  27
ATOM     27  C   UNL     1      -1.553  -5.692   0.453  0.00  0.00    +0.104 C 
BRANCH  27  28
ATOM     28  C   UNL     1      -0.793  -5.677   1.781  0.00  0.00    +0.019 C 
BRANCH  28  29
ATOM     29  C   UNL     1       0.653  -5.241   1.536  0.00  0.00    +0.002 C 
BRANCH  29  30
ATOM     30  C   UNL     1       1.413  -5.226   2.864  0.00  0.00    -0.000 C 
BRANCH  30  32
ATOM     31  C   UNL     1       3.619  -4.774   3.947  0.00  0.00    +0.004 C 
ATOM     32  C   UNL     1       2.859  -4.789   2.619  0.00  0.00    -0.003 C 
ENDBRANCH  30  32
ENDBRANCH  29  30
ENDBRANCH  28  29
ENDBRANCH  27  28
ENDBRANCH  23  27
ENDBRANCH   1  24
TORSDOF 7
