REMARK  Name = ZINC01131146
REMARK  8 active torsions:
REMARK  status: ('A' for Active; 'I' for Inactive)
REMARK    1  A    between atoms: C_1  and  C_2
REMARK    2  A    between atoms: C_3  and  C_21
REMARK    3  A    between atoms: C_4  and  C_10
REMARK    4  A    between atoms: C_12  and  O_19
REMARK    5  A    between atoms: C_13  and  O_17
REMARK    6  A    between atoms: O_17  and  C_18
REMARK    7  A    between atoms: O_19  and  C_20
REMARK    8  A    between atoms: N_23  and  C_24
REMARK                            x       y       z     vdW  Elec       q    Type
REMARK                         _______ _______ _______ _____ _____    ______ ____
ROOT
ATOM      1  C   UNL     1       4.099   3.380   1.650  0.00  0.00    +0.061 C 
ATOM      2  C   UNL     1       2.960   4.130   1.008  0.00  0.00    +0.017 C 
ATOM      3  C   UNL     1       1.905   3.444   0.520  0.00  0.00    +0.056 C 
ATOM      4  C   UNL     1       0.784   4.236  -0.122  0.00  0.00    +0.139 C 
ATOM      5  N   UNL     1       0.934   5.701  -0.150  0.00  0.00    -0.315 N 
ATOM      6  C   UNL     1       2.049   6.242   0.380  0.00  0.00    +0.135 C 
ATOM      7  S   UNL     1       2.239   7.943   0.348  0.00  0.00    -0.019 S 
ATOM      8  N   UNL     1       3.012   5.492   0.931  0.00  0.00    -0.300 N 
ATOM      9  H   UNL     1       0.248   6.262  -0.545  0.00  0.00    +0.149 HD
ATOM     10  H   UNL     1       3.790   5.942   1.295  0.00  0.00    +0.154 HD
ENDROOT
BRANCH   4  11
ATOM     11  C   UNL     1      -0.491   3.918   0.614  0.00  0.00    -0.018 A 
ATOM     12  C   UNL     1      -1.412   3.050   0.056  0.00  0.00    +0.055 A 
ATOM     13  C   UNL     1      -2.583   2.752   0.734  0.00  0.00    +0.163 A 
ATOM     14  C   UNL     1      -2.834   3.335   1.972  0.00  0.00    +0.180 A 
ATOM     15  C   UNL     1      -1.910   4.208   2.524  0.00  0.00    +0.086 A 
ATOM     16  C   UNL     1      -0.740   4.497   1.844  0.00  0.00    +0.029 A 
ATOM     17 CL   UNL     1      -2.220   4.939   4.068  0.00  0.00    -0.080 Cl
BRANCH  14  18
ATOM     18  O   UNL     1      -3.985   3.050   2.639  0.00  0.00    -0.490 OA
ATOM     19  C   UNL     1      -5.111   3.890   2.379  0.00  0.00    +0.277 C 
ENDBRANCH  14  18
BRANCH  13  20
ATOM     20  O   UNL     1      -3.487   1.895   0.189  0.00  0.00    -0.491 OA
ATOM     21  C   UNL     1      -3.131   1.279  -1.051  0.00  0.00    +0.277 C 
ENDBRANCH  13  20
ENDBRANCH   4  11
BRANCH   3  22
ATOM     22  C   UNL     1       1.851   2.031   0.599  0.00  0.00    +0.248 C 
ATOM     23  O   UNL     1       2.020   1.358  -0.401  0.00  0.00    -0.270 OA
ATOM     24  N   UNL     1       1.611   1.431   1.782  0.00  0.00    -0.282 N 
ATOM     25  H   UNL     1       1.365   1.963   2.555  0.00  0.00    +0.155 HD
BRANCH  24  26
ATOM     26  C   UNL     1       1.711   0.041   1.894  0.00  0.00    +0.034 A 
ATOM     27  C   UNL     1       1.277  -0.774   0.856  0.00  0.00    +0.023 A 
ATOM     28  C   UNL     1       1.382  -2.147   0.968  0.00  0.00    +0.002 A 
ATOM     29  C   UNL     1       1.908  -2.710   2.116  0.00  0.00    +0.000 A 
ATOM     30  C   UNL     1       2.336  -1.902   3.154  0.00  0.00    +0.002 A 
ATOM     31  C   UNL     1       2.239  -0.529   3.046  0.00  0.00    +0.023 A 
ENDBRANCH  24  26
ENDBRANCH   3  22
TORSDOF 5
