REMARK  Name = ZINC44695561
REMARK  5 active torsions:
REMARK  status: ('A' for Active; 'I' for Inactive)
REMARK    1  A    between atoms: C_7  and  C_11
REMARK    2  A    between atoms: C_11  and  C_12
REMARK    3  A    between atoms: C_12  and  N_13
REMARK    4  A    between atoms: C_14  and  C_16
REMARK    5  A    between atoms: C_27  and  C_29
REMARK                            x       y       z     vdW  Elec       q    Type
REMARK                         _______ _______ _______ _____ _____    ______ ____
ROOT
ATOM      1  C   UNL     1      -2.685  -6.401  -2.548  0.00  0.00    +0.100 C 
ATOM      2  C   UNL     1      -1.760  -7.564  -2.123  0.00  0.00    +0.121 C 
ATOM      3  N   UNL     1      -2.141  -8.688  -3.011  0.00  0.00    -0.296 N 
ATOM      4  C   UNL     1      -2.377  -8.053  -4.329  0.00  0.00    +0.115 C 
ATOM      5  C   UNL     1      -3.087  -6.725  -3.997  0.00  0.00    -0.004 C 
ATOM      6  C   UNL     1      -2.609  -5.622  -4.937  0.00  0.00    -0.010 C 
ATOM      7  C   UNL     1      -3.071  -5.938  -6.362  0.00  0.00    -0.082 C 
ATOM      8  N   UNL     1      -4.536  -6.035  -6.394  0.00  0.00    +0.379 N 
ATOM      9  C   UNL     1      -4.981  -7.158  -5.559  0.00  0.00    -0.082 C 
ATOM     10  C   UNL     1      -4.599  -6.894  -4.100  0.00  0.00    -0.010 C 
ATOM     11  C   UNL     1      -2.248  -9.993  -2.692  0.00  0.00    +0.248 C 
ATOM     12  O   UNL     1      -2.481 -10.814  -3.559  0.00  0.00    -0.270 OA
ATOM     13  H   UNL     1      -4.936  -5.178  -6.043  0.00  0.00    -0.086 HD
ATOM     14  H   UNL     1      -4.841  -6.182  -7.344  0.00  0.00    -0.086 HD
ENDROOT
BRANCH  11  15
ATOM     15  C   UNL     1      -2.083 -10.424  -1.298  0.00  0.00    +0.052 A 
ATOM     16  C   UNL     1      -1.209  -9.795  -0.469  0.00  0.00    +0.059 A 
ATOM     17  S   UNL     1      -1.336 -10.592   1.001  0.00  0.00    -0.096 S 
ATOM     18  C   UNL     1      -2.559 -11.808   0.594  0.00  0.00    +0.020 A 
ATOM     19  C   UNL     1      -2.860 -11.541  -0.755  0.00  0.00    +0.001 A 
ATOM     20  C   UNL     1      -3.825 -12.357  -1.375  0.00  0.00    +0.010 A 
ATOM     21  C   UNL     1      -4.439 -13.363  -0.671  0.00  0.00    +0.001 A 
ATOM     22  C   UNL     1      -4.130 -13.602   0.660  0.00  0.00    +0.001 A 
ATOM     23  C   UNL     1      -3.179 -12.823   1.290  0.00  0.00    +0.015 A 
ENDBRANCH  11  15
BRANCH   1  25
ATOM     24  N   UNL     1      -2.610  -3.947  -2.244  0.00  0.00    -0.315 N 
ATOM     25  C   UNL     1      -1.941  -5.092  -2.490  0.00  0.00    +0.218 C 
ATOM     26  O   UNL     1      -0.741  -5.067  -2.664  0.00  0.00    -0.275 OA
ATOM     27  H   UNL     1      -3.569  -3.967  -2.105  0.00  0.00    +0.149 HD
BRANCH  24  28
ATOM     28  C   UNL     1      -1.887  -2.675  -2.188  0.00  0.00    +0.109 C 
BRANCH  28  29
ATOM     29  C   UNL     1      -2.872  -1.541  -1.897  0.00  0.00    +0.056 C 
BRANCH  29  36
ATOM     30  C   UNL     1      -1.528   1.531  -5.172  0.00  0.00    +0.001 A 
ATOM     31  C   UNL     1      -0.853   2.623  -4.645  0.00  0.00    +0.002 A 
ATOM     32  C   UNL     1      -0.635   2.727  -3.289  0.00  0.00    +0.026 A 
ATOM     33  C   UNL     1      -1.097   1.729  -2.437  0.00  0.00    +0.047 A 
ATOM     34  C   UNL     1      -1.781   0.624  -2.976  0.00  0.00    +0.003 A 
ATOM     35  C   UNL     1      -1.990   0.539  -4.354  0.00  0.00    +0.010 A 
ATOM     36  C   UNL     1      -2.129  -0.231  -1.839  0.00  0.00    -0.021 A 
ATOM     37  C   UNL     1      -1.659   0.372  -0.736  0.00  0.00    +0.087 A 
ATOM     38  N   UNL     1      -1.040   1.545  -1.073  0.00  0.00    -0.360 N 
ATOM     39  H   UNL     1      -0.623   2.156  -0.446  0.00  0.00    +0.165 HD
ENDBRANCH  29  36
ENDBRANCH  28  29
ENDBRANCH  24  28
ENDBRANCH   1  25
TORSDOF 5
