REMARK  Name = ZINC19265498
REMARK  9 active torsions:
REMARK  status: ('A' for Active; 'I' for Inactive)
REMARK    1  A    between atoms: C_1  and  C_2
REMARK    2  A    between atoms: C_2  and  C_4
REMARK    3  A    between atoms: C_2  and  O_17
REMARK    4  A    between atoms: N_6  and  C_7
REMARK    5  A    between atoms: C_10  and  S_13
REMARK    6  A    between atoms: S_13  and  N_16
REMARK    7  A    between atoms: O_17  and  C_18
REMARK    8  A    between atoms: C_18  and  C_20
REMARK    9  A    between atoms: C_23  and  C_25
REMARK                            x       y       z     vdW  Elec       q    Type
REMARK                         _______ _______ _______ _____ _____    ______ ____
ROOT
ATOM      1  C   UNL     1       2.410  -2.734  -0.138  0.00  0.00    +0.258 C 
ATOM      2  O   UNL     1       3.452  -2.114  -0.144  0.00  0.00    -0.271 OA
ATOM      3  N   UNL     1       1.237  -2.079  -0.021  0.00  0.00    -0.282 N 
ATOM      4  H   UNL     1       0.298  -2.645   0.072  0.00  0.00    +0.155 HD
ENDROOT
BRANCH   3   5
ATOM      5  C   UNL     1       1.214  -0.680  -0.019  0.00  0.00    +0.034 A 
ATOM      6  C   UNL     1       2.137   0.032  -0.773  0.00  0.00    +0.025 A 
ATOM      7  C   UNL     1       2.112   1.413  -0.768  0.00  0.00    +0.030 A 
ATOM      8  C   UNL     1       1.169   2.086  -0.013  0.00  0.00    +0.105 A 
ATOM      9  C   UNL     1       0.249   1.380   0.739  0.00  0.00    +0.030 A 
ATOM     10  C   UNL     1       0.269  -0.001   0.738  0.00  0.00    +0.025 A 
BRANCH   8  11
ATOM     11  S   UNL     1       1.141   3.848  -0.009  0.00  0.00    +0.056 S 
ATOM     12  O   UNL     1       0.513   4.241   1.203  0.00  0.00    -0.153 OA
ATOM     13  O   UNL     1       2.449   4.276  -0.363  0.00  0.00    -0.153 OA
BRANCH  11  14
ATOM     14  N   UNL     1       0.139   4.324  -1.238  0.00  0.00    -0.204 NA
ATOM     15  H   UNL     1       0.094   5.423  -1.270  0.00  0.00    +0.144 HD
ATOM     16  H   UNL     1      -0.870   3.921  -1.066  0.00  0.00    +0.144 HD
ENDBRANCH  11  14
ENDBRANCH   8  11
ENDBRANCH   3   5
BRANCH   1  18
ATOM     17  C   UNL     1       1.892  -4.858   1.032  0.00  0.00    +0.062 C 
ATOM     18  C   UNL     1       2.425  -4.236  -0.260  0.00  0.00    +0.259 C 
BRANCH  18  19
ATOM     19  O   UNL     1       3.785  -4.689  -0.490  0.00  0.00    -0.448 OA
BRANCH  19  20
ATOM     20  C   UNL     1       3.941  -5.817  -1.211  0.00  0.00    +0.359 C 
ATOM     21  O   UNL     1       2.966  -6.407  -1.636  0.00  0.00    -0.243 OA
BRANCH  20  22
ATOM     22  C   UNL     1       5.291  -6.335  -1.484  0.00  0.00    +0.155 A 
ATOM     23  C   UNL     1       5.460  -7.484  -2.217  0.00  0.00    +0.082 A 
ATOM     24  S   UNL     1       7.190  -7.634  -2.236  0.00  0.00    -0.074 S 
ATOM     25  C   UNL     1       7.568  -6.176  -1.278  0.00  0.00    +0.116 A 
ATOM     26  N   UNL     1       6.360  -5.697  -1.030  0.00  0.00    -0.232 NA
BRANCH  25  27
ATOM     27  C   UNL     1       8.879  -5.643  -0.876  0.00  0.00    +0.044 A 
ATOM     28  C   UNL     1      10.131  -6.141  -1.135  0.00  0.00    +0.018 A 
ATOM     29  C   UNL     1      11.226  -5.461  -0.652  0.00  0.00    +0.008 A 
ATOM     30  C   UNL     1      11.035  -4.327   0.072  0.00  0.00    +0.046 A 
ATOM     31  S   UNL     1       9.255  -4.185   0.083  0.00  0.00    -0.095 S 
ENDBRANCH  25  27
ENDBRANCH  20  22
ENDBRANCH  19  20
ENDBRANCH  18  19
ENDBRANCH   1  18
TORSDOF 8
