REMARK  Name = ZINC12820069
REMARK  11 active torsions:
REMARK  status: ('A' for Active; 'I' for Inactive)
REMARK    1  A    between atoms: C_1  and  C_2
REMARK    2  A    between atoms: C_2  and  C_3
REMARK    3  A    between atoms: C_3  and  C_4
REMARK    4  A    between atoms: C_4  and  N_5
REMARK    5  A    between atoms: C_6  and  N_34
REMARK    6  A    between atoms: C_7  and  N_14
REMARK    7  A    between atoms: N_14  and  C_15
REMARK    8  A    between atoms: C_15  and  C_16
REMARK    9  A    between atoms: C_17  and  C_19
REMARK   10  A    between atoms: C_19  and  N_63
REMARK   11  A    between atoms: C_23  and  C_25
REMARK                            x       y       z     vdW  Elec       q    Type
REMARK                         _______ _______ _______ _____ _____    ______ ____
ROOT
ATOM      1  N   UNL     1      -1.185   4.302   3.329  0.00  0.00    -0.266 N 
ATOM      2  C   UNL     1      -0.109   4.988   2.890  0.00  0.00    +0.203 C 
ATOM      3  O   UNL     1       0.407   4.695   1.832  0.00  0.00    -0.277 OA
ENDROOT
BRANCH   1   6
ATOM      4  N   UNL     1      -3.293   2.109   1.267  0.00  0.00    -0.280 N 
ATOM      5  C   UNL     1      -2.865   3.220   1.957  0.00  0.00    +0.127 A 
ATOM      6  C   UNL     1      -1.649   3.181   2.608  0.00  0.00    +0.140 A 
ATOM      7  C   UNL     1      -0.877   2.006   2.538  0.00  0.00    +0.277 A 
ATOM      8  O   UNL     1       0.203   1.947   3.100  0.00  0.00    -0.266 OA
ATOM      9  N   UNL     1      -1.340   0.948   1.844  0.00  0.00    -0.273 N 
ATOM     10  H   UNL     1      -0.793   0.113   1.793  0.00  0.00    +0.173 HD
ATOM     11  C   UNL     1      -2.530   1.002   1.219  0.00  0.00    +0.331 A 
ATOM     12  O   UNL     1      -2.924   0.032   0.600  0.00  0.00    -0.246 OA
BRANCH   5  13
ATOM     13  N   UNL     1      -3.642   4.353   2.000  0.00  0.00    -0.343 N 
ATOM     14  H   UNL     1      -4.541   4.339   1.636  0.00  0.00    +0.144 HD
ATOM     15  H   UNL     1      -3.291   5.166   2.395  0.00  0.00    +0.144 HD
ENDBRANCH   5  13
BRANCH   4  16
ATOM     16  C   UNL     1      -4.584   2.134   0.576  0.00  0.00    +0.128 C 
BRANCH  16  17
ATOM     17  C   UNL     1      -5.680   1.646   1.525  0.00  0.00    +0.021 C 
BRANCH  17  19
ATOM     18  C   UNL     1      -8.125   1.184   1.752  0.00  0.00    +0.004 C 
ATOM     19  C   UNL     1      -7.029   1.672   0.803  0.00  0.00    -0.002 C 
ENDBRANCH  17  19
ENDBRANCH  16  17
ENDBRANCH   4  16
ENDBRANCH   1   6
BRANCH   1  20
ATOM     20  C   UNL     1      -1.873   4.722   4.552  0.00  0.00    +0.110 C 
ATOM     21  C   UNL     1      -1.202   4.070   5.763  0.00  0.00    +0.025 C 
ENDBRANCH   1  20
BRANCH   2  22
ATOM     22  C   UNL     1       0.453   6.117   3.716  0.00  0.00    +0.020 C 
BRANCH  22  27
ATOM     23  C   UNL     1       2.750   5.581   3.134  0.00  0.00    -0.077 C 
ATOM     24  C   UNL     1       4.089   6.320   3.312  0.00  0.00    -0.020 C 
ATOM     25  C   UNL     1       3.715   7.818   3.401  0.00  0.00    -0.010 C 
ATOM     26  C   UNL     1       2.228   7.778   3.835  0.00  0.00    -0.011 C 
ATOM     27  N   UNL     1       1.715   6.620   3.095  0.00  0.00    +0.391 N 
ATOM     28  H   UNL     1       1.528   6.887   2.121  0.00  0.00    -0.080 HD
BRANCH  26  29
ATOM     29  C   UNL     1       1.520   9.043   3.424  0.00  0.00    +0.066 A 
ATOM     30  N   UNL     1       1.060   9.996   4.184  0.00  0.00    -0.246 NA
ATOM     31  C   UNL     1       0.440  11.086   3.685  0.00  0.00    +0.078 A 
ATOM     32  C   UNL     1      -0.107  12.192   4.373  0.00  0.00    +0.029 A 
ATOM     33  C   UNL     1      -0.700  13.209   3.692  0.00  0.00    +0.002 A 
ATOM     34  C   UNL     1      -0.789  13.204   2.307  0.00  0.00    +0.001 A 
ATOM     35  C   UNL     1      -0.265  12.140   1.597  0.00  0.00    +0.017 A 
ATOM     36  C   UNL     1       0.335  11.107   2.276  0.00  0.00    +0.039 A 
ATOM     37  S   UNL     1       1.129   9.586   1.821  0.00  0.00    -0.074 S 
ENDBRANCH  26  29
ENDBRANCH  22  27
ENDBRANCH   2  22
TORSDOF 9
