REMARK  Name = ZINC45047589
REMARK  8 active torsions:
REMARK  status: ('A' for Active; 'I' for Inactive)
REMARK    1  A    between atoms: C_1  and  C_2
REMARK    2  A    between atoms: C_2  and  C_3
REMARK    3  A    between atoms: C_2  and  C_4
REMARK    4  A    between atoms: C_4  and  C_6
REMARK    5  A    between atoms: C_4  and  C_10
REMARK    6  A    between atoms: N_7  and  O_8
REMARK    7  A    between atoms: N_12  and  C_13
REMARK    8  A    between atoms: C_13  and  C_19
REMARK                            x       y       z     vdW  Elec       q    Type
REMARK                         _______ _______ _______ _____ _____    ______ ____
ROOT
ATOM      1  C   UNL     1      -1.375  -0.349   0.019  0.00  0.00    +0.144 C 
ENDROOT
BRANCH   1   2
ATOM      2  C   UNL     1      -2.446   0.091  -0.946  0.00  0.00    +0.144 C 
ATOM      3  N   UNL     1      -2.160   0.259  -2.195  0.00  0.00    -0.076 NA
ATOM      4  N   UNL     1      -3.728   0.313  -0.496  0.00  0.00    -0.343 N 
ATOM      5  H   UNL     1      -3.942   0.186   0.441  0.00  0.00    +0.144 HD
ATOM      6  H   UNL     1      -4.418   0.596  -1.117  0.00  0.00    +0.144 HD
BRANCH   3   7
ATOM      7  O   UNL     1      -3.167   0.673  -3.101  0.00  0.00    -0.408 OA
ATOM      8  H   UNL     1      -2.858   0.772  -4.012  0.00  0.00    +0.328 HD
ENDBRANCH   3   7
ENDBRANCH   1   2
BRANCH   1   9
ATOM      9  C   UNL     1      -1.425  -1.847   0.176  0.00  0.00    +0.224 C 
ATOM     10  O   UNL     1      -1.865  -2.537  -0.720  0.00  0.00    -0.275 OA
ATOM     11  N   UNL     1      -0.981  -2.421   1.312  0.00  0.00    -0.309 N 
ATOM     12  H   UNL     1      -0.557  -1.879   1.996  0.00  0.00    +0.149 HD
BRANCH  11  13
ATOM     13  C   UNL     1      -1.138  -3.864   1.514  0.00  0.00    +0.032 C 
ATOM     14  C   UNL     1      -2.624  -4.225   1.473  0.00  0.00    +0.025 C 
ATOM     15  C   UNL     1      -3.363  -3.472   2.581  0.00  0.00    +0.002 C 
ATOM     16  C   UNL     1      -2.779  -3.863   3.941  0.00  0.00    +0.000 C 
ATOM     17  C   UNL     1      -1.293  -3.501   3.981  0.00  0.00    +0.002 C 
ATOM     18  C   UNL     1      -0.554  -4.255   2.873  0.00  0.00    +0.025 C 
ATOM     19  C   UNL     1      -0.399  -4.617   0.406  0.00  0.00    +0.031 C 
ENDBRANCH  11  13
ENDBRANCH   1   9
BRANCH   1  21
ATOM     20  C   UNL     1       0.026   1.575  -0.740  0.00  0.00    +0.008 C 
ATOM     21  C   UNL     1      -0.003   0.061  -0.520  0.00  0.00    +0.002 C 
ATOM     22  C   UNL     1       1.079  -0.329   0.489  0.00  0.00    +0.008 C 
ENDBRANCH   1  21
TORSDOF 5
