REMARK  Name = ZINC38655574
REMARK  11 active torsions:
REMARK  status: ('A' for Active; 'I' for Inactive)
REMARK    1  A    between atoms: C_1  and  C_2
REMARK    2  A    between atoms: C_2  and  C_3
REMARK    3  A    between atoms: C_2  and  C_4
REMARK    4  A    between atoms: C_7  and  O_10
REMARK    5  A    between atoms: O_10  and  C_11
REMARK    6  A    between atoms: C_11  and  C_12
REMARK    7  A    between atoms: C_12  and  O_14
REMARK    8  A    between atoms: O_14  and  C_15
REMARK    9  A    between atoms: C_22  and  N_36
REMARK   10  A    between atoms: C_23  and  C_34
REMARK   11  A    between atoms: C_24  and  C_26
REMARK                            x       y       z     vdW  Elec       q    Type
REMARK                         _______ _______ _______ _____ _____    ______ ____
ROOT
ATOM      1  C   UNL     1       3.167  -4.312   8.628  0.00  0.00    +0.135 A 
ATOM      2  C   UNL     1       4.472  -3.856   8.753  0.00  0.00    +0.047 A 
ATOM      3  C   UNL     1       5.252  -4.278   9.812  0.00  0.00    +0.012 A 
ATOM      4  C   UNL     1       4.738  -5.155  10.750  0.00  0.00    +0.008 A 
ATOM      5  C   UNL     1       3.435  -5.614  10.630  0.00  0.00    +0.138 A 
ATOM      6  C   UNL     1       2.648  -5.186   9.569  0.00  0.00    +0.093 A 
ATOM      7  O   UNL     1       2.914  -6.474  11.539  0.00  0.00    -0.441 OA
ATOM      8  C   UNL     1       3.485  -6.597  12.749  0.00  0.00    +0.199 C 
ATOM      9  C   UNL     1       4.758  -6.203  12.985  0.00  0.00    +0.098 C 
ATOM     10  C   UNL     1       5.605  -5.604  11.896  0.00  0.00    +0.099 C 
ENDROOT
BRANCH  10  11
ATOM     11  C   UNL     1       6.588  -6.635  11.405  0.00  0.00    -0.016 A 
ATOM     12  C   UNL     1       6.131  -7.812  10.841  0.00  0.00    +0.007 A 
ATOM     13  C   UNL     1       7.033  -8.758  10.390  0.00  0.00    +0.020 A 
ATOM     14  C   UNL     1       8.392  -8.527  10.502  0.00  0.00    +0.042 A 
ATOM     15  C   UNL     1       8.850  -7.349  11.065  0.00  0.00    +0.040 A 
ATOM     16  C   UNL     1       7.947  -6.401  11.512  0.00  0.00    +0.046 A 
ATOM     17 CL   UNL     1       8.520  -4.920  12.213  0.00  0.00    -0.083 Cl
ATOM     18 CL   UNL     1       9.524  -9.715   9.936  0.00  0.00    -0.083 Cl
ENDBRANCH  10  11
BRANCH   8  19
ATOM     19  N   UNL     1       2.754  -7.138  13.778  0.00  0.00    -0.328 N 
ATOM     20  H   UNL     1       1.840  -7.425  13.625  0.00  0.00    +0.145 HD
ATOM     21  H   UNL     1       3.152  -7.233  14.657  0.00  0.00    +0.145 HD
ENDBRANCH   8  19
BRANCH   9  22
ATOM     22  C   UNL     1       5.310  -6.358  14.297  0.00  0.00    +0.101 C 
ATOM     23  N   UNL     1       5.748  -6.482  15.338  0.00  0.00    -0.191 NA
ENDBRANCH   9  22
BRANCH   1  24
ATOM     24  O   UNL     1       2.398  -3.897   7.587  0.00  0.00    -0.423 OA
BRANCH  24  25
ATOM     25  C   UNL     1       2.614  -4.453   6.383  0.00  0.00    +0.350 C 
ATOM     26  O   UNL     1       3.528  -5.228   6.231  0.00  0.00    -0.247 OA
BRANCH  25  27
ATOM     27  C   UNL     1       1.716  -4.110   5.223  0.00  0.00    +0.349 C 
BRANCH  27  28
ATOM     28  O   UNL     1       2.145  -4.822   4.061  0.00  0.00    -0.481 OA
BRANCH  28  32
ATOM     29  C   UNL     1      -0.007  -4.222   0.593  0.00  0.00    -0.045 A 
ATOM     30  C   UNL     1       1.077  -5.081   0.593  0.00  0.00    +0.007 A 
ATOM     31  C   UNL     1       1.799  -5.284   1.753  0.00  0.00    +0.046 A 
ATOM     32  C   UNL     1       1.437  -4.624   2.919  0.00  0.00    +0.121 A 
ATOM     33  C   UNL     1       0.350  -3.762   2.916  0.00  0.00    +0.046 A 
ATOM     34  C   UNL     1      -0.366  -3.559   1.752  0.00  0.00    +0.007 A 
BRANCH  29  36
ATOM     35  C   UNL     1       0.131  -3.443  -1.757  0.00  0.00    +0.012 C 
ATOM     36  C   UNL     1      -0.793  -4.003  -0.674  0.00  0.00    +0.013 C 
ATOM     37  C   UNL     1      -1.383  -5.334  -1.144  0.00  0.00    +0.012 C 
ENDBRANCH  29  36
ENDBRANCH  28  32
ENDBRANCH  27  28
ENDBRANCH  25  27
ENDBRANCH  24  25
ENDBRANCH   1  24
TORSDOF 9
