REMARK  Name = ZINC17097104
REMARK  8 active torsions:
REMARK  status: ('A' for Active; 'I' for Inactive)
REMARK    1  A    between atoms: C_1  and  C_2
REMARK    2  A    between atoms: C_9  and  N_17
REMARK    3  A    between atoms: C_10  and  C_11
REMARK    4  A    between atoms: N_13  and  C_14
REMARK    5  A    between atoms: C_18  and  C_20
REMARK    6  A    between atoms: C_23  and  C_31
REMARK    7  A    between atoms: C_24  and  C_30
REMARK    8  A    between atoms: C_26  and  C_28
REMARK                            x       y       z     vdW  Elec       q    Type
REMARK                         _______ _______ _______ _____ _____    ______ ____
ROOT
ATOM      1  C   UNL     1      -7.235  -3.108   0.583  0.00  0.00    +0.008 C 
ATOM      2  C   UNL     1      -5.769  -2.868   0.216  0.00  0.00    -0.009 C 
ATOM      3  C   UNL     1      -4.874  -3.794   1.044  0.00  0.00    +0.008 C 
ATOM      4  C   UNL     1      -3.440  -3.741   0.516  0.00  0.00    +0.037 C 
ATOM      5  C   UNL     1      -2.998  -2.285   0.441  0.00  0.00    -0.023 A 
ATOM      6  C   UNL     1      -3.903  -1.282   0.450  0.00  0.00    -0.004 A 
ATOM      7  S   UNL     1      -2.939   0.199   0.350  0.00  0.00    -0.077 S 
ATOM      8  C   UNL     1      -1.355  -0.502   0.298  0.00  0.00    +0.084 A 
ATOM      9  C   UNL     1      -1.610  -1.865   0.353  0.00  0.00    +0.069 A 
ATOM     10  C   UNL     1      -5.393  -1.411   0.525  0.00  0.00    +0.046 C 
ENDROOT
BRANCH   9  11
ATOM     11  C   UNL     1      -0.519  -2.844   0.326  0.00  0.00    +0.247 C 
ATOM     12  O   UNL     1      -0.013  -3.219   1.367  0.00  0.00    -0.270 OA
ATOM     13  N   UNL     1      -0.078  -3.329  -0.851  0.00  0.00    -0.308 N 
ATOM     14  H   UNL     1      -0.482  -3.031  -1.681  0.00  0.00    +0.149 HD
BRANCH  13  15
ATOM     15  C   UNL     1       1.012  -4.308  -0.878  0.00  0.00    +0.073 C 
ATOM     16  C   UNL     1       2.113  -4.112  -1.922  0.00  0.00    +0.024 C 
ATOM     17  C   UNL     1       1.093  -5.242  -2.087  0.00  0.00    +0.024 C 
ENDBRANCH  13  15
ENDBRANCH   9  11
BRANCH   8  18
ATOM     18  N   UNL     1      -0.130   0.143   0.215  0.00  0.00    -0.279 N 
ATOM     19  C   UNL     1      -0.079   1.489   0.166  0.00  0.00    +0.222 C 
ATOM     20  O   UNL     1      -1.104   2.136   0.188  0.00  0.00    -0.275 OA
ATOM     21  H   UNL     1       0.690  -0.375   0.194  0.00  0.00    +0.155 HD
BRANCH  19  22
ATOM     22  C   UNL     1       1.253   2.189   0.076  0.00  0.00    +0.093 C 
ATOM     23  C   UNL     1       1.978   1.755  -1.200  0.00  0.00    +0.044 C 
ATOM     24  C   UNL     1       3.169   2.636  -1.441  0.00  0.00    -0.073 C 
ATOM     25  C   UNL     1       3.351   3.784  -0.873  0.00  0.00    -0.073 C 
ATOM     26  C   UNL     1       2.398   4.395   0.112  0.00  0.00    +0.046 C 
ATOM     27  C   UNL     1       1.034   3.707   0.023  0.00  0.00    +0.118 C 
ATOM     28  C   UNL     1       4.598   4.556  -1.221  0.00  0.00    +0.039 C 
ATOM     29  C   UNL     1       4.223   2.149  -2.402  0.00  0.00    +0.039 C 
BRANCH  27  30
ATOM     30  C   UNL     1       0.173   4.136   1.183  0.00  0.00    +0.360 C 
ATOM     31  O   UNL     1      -0.227   3.315   1.974  0.00  0.00    -0.246 OA
ATOM     32  O   UNL     1      -0.149   5.429   1.337  0.00  0.00    -0.246 OA
ENDBRANCH  27  30
ENDBRANCH  19  22
ENDBRANCH   8  18
TORSDOF 5
