REMARK  Name = ZINC45796972
REMARK  8 active torsions:
REMARK  status: ('A' for Active; 'I' for Inactive)
REMARK    1  A    between atoms: C_1  and  C_2
REMARK    2  A    between atoms: C_3  and  N_23
REMARK    3  A    between atoms: C_7  and  S_8
REMARK    4  A    between atoms: S_8  and  N_11
REMARK    5  A    between atoms: N_11  and  C_12
REMARK    6  A    between atoms: C_12  and  C_13
REMARK    7  A    between atoms: C_16  and  S_19
REMARK    8  A    between atoms: S_19  and  N_22
REMARK                            x       y       z     vdW  Elec       q    Type
REMARK                         _______ _______ _______ _____ _____    ______ ____
ROOT
ATOM      1  N   UNL     1       1.151   1.120   2.922  0.00  0.00    -0.186 NA
ATOM      2  H   UNL     1       1.901   0.958   3.515  0.00  0.00    +0.148 HD
ENDROOT
BRANCH   1   3
ATOM      3  S   UNL     1      -0.153   0.100   2.939  0.00  0.00    +0.059 S 
ATOM      4  O   UNL     1      -1.309   0.920   3.045  0.00  0.00    -0.153 OA
ATOM      5  O   UNL     1       0.143  -0.923   3.880  0.00  0.00    -0.153 OA
BRANCH   3  12
ATOM      6  C   UNL     1       1.985  -1.737   1.843  0.00  0.00    +0.048 C 
ATOM      7  C   UNL     1       0.799  -1.501   0.944  0.00  0.00    +0.006 A 
ATOM      8  C   UNL     1       0.737  -2.114  -0.294  0.00  0.00    +0.131 A 
ATOM      9  C   UNL     1      -0.350  -1.897  -1.119  0.00  0.00    +0.033 A 
ATOM     10  C   UNL     1      -1.377  -1.068  -0.706  0.00  0.00    +0.004 A 
ATOM     11  C   UNL     1      -1.315  -0.456   0.532  0.00  0.00    +0.029 A 
ATOM     12  C   UNL     1      -0.229  -0.676   1.359  0.00  0.00    +0.110 A 
BRANCH   8  13
ATOM     13  N   UNL     1       1.836  -3.002  -0.736  0.00  0.00    +0.057 N 
ATOM     14  O   UNL     1       1.833  -3.455  -1.857  0.00  0.00    -0.126 OA
ATOM     15  O   UNL     1       2.736  -3.273   0.024  0.00  0.00    -0.126 OA
ENDBRANCH   8  13
ENDBRANCH   3  12
ENDBRANCH   1   3
BRANCH   1  16
ATOM     16  C   UNL     1       1.172   2.267   2.011  0.00  0.00    +0.141 C 
BRANCH  16  17
ATOM     17  C   UNL     1       2.209   3.257   2.474  0.00  0.00    -0.032 A 
ATOM     18  C   UNL     1       1.861   4.257   3.363  0.00  0.00    +0.007 A 
ATOM     19  C   UNL     1       2.813   5.166   3.787  0.00  0.00    +0.029 A 
ATOM     20  C   UNL     1       4.112   5.074   3.323  0.00  0.00    +0.105 A 
ATOM     21  C   UNL     1       4.459   4.074   2.435  0.00  0.00    +0.029 A 
ATOM     22  C   UNL     1       3.509   3.163   2.014  0.00  0.00    +0.007 A 
BRANCH  20  23
ATOM     23  S   UNL     1       5.324   6.233   3.864  0.00  0.00    +0.056 S 
ATOM     24  O   UNL     1       6.333   6.262   2.863  0.00  0.00    -0.153 OA
ATOM     25  O   UNL     1       4.620   7.398   4.269  0.00  0.00    -0.153 OA
BRANCH  23  26
ATOM     26  N   UNL     1       6.027   5.606   5.226  0.00  0.00    -0.204 NA
ATOM     27  H   UNL     1       5.739   4.746   5.569  0.00  0.00    +0.144 HD
ATOM     28  H   UNL     1       6.728   6.100   5.681  0.00  0.00    +0.144 HD
ENDBRANCH  23  26
ENDBRANCH  20  23
ENDBRANCH  16  17
ENDBRANCH   1  16
TORSDOF 7
