REMARK  Name = ZINC14549348
REMARK  4 active torsions:
REMARK  status: ('A' for Active; 'I' for Inactive)
REMARK    1  A    between atoms: C_14  and  C_15
REMARK    2  A    between atoms: C_26  and  O_31
REMARK    3  A    between atoms: O_31  and  C_32
REMARK    4  A    between atoms: C_32  and  C_33
REMARK                            x       y       z     vdW  Elec       q    Type
REMARK                         _______ _______ _______ _____ _____    ______ ____
ROOT
ATOM      1  C   UNL     1       0.002  -0.004   0.002  0.00  0.00    +0.106 C 
ATOM      2  C   UNL     1       0.812  -0.651  -1.125  0.00  0.00    +0.029 C 
ATOM      3  C   UNL     1       0.902  -2.174  -0.816  0.00  0.00    +0.033 C 
ATOM      4  C   UNL     1       2.046  -2.264   0.176  0.00  0.00    -0.030 C 
ATOM      5  C   UNL     1       2.822  -1.212   0.078  0.00  0.00    -0.023 C 
ATOM      6  C   UNL     1       2.300  -0.275  -0.986  0.00  0.00    +0.049 C 
ATOM      7  C   UNL     1       2.509   1.156  -0.603  0.00  0.00    -0.016 A 
ATOM      8  C   UNL     1       3.788   1.689  -0.693  0.00  0.00    +0.051 A 
ATOM      9  C   UNL     1       4.025   3.008  -0.348  0.00  0.00    +0.121 A 
ATOM     10  C   UNL     1       2.983   3.812   0.091  0.00  0.00    +0.047 A 
ATOM     11  C   UNL     1       1.709   3.289   0.182  0.00  0.00    +0.027 A 
ATOM     12  C   UNL     1       1.473   1.965  -0.165  0.00  0.00    +0.032 A 
ATOM     13  N   UNL     1       0.172   1.451  -0.065  0.00  0.00    -0.336 N 
ATOM     14  H   UNL     1      -0.596   2.043  -0.044  0.00  0.00    +0.147 HD
ENDROOT
BRANCH   1  28
ATOM     15  C   UNL     1      -1.628  -3.443   3.423  0.00  0.00    +0.001 A 
ATOM     16  C   UNL     1      -2.086  -2.975   2.190  0.00  0.00    +0.001 A 
ATOM     17  C   UNL     1      -1.413  -2.024   1.493  0.00  0.00    +0.009 A 
ATOM     18  C   UNL     1      -0.222  -1.483   2.024  0.00  0.00    -0.012 A 
ATOM     19  C   UNL     1       0.262  -1.979   3.317  0.00  0.00    -0.017 A 
ATOM     20  C   UNL     1      -0.488  -2.970   3.987  0.00  0.00    +0.008 A 
ATOM     21  C   UNL     1       1.437  -1.471   3.867  0.00  0.00    +0.017 A 
ATOM     22  C   UNL     1       2.153  -0.493   3.178  0.00  0.00    -0.017 A 
ATOM     23  C   UNL     1       3.348   0.042   3.706  0.00  0.00    +0.008 A 
ATOM     24  C   UNL     1       4.020   0.993   3.009  0.00  0.00    +0.001 A 
ATOM     25  C   UNL     1       3.563   1.461   1.777  0.00  0.00    +0.001 A 
ATOM     26  C   UNL     1       2.422   0.989   1.213  0.00  0.00    +0.009 A 
ATOM     27  C   UNL     1       1.672  -0.002   1.883  0.00  0.00    -0.012 A 
ATOM     28  C   UNL     1       0.496  -0.509   1.333  0.00  0.00    -0.012 A 
ENDBRANCH   1  28
BRANCH   9  29
ATOM     29  O   UNL     1       5.282   3.518  -0.440  0.00  0.00    -0.489 OA
BRANCH  29  30
ATOM     30  C   UNL     1       5.457   4.886  -0.068  0.00  0.00    +0.260 C 
BRANCH  30  31
ATOM     31  C   UNL     1       6.926   5.277  -0.236  0.00  0.00    +0.156 C 
ATOM     32  C   UNL     1       7.162   6.715   0.277  0.00  0.00    +0.037 C 
ATOM     33  C   UNL     1       8.194   7.302  -0.711  0.00  0.00    +0.031 C 
ATOM     34  C   UNL     1       8.460   6.150  -1.705  0.00  0.00    +0.160 C 
ATOM     35  O   UNL     1       7.277   5.323  -1.636  0.00  0.00    -0.373 OA
ENDBRANCH  30  31
ENDBRANCH  29  30
ENDBRANCH   9  29
TORSDOF 4
