REMARK  Name = ZINC09984686
REMARK  10 active torsions:
REMARK  status: ('A' for Active; 'I' for Inactive)
REMARK    1  A    between atoms: C_1  and  C_2
REMARK    2  A    between atoms: C_2  and  C_3
REMARK    3  A    between atoms: C_2  and  C_4
REMARK    4  A    between atoms: C_7  and  C_10
REMARK    5  A    between atoms: C_10  and  C_12
REMARK    6  A    between atoms: C_10  and  N_17
REMARK    7  A    between atoms: C_18  and  C_20
REMARK    8  A    between atoms: C_20  and  C_21
REMARK    9  A    between atoms: C_21  and  C_23
REMARK   10  A    between atoms: C_21  and  N_28
REMARK                            x       y       z     vdW  Elec       q    Type
REMARK                         _______ _______ _______ _____ _____    ______ ____
ROOT
ATOM      1  N   UNL     1      -5.972  -1.947  -1.312  0.00  0.00    -0.304 N 
ATOM      2  C   UNL     1      -7.305  -1.869  -1.494  0.00  0.00    +0.216 C 
ATOM      3  O   UNL     1      -8.047  -1.846  -0.535  0.00  0.00    -0.276 OA
ATOM      4  H   UNL     1      -5.378  -1.965  -2.079  0.00  0.00    +0.150 HD
ENDROOT
BRANCH   1   5
ATOM      5  C   UNL     1      -5.419  -2.005   0.043  0.00  0.00    +0.140 C 
BRANCH   5   9
ATOM      6  C   UNL     1      -1.412  -0.526   0.013  0.00  0.00    -0.045 A 
ATOM      7  C   UNL     1      -2.259  -0.204   1.056  0.00  0.00    +0.004 A 
ATOM      8  C   UNL     1      -3.556  -0.683   1.066  0.00  0.00    +0.006 A 
ATOM      9  C   UNL     1      -4.006  -1.482   0.032  0.00  0.00    -0.022 A 
ATOM     10  C   UNL     1      -3.159  -1.803  -1.012  0.00  0.00    +0.006 A 
ATOM     11  C   UNL     1      -1.863  -1.321  -1.024  0.00  0.00    +0.004 A 
BRANCH   6  13
ATOM     12  C   UNL     1      -0.019   1.526   0.010  0.00  0.00    +0.012 C 
ATOM     13  C   UNL     1       0.002  -0.004   0.002  0.00  0.00    +0.013 C 
ATOM     14  C   UNL     1       0.742  -0.511   1.242  0.00  0.00    +0.012 C 
ENDBRANCH   6  13
ENDBRANCH   5   9
BRANCH   5  15
ATOM     15  C   UNL     1      -5.423  -3.432   0.527  0.00  0.00    +0.014 A 
ATOM     16  C   UNL     1      -5.728  -3.916   1.756  0.00  0.00    +0.013 A 
ATOM     17  C   UNL     1      -5.663  -5.279   1.975  0.00  0.00    +0.008 A 
ATOM     18  C   UNL     1      -5.298  -6.092   0.954  0.00  0.00    +0.045 A 
ATOM     19  S   UNL     1      -5.037  -4.925  -0.372  0.00  0.00    -0.099 S 
ENDBRANCH   5  15
ENDBRANCH   1   5
BRANCH   2  20
ATOM     20  C   UNL     1      -7.874  -1.809  -2.888  0.00  0.00    +0.123 C 
BRANCH  20  21
ATOM     21  C   UNL     1      -9.399  -1.725  -2.813  0.00  0.00    +0.120 C 
BRANCH  21  22
ATOM     22  N   UNL     1      -9.929  -2.961  -2.231  0.00  0.00    -0.292 N 
ATOM     23  C   UNL     1      -9.697  -4.143  -2.835  0.00  0.00    +0.298 C 
ATOM     24  O   UNL     1      -9.049  -4.184  -3.863  0.00  0.00    -0.253 OA
ATOM     25  N   UNL     1     -10.184  -5.280  -2.299  0.00  0.00    -0.313 N 
ATOM     26  H   UNL     1     -10.446  -2.928  -1.411  0.00  0.00    +0.151 HD
ATOM     27  H   UNL     1     -10.701  -5.247  -1.480  0.00  0.00    +0.146 HD
ATOM     28  H   UNL     1     -10.017  -6.131  -2.734  0.00  0.00    +0.146 HD
ENDBRANCH  21  22
BRANCH  21  29
ATOM     29  C   UNL     1      -9.961  -1.542  -4.200  0.00  0.00    +0.010 A 
ATOM     30  C   UNL     1     -10.381  -0.406  -4.808  0.00  0.00    +0.013 A 
ATOM     31  C   UNL     1     -10.864  -0.476  -6.101  0.00  0.00    +0.008 A 
ATOM     32  C   UNL     1     -10.903  -1.680  -6.723  0.00  0.00    +0.045 A 
ATOM     33  S   UNL     1     -10.238  -2.765  -5.471  0.00  0.00    -0.100 S 
ENDBRANCH  21  29
ENDBRANCH  20  21
ENDBRANCH   2  20
TORSDOF 8
