REMARK  Name = ZINC36029057
REMARK  11 active torsions:
REMARK  status: ('A' for Active; 'I' for Inactive)
REMARK    1  A    between atoms: C_1  and  C_2
REMARK    2  A    between atoms: C_2  and  C_3
REMARK    3  A    between atoms: C_2  and  C_4
REMARK    4  A    between atoms: C_4  and  C_5
REMARK    5  A    between atoms: N_9  and  C_27
REMARK    6  A    between atoms: N_14  and  C_17
REMARK    7  A    between atoms: C_17  and  N_19
REMARK    8  A    between atoms: N_19  and  C_20
REMARK    9  A    between atoms: C_27  and  C_28
REMARK   10  A    between atoms: C_28  and  C_29
REMARK   11  A    between atoms: C_28  and  C_30
REMARK                            x       y       z     vdW  Elec       q    Type
REMARK                         _______ _______ _______ _____ _____    ______ ____
ROOT
ATOM      1  C   UNL     1       1.965   0.029  -0.898  0.00  0.00    +0.019 C 
ATOM      2  C   UNL     1       2.477  -0.738  -2.097  0.00  0.00    +0.200 C 
ATOM      3  O   UNL     1       2.111  -1.842  -2.441  0.00  0.00    -0.277 OA
ATOM      4  N   UNL     1       3.409   0.012  -2.720  0.00  0.00    -0.313 N 
ATOM      5  C   UNL     1       3.578   1.278  -2.001  0.00  0.00    +0.006 C 
ATOM      6  N   UNL     1       2.389   1.431  -1.134  0.00  0.00    +0.401 N 
ATOM      7  C   UNL     1       4.839   1.232  -1.140  0.00  0.00    +0.025 C 
ATOM      8  C   UNL     1       6.063   1.033  -2.041  0.00  0.00    +0.107 C 
ATOM      9  N   UNL     1       6.064   2.078  -3.073  0.00  0.00    -0.312 N 
ATOM     10  C   UNL     1       4.865   2.253  -3.905  0.00  0.00    +0.107 C 
ATOM     11  C   UNL     1       3.652   2.441  -2.988  0.00  0.00    +0.025 C 
ATOM     12  H   UNL     1       1.665   1.947  -1.611  0.00  0.00    -0.082 HD
ATOM     13  H   UNL     1       2.635   1.880  -0.264  0.00  0.00    -0.082 HD
ENDROOT
BRANCH   9  14
ATOM     14  C   UNL     1       7.144   2.863  -3.254  0.00  0.00    +0.137 C 
ATOM     15  S   UNL     1       8.575   2.570  -2.360  0.00  0.00    -0.018 S 
BRANCH  14  16
ATOM     16  N   UNL     1       7.099   3.879  -4.139  0.00  0.00    -0.297 N 
ATOM     17  H   UNL     1       7.065   4.795  -3.824  0.00  0.00    +0.154 HD
BRANCH  16  18
ATOM     18  C   UNL     1       7.102   3.611  -5.513  0.00  0.00    +0.033 A 
ATOM     19  C   UNL     1       7.082   2.298  -5.965  0.00  0.00    +0.026 A 
ATOM     20  C   UNL     1       7.084   2.036  -7.322  0.00  0.00    +0.040 A 
ATOM     21  C   UNL     1       7.108   3.081  -8.230  0.00  0.00    +0.124 A 
ATOM     22  C   UNL     1       7.129   4.390  -7.781  0.00  0.00    +0.040 A 
ATOM     23  C   UNL     1       7.120   4.657  -6.426  0.00  0.00    +0.026 A 
ATOM     24  F   UNL     1       7.111   2.822  -9.556  0.00  0.00    -0.205 F 
ENDBRANCH  16  18
ENDBRANCH  14  16
ENDBRANCH   9  14
BRANCH   1  25
ATOM     25  C   UNL     1       0.440  -0.059  -0.820  0.00  0.00    -0.004 C 
BRANCH  25  27
ATOM     26  C   UNL     1      -1.587   0.789   0.369  0.00  0.00    +0.007 C 
ATOM     27  C   UNL     1      -0.058   0.751   0.379  0.00  0.00    -0.018 C 
ATOM     28  C   UNL     1       0.428   0.097   1.674  0.00  0.00    +0.007 C 
ENDBRANCH  25  27
ENDBRANCH   1  25
BRANCH   4  29
ATOM     29  C   UNL     1       4.140  -0.378  -3.928  0.00  0.00    +0.109 C 
BRANCH  29  30
ATOM     30  C   UNL     1       3.345   0.047  -5.165  0.00  0.00    +0.000 C 
ATOM     31  C   UNL     1       4.158  -0.260  -6.424  0.00  0.00    +0.009 C 
ATOM     32  C   UNL     1       2.024  -0.722  -5.211  0.00  0.00    +0.009 C 
ENDBRANCH  29  30
ENDBRANCH   4  29
TORSDOF 7
