REMARK  Name = ZINC36633795
REMARK  6 active torsions:
REMARK  status: ('A' for Active; 'I' for Inactive)
REMARK    1  A    between atoms: N_11  and  C_15
REMARK    2  A    between atoms: C_15  and  C_16
REMARK    3  A    between atoms: C_16  and  C_17
REMARK    4  A    between atoms: N_19  and  C_20
REMARK    5  A    between atoms: C_23  and  S_26
REMARK    6  A    between atoms: S_26  and  N_29
REMARK                            x       y       z     vdW  Elec       q    Type
REMARK                         _______ _______ _______ _____ _____    ______ ____
ROOT
ATOM      1  C   UNL     1       0.020   1.367   0.017  0.00  0.00    +0.001 A 
ATOM      2  C   UNL     1       1.211   2.071   0.003  0.00  0.00    +0.004 A 
ATOM      3  C   UNL     1       2.412   1.394  -0.027  0.00  0.00    +0.046 A 
ATOM      4  C   UNL     1       2.434   0.003  -0.041  0.00  0.00    +0.124 A 
ATOM      5  C   UNL     1       1.237  -0.699  -0.017  0.00  0.00    +0.003 A 
ATOM      6  C   UNL     1       0.036  -0.014   0.006  0.00  0.00    +0.008 A 
ATOM      7  C   UNL     1       1.236  -2.200  -0.004  0.00  0.00    +0.069 C 
ATOM      8  C   UNL     1       0.099  -2.794  -0.748  0.00  0.00    +0.033 A 
ATOM      9  C   UNL     1       0.066  -3.958  -1.433  0.00  0.00    +0.090 A 
ATOM     10  N   UNL     1      -1.147  -4.257  -2.007  0.00  0.00    -0.296 N 
ATOM     11  C   UNL     1      -2.183  -3.408  -1.876  0.00  0.00    +0.292 A 
ATOM     12  O   UNL     1      -3.312  -3.519  -2.320  0.00  0.00    -0.259 OA
ATOM     13  S   UNL     1      -1.544  -2.156  -0.952  0.00  0.00    -0.030 S 
ATOM     14  S   UNL     1       1.512  -4.987  -1.568  0.00  0.00    -0.106 S 
ATOM     15  C   UNL     1       2.639  -4.237  -0.349  0.00  0.00    +0.083 C 
ATOM     16  C   UNL     1       2.567  -2.719  -0.545  0.00  0.00    +0.049 C 
ATOM     17  C   UNL     1       3.698  -2.023   0.211  0.00  0.00    +0.234 C 
ATOM     18  O   UNL     1       3.638  -0.625  -0.085  0.00  0.00    -0.491 OA
ENDROOT
BRANCH  10  19
ATOM     19  C   UNL     1      -1.311  -5.501  -2.763  0.00  0.00    +0.135 C 
BRANCH  19  20
ATOM     20  C   UNL     1      -1.773  -6.614  -1.820  0.00  0.00    +0.118 C 
BRANCH  20  21
ATOM     21  C   UNL     1      -1.942  -7.894  -2.598  0.00  0.00    +0.219 C 
ATOM     22  O   UNL     1      -1.716  -7.914  -3.789  0.00  0.00    -0.275 OA
ATOM     23  N   UNL     1      -2.345  -9.016  -1.969  0.00  0.00    -0.285 N 
ATOM     24  H   UNL     1      -2.461  -9.017  -1.006  0.00  0.00    +0.155 HD
BRANCH  23  25
ATOM     25  C   UNL     1      -2.595 -10.179  -2.706  0.00  0.00    +0.033 A 
ATOM     26  C   UNL     1      -3.620 -11.036  -2.326  0.00  0.00    +0.025 A 
ATOM     27  C   UNL     1      -3.865 -12.183  -3.055  0.00  0.00    +0.030 A 
ATOM     28  C   UNL     1      -3.091 -12.478  -4.163  0.00  0.00    +0.105 A 
ATOM     29  C   UNL     1      -2.070 -11.627  -4.543  0.00  0.00    +0.030 A 
ATOM     30  C   UNL     1      -1.824 -10.476  -3.822  0.00  0.00    +0.025 A 
BRANCH  28  31
ATOM     31  S   UNL     1      -3.406 -13.943  -5.090  0.00  0.00    +0.056 S 
ATOM     32  O   UNL     1      -2.195 -14.270  -5.757  0.00  0.00    -0.153 OA
ATOM     33  O   UNL     1      -4.061 -14.847  -4.211  0.00  0.00    -0.153 OA
BRANCH  31  34
ATOM     34  N   UNL     1      -4.504 -13.550  -6.267  0.00  0.00    -0.204 NA
ATOM     35  H   UNL     1      -4.840 -12.643  -6.333  0.00  0.00    +0.144 HD
ATOM     36  H   UNL     1      -4.810 -14.227  -6.890  0.00  0.00    +0.144 HD
ENDBRANCH  31  34
ENDBRANCH  28  31
ENDBRANCH  23  25
ENDBRANCH  20  21
ENDBRANCH  19  20
ENDBRANCH  10  19
TORSDOF 6
