REMARK  Name = ZINC13865774
REMARK  7 active torsions:
REMARK  status: ('A' for Active; 'I' for Inactive)
REMARK    1  A    between atoms: C_1  and  C_2
REMARK    2  A    between atoms: C_2  and  O_3
REMARK    3  A    between atoms: O_3  and  C_4
REMARK    4  A    between atoms: C_4  and  C_6
REMARK    5  A    between atoms: C_9  and  N_25
REMARK    6  A    between atoms: C_10  and  C_16
REMARK    7  A    between atoms: C_16  and  C_18
REMARK                            x       y       z     vdW  Elec       q    Type
REMARK                         _______ _______ _______ _____ _____    ______ ____
ROOT
ATOM      1  C   UNL     1       2.368  -2.382  -2.090  0.00  0.00    +0.124 A 
ATOM      2  C   UNL     1       2.361  -3.749  -2.319  0.00  0.00    +0.032 A 
ATOM      3  C   UNL     1       2.772  -4.258  -3.579  0.00  0.00    +0.028 A 
ATOM      4  C   UNL     1       2.827  -5.656  -3.993  0.00  0.00    +0.052 A 
ATOM      5  C   UNL     1       3.267  -5.882  -5.285  0.00  0.00    +0.083 A 
ATOM      6  S   UNL     1       3.588  -4.244  -5.899  0.00  0.00    -0.065 S 
ATOM      7  C   UNL     1       3.174  -3.334  -4.557  0.00  0.00    +0.090 A 
ATOM      8  N   UNL     1       3.184  -1.992  -4.339  0.00  0.00    -0.316 N 
ATOM      9  C   UNL     1       2.795  -1.475  -3.157  0.00  0.00    +0.264 A 
ATOM     10  O   UNL     1       2.802  -0.271  -2.977  0.00  0.00    -0.267 OA
ATOM     11  H   UNL     1       3.471  -1.396  -5.048  0.00  0.00    +0.169 HD
ENDROOT
BRANCH   4  12
ATOM     12  N   UNL     1       2.464  -6.690  -3.146  0.00  0.00    -0.356 N 
ATOM     13  H   UNL     1       2.161  -6.495  -2.246  0.00  0.00    +0.142 HD
ATOM     14  H   UNL     1       2.514  -7.608  -3.454  0.00  0.00    +0.142 HD
ENDBRANCH   4  12
BRANCH   1  15
ATOM     15  C   UNL     1       1.945  -1.848  -0.790  0.00  0.00    +0.344 C 
ATOM     16  O   UNL     1       1.592  -2.605   0.093  0.00  0.00    -0.245 OA
BRANCH  15  17
ATOM     17  O   UNL     1       1.949  -0.516  -0.575  0.00  0.00    -0.461 OA
BRANCH  17  19
ATOM     18  C   UNL     1       1.596   1.461   0.769  0.00  0.00    +0.048 C 
ATOM     19  C   UNL     1       1.525  -0.066   0.714  0.00  0.00    +0.229 C 
ENDBRANCH  17  19
ENDBRANCH  15  17
ENDBRANCH   1  15
BRANCH   5  20
ATOM     20  C   UNL     1       3.424  -7.115  -5.954  0.00  0.00    +0.202 C 
ATOM     21  O   UNL     1       3.040  -8.146  -5.429  0.00  0.00    -0.286 OA
BRANCH  20  22
ATOM     22  C   UNL     1       4.054  -7.156  -7.292  0.00  0.00    +0.023 A 
ATOM     23  C   UNL     1       4.953  -6.159  -7.674  0.00  0.00    +0.013 A 
ATOM     24  C   UNL     1       5.537  -6.202  -8.922  0.00  0.00    +0.016 A 
ATOM     25  C   UNL     1       5.233  -7.232  -9.796  0.00  0.00    +0.018 A 
ATOM     26  C   UNL     1       4.342  -8.224  -9.423  0.00  0.00    +0.016 A 
ATOM     27  C   UNL     1       3.756  -8.195  -8.175  0.00  0.00    +0.013 A 
ATOM     28 BR   UNL     1       6.038  -7.284 -11.507  0.00  0.00    -0.050 Br
ENDBRANCH  20  22
ENDBRANCH   5  20
TORSDOF 6
