REMARK  Name = ZINC65259997
REMARK  2 active torsions:
REMARK  status: ('A' for Active; 'I' for Inactive)
REMARK    1  A    between atoms: C_14  and  C_16
REMARK    2  A    between atoms: N_28  and  C_29
REMARK                            x       y       z     vdW  Elec       q    Type
REMARK                         _______ _______ _______ _____ _____    ______ ____
ROOT
ATOM      1  C   UNL     1      -0.069   1.392  -0.020  0.00  0.00    +0.002 A 
ATOM      2  C   UNL     1       1.115   2.105  -0.014  0.00  0.00    +0.002 A 
ATOM      3  C   UNL     1       2.328   1.441  -0.013  0.00  0.00    +0.025 A 
ATOM      4  C   UNL     1       2.357   0.055  -0.017  0.00  0.00    +0.053 A 
ATOM      5  C   UNL     1       1.163  -0.665  -0.016  0.00  0.00    +0.049 A 
ATOM      6  C   UNL     1      -0.049   0.009  -0.021  0.00  0.00    +0.025 A 
ATOM      7  N   UNL     1       1.181  -2.068   0.001  0.00  0.00    -0.329 N 
ATOM      8  C   UNL     1       2.422  -2.764  -0.360  0.00  0.00    +0.102 C 
ATOM      9  C   UNL     1       2.415  -4.176   0.220  0.00  0.00    +0.036 C 
ATOM     10  C   UNL     1       1.230  -4.961  -0.348  0.00  0.00    +0.021 C 
ATOM     11  C   UNL     1       1.368  -5.055  -1.871  0.00  0.00    +0.108 C 
ATOM     12  N   UNL     1       1.506  -3.698  -2.418  0.00  0.00    -0.297 N 
ATOM     13  C   UNL     1       2.559  -2.825  -1.881  0.00  0.00    +0.141 C 
ATOM     14  C   UNL     1       0.683  -3.263  -3.393  0.00  0.00    +0.246 C 
ATOM     15  O   UNL     1      -0.118  -4.024  -3.894  0.00  0.00    -0.273 OA
ATOM     16  C   UNL     1       3.579  -1.980   0.223  0.00  0.00    +0.098 C 
ATOM     17  N   UNL     1       3.589  -0.620  -0.026  0.00  0.00    -0.301 N 
ATOM     18  N   UNL     1       4.508  -2.552   0.918  0.00  0.00    -0.372 N 
ATOM     19  H   UNL     1       0.387  -2.569   0.248  0.00  0.00    +0.147 HD
ATOM     20  H   UNL     1       4.475  -3.509   1.077  0.00  0.00    +0.161 HD
ATOM     21  H   UNL     1       4.418  -0.148  -0.202  0.00  0.00    +0.153 HD
ENDROOT
BRANCH  14  22
ATOM     22  C   UNL     1       0.758  -1.833  -3.860  0.00  0.00    +0.241 C 
ATOM     23  C   UNL     1       1.765  -1.685  -4.971  0.00  0.00    -0.012 C 
ATOM     24  C   UNL     1       1.057  -1.259  -6.023  0.00  0.00    +0.065 C 
ATOM     25  C   UNL     1       1.679  -0.974  -7.372  0.00  0.00    +0.057 C 
ATOM     26  C   UNL     1       3.194  -0.831  -7.191  0.00  0.00    +0.006 C 
ATOM     27  C   UNL     1       3.735  -2.030  -6.406  0.00  0.00    +0.005 C 
ATOM     28  C   UNL     1       3.242  -1.946  -4.955  0.00  0.00    +0.035 C 
ATOM     29  N   UNL     1      -0.245  -1.133  -5.684  0.00  0.00    -0.158 NA
ATOM     30  N   UNL     1      -0.505  -1.426  -4.507  0.00  0.00    -0.170 NA
ENDBRANCH  14  22
BRANCH  18  31
ATOM     31  C   UNL     1       5.609  -1.756   1.464  0.00  0.00    +0.080 C 
ATOM     32  C   UNL     1       6.749  -1.652   0.430  0.00  0.00    +0.024 C 
ATOM     33  C   UNL     1       8.042  -1.715   1.281  0.00  0.00    +0.002 C 
ATOM     34  C   UNL     1       7.680  -2.749   2.376  0.00  0.00    +0.002 C 
ATOM     35  C   UNL     1       6.201  -2.454   2.701  0.00  0.00    +0.024 C 
ENDBRANCH  18  31
TORSDOF 2
