REMARK  Name = ZINC65135102
REMARK  8 active torsions:
REMARK  status: ('A' for Active; 'I' for Inactive)
REMARK    1  A    between atoms: C_1  and  C_2
REMARK    2  A    between atoms: C_2  and  C_3
REMARK    3  A    between atoms: C_2  and  C_4
REMARK    4  A    between atoms: C_4  and  C_5
REMARK    5  A    between atoms: C_5  and  N_6
REMARK    6  A    between atoms: N_9  and  N_10
REMARK    7  A    between atoms: C_11  and  C_13
REMARK    8  A    between atoms: C_23  and  C_25
REMARK                            x       y       z     vdW  Elec       q    Type
REMARK                         _______ _______ _______ _____ _____    ______ ____
ROOT
ATOM      1  C   UNL     1      -7.844  -2.717   0.023  0.00  0.00    +0.168 C 
ATOM      2  C   UNL     1      -7.614  -1.624   1.065  0.00  0.00    +0.067 C 
ATOM      3  C   UNL     1      -8.428  -1.886   2.305  0.00  0.00    -0.040 A 
ATOM      4  C   UNL     1      -8.032  -1.260   3.480  0.00  0.00    +0.004 A 
ATOM      5  C   UNL     1      -8.739  -1.449   4.649  0.00  0.00    +0.000 A 
ATOM      6  C   UNL     1      -9.853  -2.268   4.654  0.00  0.00    +0.000 A 
ATOM      7  C   UNL     1     -10.247  -2.893   3.489  0.00  0.00    +0.005 A 
ATOM      8  C   UNL     1      -9.533  -2.708   2.313  0.00  0.00    -0.027 A 
ATOM      9  C   UNL     1     -10.001  -3.443   1.082  0.00  0.00    +0.144 C 
ATOM     10  N   UNL     1      -9.296  -2.930  -0.097  0.00  0.00    -0.279 N 
ATOM     11  C   UNL     1      -9.950  -2.665  -1.245  0.00  0.00    +0.283 C 
ATOM     12  O   UNL     1      -9.341  -2.245  -2.211  0.00  0.00    -0.267 OA
ENDROOT
BRANCH  11  13
ATOM     13  C   UNL     1     -11.398  -2.883  -1.331  0.00  0.00    +0.189 A 
ATOM     14  C   UNL     1     -12.200  -2.544  -2.382  0.00  0.00    +0.054 A 
ATOM     15  C   UNL     1     -13.504  -2.934  -2.038  0.00  0.00    +0.042 A 
ATOM     16  C   UNL     1     -13.441  -3.487  -0.807  0.00  0.00    +0.196 A 
ATOM     17  O   UNL     1     -12.170  -3.459  -0.386  0.00  0.00    -0.458 OA
ENDBRANCH  11  13
BRANCH   1  19
ATOM     18  N   UNL     1      -6.837  -1.020  -1.468  0.00  0.00    -0.232 N 
ATOM     19  C   UNL     1      -7.281  -2.281  -1.306  0.00  0.00    +0.250 C 
ATOM     20  O   UNL     1      -7.228  -3.066  -2.229  0.00  0.00    -0.272 OA
ATOM     21  H   UNL     1      -6.879  -0.392  -0.729  0.00  0.00    +0.173 HD
BRANCH  18  25
ATOM     22  N   UNL     1      -5.928   1.520  -1.839  0.00  0.00    -0.298 N 
ATOM     23  C   UNL     1      -5.869   0.648  -2.865  0.00  0.00    +0.316 C 
ATOM     24  O   UNL     1      -5.415   1.000  -3.936  0.00  0.00    -0.251 OA
ATOM     25  N   UNL     1      -6.313  -0.614  -2.703  0.00  0.00    -0.218 N 
ATOM     26  H   UNL     1      -6.290   1.239  -0.984  0.00  0.00    +0.150 HD
ATOM     27  H   UNL     1      -6.271  -1.242  -3.441  0.00  0.00    +0.174 HD
BRANCH  22  28
ATOM     28  C   UNL     1      -5.444   2.892  -2.015  0.00  0.00    +0.106 C 
BRANCH  28  29
ATOM     29  C   UNL     1      -5.624   3.667  -0.708  0.00  0.00    +0.022 C 
BRANCH  29  31
ATOM     30  C   UNL     1      -5.997   5.822  -1.916  0.00  0.00    +0.007 C 
ATOM     31  C   UNL     1      -5.119   5.100  -0.892  0.00  0.00    -0.016 C 
ATOM     32  C   UNL     1      -5.182   5.839   0.446  0.00  0.00    +0.007 C 
ENDBRANCH  29  31
ENDBRANCH  28  29
ENDBRANCH  22  28
ENDBRANCH  18  25
ENDBRANCH   1  19
TORSDOF 6
