REMARK  Name = ZINC24715614
REMARK  13 active torsions:
REMARK  status: ('A' for Active; 'I' for Inactive)
REMARK    1  A    between atoms: C_1  and  C_2
REMARK    2  A    between atoms: C_2  and  C_4
REMARK    3  A    between atoms: C_2  and  N_20
REMARK    4  A    between atoms: N_6  and  C_7
REMARK    5  A    between atoms: C_7  and  C_8
REMARK    6  A    between atoms: C_13  and  C_14
REMARK    7  A    between atoms: C_14  and  S_15
REMARK    8  A    between atoms: S_15  and  N_18
REMARK    9  A    between atoms: N_18  and  C_19
REMARK   10  A    between atoms: N_20  and  S_21
REMARK   11  A    between atoms: S_21  and  C_24
REMARK   12  A    between atoms: C_27  and  N_30
REMARK   13  A    between atoms: C_31  and  C_33
REMARK                            x       y       z     vdW  Elec       q    Type
REMARK                         _______ _______ _______ _____ _____    ______ ____
ROOT
ATOM      1  C   UNL     1       1.208   9.549   1.930  0.00  0.00    +0.035 C 
ATOM      2  C   UNL     1       0.228   8.379   2.036  0.00  0.00    +0.159 C 
ENDROOT
BRANCH   2   3
ATOM      3  C   UNL     1      -0.188   8.201   3.473  0.00  0.00    +0.232 C 
ATOM      4  O   UNL     1      -1.357   8.296   3.783  0.00  0.00    -0.274 OA
ATOM      5  N   UNL     1       0.739   7.935   4.415  0.00  0.00    -0.310 N 
ATOM      6  H   UNL     1       1.799   7.849   4.134  0.00  0.00    +0.149 HD
BRANCH   5   7
ATOM      7  C   UNL     1       0.336   7.761   5.812  0.00  0.00    +0.140 C 
BRANCH   7   8
ATOM      8  C   UNL     1       1.552   7.476   6.655  0.00  0.00    -0.026 A 
ATOM      9  C   UNL     1       1.843   6.178   7.030  0.00  0.00    +0.005 A 
ATOM     10  C   UNL     1       2.962   5.915   7.799  0.00  0.00    +0.000 A 
ATOM     11  C   UNL     1       3.783   6.952   8.201  0.00  0.00    +0.000 A 
ATOM     12  C   UNL     1       3.489   8.251   7.830  0.00  0.00    +0.005 A 
ATOM     13  C   UNL     1       2.373   8.512   7.057  0.00  0.00    -0.020 A 
BRANCH  13  14
ATOM     14  C   UNL     1       2.052   9.928   6.653  0.00  0.00    +0.220 C 
BRANCH  14  15
ATOM     15  S   UNL     1       0.986  10.688   7.908  0.00  0.00    +0.033 S 
ATOM     16  O   UNL     1      -0.291  10.065   7.909  0.00  0.00    -0.158 OA
ATOM     17  O   UNL     1       1.706  10.864   9.120  0.00  0.00    -0.158 OA
BRANCH  15  18
ATOM     18  N   UNL     1       0.706  12.225   7.356  0.00  0.00    -0.197 NA
ATOM     19  C   UNL     1      -0.045  12.431   6.116  0.00  0.00    +0.127 C 
ATOM     20  H   UNL     1       1.225  13.070   7.832  0.00  0.00    +0.147 HD
ENDBRANCH  15  18
ENDBRANCH  14  15
ENDBRANCH  13  14
ENDBRANCH   7   8
ENDBRANCH   5   7
ENDBRANCH   2   3
BRANCH   2  21
ATOM     21  N   UNL     1      -0.955   8.657   1.216  0.00  0.00    -0.178 NA
ATOM     22  H   UNL     1      -1.849   9.105   1.675  0.00  0.00    +0.149 HD
BRANCH  21  23
ATOM     23  S   UNL     1      -1.044   8.076  -0.332  0.00  0.00    +0.059 S 
ATOM     24  O   UNL     1       0.182   8.415  -0.964  0.00  0.00    -0.153 OA
ATOM     25  O   UNL     1      -2.304   8.485  -0.847  0.00  0.00    -0.153 OA
BRANCH  23  26
ATOM     26  C   UNL     1      -1.089   6.318  -0.227  0.00  0.00    +0.105 A 
ATOM     27  C   UNL     1      -2.303   5.663  -0.130  0.00  0.00    +0.030 A 
ATOM     28  C   UNL     1      -2.341   4.285  -0.048  0.00  0.00    +0.025 A 
ATOM     29  C   UNL     1      -1.159   3.557  -0.063  0.00  0.00    +0.033 A 
ATOM     30  C   UNL     1       0.059   4.218  -0.156  0.00  0.00    +0.025 A 
ATOM     31  C   UNL     1       0.090   5.596  -0.243  0.00  0.00    +0.030 A 
BRANCH  29  32
ATOM     32  N   UNL     1      -1.195   2.161   0.019  0.00  0.00    -0.286 N 
ATOM     33  C   UNL     1      -2.198   1.476  -0.564  0.00  0.00    +0.214 C 
ATOM     34  O   UNL     1      -3.117   2.073  -1.085  0.00  0.00    -0.276 OA
ATOM     35  C   UNL     1      -2.182  -0.031  -0.565  0.00  0.00    +0.109 C 
ATOM     36  H   UNL     1      -0.403   1.622   0.561  0.00  0.00    +0.155 HD
ENDBRANCH  29  32
ENDBRANCH  23  26
ENDBRANCH  21  23
ENDBRANCH   2  21
TORSDOF 10
