REMARK  Name = ZINC39933495
REMARK  8 active torsions:
REMARK  status: ('A' for Active; 'I' for Inactive)
REMARK    1  A    between atoms: C_1  and  C_2
REMARK    2  A    between atoms: C_2  and  C_3
REMARK    3  A    between atoms: C_3  and  C_30
REMARK    4  A    between atoms: N_6  and  N_10
REMARK    5  A    between atoms: C_11  and  C_13
REMARK    6  A    between atoms: C_13  and  S_14
REMARK    7  A    between atoms: S_14  and  C_15
REMARK    8  A    between atoms: C_19  and  C_21
REMARK                            x       y       z     vdW  Elec       q    Type
REMARK                         _______ _______ _______ _____ _____    ______ ____
ROOT
ATOM      1  S   UNL     1      -0.835  -5.463   5.082  0.00  0.00    -0.087 S 
ENDROOT
BRANCH   1   2
ATOM      2  C   UNL     1      -1.269  -7.113   5.698  0.00  0.00    +0.339 C 
ATOM      3  N   UNL     1      -1.071  -8.123   4.645  0.00  0.00    -0.219 N 
ATOM      4  N   UNL     1      -2.336  -8.687   4.423  0.00  0.00    -0.145 NA
ATOM      5  C   UNL     1      -3.220  -8.131   5.209  0.00  0.00    +0.238 C 
ATOM      6  O   UNL     1      -2.668  -7.180   6.006  0.00  0.00    -0.443 OA
ATOM      7  H   UNL     1      -0.241  -8.351   4.199  0.00  0.00    +0.173 HD
BRANCH   5   8
ATOM      8  C   UNL     1      -4.579  -8.477   5.228  0.00  0.00    +0.043 C 
ATOM      9  C   UNL     1      -5.214  -9.444   4.448  0.00  0.00    +0.008 A 
ATOM     10  C   UNL     1      -4.742 -10.330   3.456  0.00  0.00    +0.010 A 
ATOM     11  C   UNL     1      -5.606 -11.183   2.848  0.00  0.00    +0.001 A 
ATOM     12  C   UNL     1      -6.963 -11.210   3.180  0.00  0.00    +0.002 A 
ATOM     13  C   UNL     1      -7.484 -10.387   4.124  0.00  0.00    +0.026 A 
ATOM     14  C   UNL     1      -6.643  -9.468   4.802  0.00  0.00    +0.043 A 
ATOM     15  N   UNL     1      -6.900  -8.579   5.741  0.00  0.00    -0.380 N 
ATOM     16  C   UNL     1      -5.661  -7.884   6.103  0.00  0.00    +0.154 C 
ATOM     17  H   UNL     1      -7.772  -8.413   6.133  0.00  0.00    +0.160 HD
ENDBRANCH   5   8
ENDBRANCH   1   2
BRANCH   1  18
ATOM     18  C   UNL     1      -1.927  -5.227   3.653  0.00  0.00    +0.171 C 
BRANCH  18  20
ATOM     19  N   UNL     1      -2.365  -3.480   1.957  0.00  0.00    -0.223 N 
ATOM     20  C   UNL     1      -1.666  -3.875   3.039  0.00  0.00    +0.240 C 
ATOM     21  O   UNL     1      -0.826  -3.144   3.518  0.00  0.00    -0.273 OA
ATOM     22  H   UNL     1      -3.037  -4.065   1.574  0.00  0.00    +0.174 HD
BRANCH  19  26
ATOM     23  C   UNL     1      -1.433  -0.534   0.013  0.00  0.00    +0.111 C 
ATOM     24  C   UNL     1      -1.447  -2.033   0.236  0.00  0.00    +0.263 C 
ATOM     25  O   UNL     1      -0.952  -2.883  -0.472  0.00  0.00    -0.271 OA
ATOM     26  N   UNL     1      -2.123  -2.224   1.386  0.00  0.00    -0.137 N 
ATOM     27  C   UNL     1      -2.534  -1.066   1.915  0.00  0.00    +0.326 C 
ATOM     28  O   UNL     1      -3.163  -0.982   2.952  0.00  0.00    -0.251 OA
ATOM     29  N   UNL     1      -2.172  -0.004   1.172  0.00  0.00    -0.284 N 
ATOM     30  C   UNL     1      -2.148  -0.174  -1.291  0.00  0.00    +0.041 C 
ATOM     31  H   UNL     1      -2.361   0.928   1.363  0.00  0.00    +0.151 HD
BRANCH  23  33
ATOM     32  C   UNL     1      -0.019   1.526   0.010  0.00  0.00    +0.006 C 
ATOM     33  C   UNL     1       0.002  -0.004   0.002  0.00  0.00    +0.032 C 
ENDBRANCH  23  33
ENDBRANCH  19  26
ENDBRANCH  18  20
ENDBRANCH   1  18
TORSDOF 6
