REMARK  Name = ZINC08430568
REMARK  4 active torsions:
REMARK  status: ('A' for Active; 'I' for Inactive)
REMARK    1  A    between atoms: C_1  and  O_2
REMARK    2  A    between atoms: O_2  and  C_3
REMARK    3  A    between atoms: C_7  and  C_9
REMARK    4  A    between atoms: C_14  and  C_24
REMARK                            x       y       z     vdW  Elec       q    Type
REMARK                         _______ _______ _______ _____ _____    ______ ____
ROOT
ATOM      1  C   UNL     1       2.416   4.116   0.454  0.00  0.00    +0.032 C 
ATOM      2  C   UNL     1       3.114   3.596  -0.802  0.00  0.00    +0.059 C 
ATOM      3  C   UNL     1       4.449   4.300  -0.979  0.00  0.00    +0.017 C 
ATOM      4  C   UNL     1       5.167   4.674   0.093  0.00  0.00    +0.036 C 
ATOM      5  C   UNL     1       6.520   5.345   0.064  0.00  0.00    +0.137 C 
ATOM      6  N   UNL     1       6.924   5.821  -1.242  0.00  0.00    -0.331 N 
ATOM      7  C   UNL     1       7.154   4.934  -2.293  0.00  0.00    +0.049 A 
ATOM      8  C   UNL     1       8.426   4.736  -2.806  0.00  0.00    +0.025 A 
ATOM      9  C   UNL     1       8.625   3.767  -3.774  0.00  0.00    +0.002 A 
ATOM     10  C   UNL     1       7.566   3.003  -4.228  0.00  0.00    +0.002 A 
ATOM     11  C   UNL     1       6.290   3.213  -3.733  0.00  0.00    +0.025 A 
ATOM     12  C   UNL     1       6.086   4.193  -2.777  0.00  0.00    +0.052 A 
ATOM     13  N   UNL     1       4.825   4.485  -2.269  0.00  0.00    -0.316 N 
ATOM     14  C   UNL     1       4.667   4.452   1.398  0.00  0.00    +0.163 C 
ATOM     15  O   UNL     1       5.346   4.785   2.349  0.00  0.00    -0.292 OA
ATOM     16  C   UNL     1       3.329   3.823   1.650  0.00  0.00    +0.088 C 
ATOM     17  H   UNL     1       7.036   6.773  -1.389  0.00  0.00    +0.147 HD
ATOM     18  H   UNL     1       4.167   4.848  -2.882  0.00  0.00    +0.152 HD
ENDROOT
BRANCH   5  19
ATOM     19  C   UNL     1       7.551   4.362   0.555  0.00  0.00    -0.005 A 
ATOM     20  C   UNL     1       7.254   3.012   0.594  0.00  0.00    +0.056 A 
ATOM     21  C   UNL     1       8.201   2.107   1.044  0.00  0.00    +0.167 A 
ATOM     22  C   UNL     1       9.452   2.560   1.457  0.00  0.00    +0.167 A 
ATOM     23  C   UNL     1       9.743   3.913   1.416  0.00  0.00    +0.065 A 
ATOM     24  C   UNL     1       8.795   4.811   0.960  0.00  0.00    +0.027 A 
ATOM     25 BR   UNL     1       9.198   6.658   0.897  0.00  0.00    -0.050 Br
ATOM     26  O   UNL     1      10.197   1.485   1.850  0.00  0.00    -0.453 OA
ATOM     27  C   UNL     1       9.253   0.419   2.059  0.00  0.00    +0.466 C 
ATOM     28  O   UNL     1       8.163   0.749   1.179  0.00  0.00    -0.453 OA
ENDBRANCH   5  19
BRANCH   1  33
ATOM     29  C   UNL     1      -1.289   3.492   0.852  0.00  0.00    +0.120 A 
ATOM     30  C   UNL     1      -1.325   2.110   0.962  0.00  0.00    +0.045 A 
ATOM     31  C   UNL     1      -0.150   1.384   0.914  0.00  0.00    +0.004 A 
ATOM     32  C   UNL     1       1.059   2.034   0.748  0.00  0.00    +0.004 A 
ATOM     33  C   UNL     1       1.097   3.411   0.635  0.00  0.00    -0.040 A 
ATOM     34  C   UNL     1      -0.075   4.142   0.686  0.00  0.00    +0.049 A 
BRANCH  29  36
ATOM     35  C   UNL     1      -3.656   3.474   1.076  0.00  0.00    +0.277 C 
ATOM     36  O   UNL     1      -2.443   4.209   0.904  0.00  0.00    -0.495 OA
ENDBRANCH  29  36
ENDBRANCH   1  33
TORSDOF 3
