REMARK  Name = ZINC14651257
REMARK  13 active torsions:
REMARK  status: ('A' for Active; 'I' for Inactive)
REMARK    1  A    between atoms: C_1  and  C_2
REMARK    2  A    between atoms: C_2  and  N_3
REMARK    3  A    between atoms: N_3  and  C_4
REMARK    4  A    between atoms: N_3  and  C_6
REMARK    5  A    between atoms: C_4  and  C_5
REMARK    6  A    between atoms: C_6  and  C_7
REMARK    7  A    between atoms: C_7  and  N_8
REMARK    8  A    between atoms: N_17  and  C_18
REMARK    9  A    between atoms: C_18  and  C_20
REMARK   10  A    between atoms: C_20  and  S_21
REMARK   11  A    between atoms: S_21  and  C_22
REMARK   12  A    between atoms: C_25  and  C_31
REMARK   13  A    between atoms: C_27  and  N_28
REMARK                            x       y       z     vdW  Elec       q    Type
REMARK                         _______ _______ _______ _____ _____    ______ ____
ROOT
ATOM      1  N   UNL     1      -0.616  -3.770   2.102  0.00  0.00    -0.314 N 
ATOM      2  C   UNL     1      -1.578  -4.475   2.819  0.00  0.00    +0.068 A 
ATOM      3  C   UNL     1      -2.772  -4.103   3.421  0.00  0.00    +0.028 A 
ATOM      4  C   UNL     1      -3.533  -5.048   4.080  0.00  0.00    +0.002 A 
ATOM      5  C   UNL     1      -3.111  -6.365   4.143  0.00  0.00    +0.002 A 
ATOM      6  C   UNL     1      -1.925  -6.745   3.548  0.00  0.00    +0.028 A 
ATOM      7  C   UNL     1      -1.152  -5.803   2.883  0.00  0.00    +0.066 A 
ATOM      8  N   UNL     1       0.059  -5.878   2.203  0.00  0.00    -0.326 N 
ATOM      9  C   UNL     1       0.362  -4.639   1.734  0.00  0.00    +0.201 A 
ATOM     10  N   UNL     1       1.446  -4.325   1.029  0.00  0.00    -0.146 NA
ATOM     11  H   UNL     1       0.594  -6.678   2.081  0.00  0.00    +0.169 HD
ENDROOT
BRANCH  10  12
ATOM     12  C   UNL     1       2.276  -5.282   0.625  0.00  0.00    +0.249 C 
ATOM     13  O   UNL     1       1.998  -6.449   0.818  0.00  0.00    -0.273 OA
BRANCH  12  14
ATOM     14  C   UNL     1       3.561  -4.918  -0.073  0.00  0.00    +0.172 C 
BRANCH  14  15
ATOM     15  S   UNL     1       4.468  -6.432  -0.496  0.00  0.00    -0.114 S 
BRANCH  15  16
ATOM     16  C   UNL     1       5.926  -5.846  -1.293  0.00  0.00    +0.039 A 
ATOM     17  C   UNL     1       6.131  -4.477  -1.449  0.00  0.00    +0.018 A 
ATOM     18  C   UNL     1       7.259  -4.018  -2.066  0.00  0.00    +0.014 A 
ATOM     19  C   UNL     1       8.213  -4.921  -2.545  0.00  0.00    +0.039 A 
ATOM     20  C   UNL     1       8.010  -6.296  -2.390  0.00  0.00    +0.047 A 
ATOM     21  C   UNL     1       6.874  -6.753  -1.762  0.00  0.00    +0.140 A 
BRANCH  19  22
ATOM     22  C   UNL     1       9.431  -4.425  -3.212  0.00  0.00    +0.242 C 
ATOM     23  O   UNL     1      10.260  -5.212  -3.628  0.00  0.00    -0.270 OA
ATOM     24  N   UNL     1       9.626  -3.100  -3.361  0.00  0.00    -0.325 N 
ATOM     25  H   UNL     1       8.964  -2.472  -3.030  0.00  0.00    +0.145 HD
ATOM     26  H   UNL     1      10.427  -2.773  -3.800  0.00  0.00    +0.145 HD
ENDBRANCH  19  22
BRANCH  21  27
ATOM     27  N   UNL     1       6.657  -8.207  -1.590  0.00  0.00    +0.058 N 
ATOM     28  O   UNL     1       7.480  -8.993  -1.997  0.00  0.00    -0.126 OA
ATOM     29  O   UNL     1       5.656  -8.608  -1.043  0.00  0.00    -0.126 OA
ENDBRANCH  21  27
ENDBRANCH  15  16
ENDBRANCH  14  15
ENDBRANCH  12  14
ENDBRANCH  10  12
BRANCH   1  30
ATOM     30  C   UNL     1      -0.655  -2.339   1.792  0.00  0.00    +0.106 C 
BRANCH  30  31
ATOM     31  C   UNL     1      -1.380  -2.125   0.462  0.00  0.00    -0.057 C 
BRANCH  31  32
ATOM     32  N   UNL     1      -1.419  -0.690   0.151  0.00  0.00    +0.380 N 
ATOM     33  H   UNL     1      -1.835  -0.189   0.921  0.00  0.00    -0.082 HD
BRANCH  32  35
ATOM     34  C   UNL     1      -0.077   1.319  -0.253  0.00  0.00    -0.017 C 
ATOM     35  C   UNL     1      -0.051  -0.199  -0.069  0.00  0.00    -0.082 C 
ENDBRANCH  32  35
BRANCH  32  36
ATOM     36  C   UNL     1      -2.217  -0.473  -1.063  0.00  0.00    -0.082 C 
ATOM     37  C   UNL     1      -3.674  -0.850  -0.789  0.00  0.00    -0.017 C 
ENDBRANCH  32  36
ENDBRANCH  31  32
ENDBRANCH  30  31
ENDBRANCH   1  30
TORSDOF 11
