REMARK  Name = ZINC43760996
REMARK  15 active torsions:
REMARK  status: ('A' for Active; 'I' for Inactive)
REMARK    1  A    between atoms: C_1  and  C_2
REMARK    2  A    between atoms: C_6  and  C_13
REMARK    3  A    between atoms: C_6  and  O_14
REMARK    4  A    between atoms: C_7  and  C_12
REMARK    5  A    between atoms: C_9  and  C_11
REMARK    6  A    between atoms: O_14  and  C_15
REMARK    7  A    between atoms: C_15  and  C_39
REMARK    8  A    between atoms: C_16  and  C_37
REMARK    9  A    between atoms: C_16  and  O_38
REMARK   10  A    between atoms: C_17  and  C_36
REMARK   11  A    between atoms: C_18  and  C_35
REMARK   12  A    between atoms: C_21  and  C_24
REMARK   13  A    between atoms: C_31  and  C_32
REMARK   14  A    between atoms: C_31  and  O_33
REMARK   15  A    between atoms: O_33  and  C_34
REMARK                            x       y       z     vdW  Elec       q    Type
REMARK                         _______ _______ _______ _____ _____    ______ ____
ROOT
ATOM      1  C   UNL     1       2.261  -4.856  -0.394  0.00  0.00    +0.154 C 
ATOM      2  C   UNL     1       2.342  -6.051   0.550  0.00  0.00    +0.128 C 
ATOM      3  C   UNL     1       0.956  -6.674   0.734  0.00  0.00    +0.132 C 
ATOM      4  C   UNL     1       0.360  -7.072  -0.612  0.00  0.00    +0.125 C 
ATOM      5  C   UNL     1      -1.122  -7.451  -0.409  0.00  0.00    +0.201 C 
ATOM      6  O   UNL     1      -1.792  -6.361   0.226  0.00  0.00    -0.344 OA
ATOM      7  C   UNL     1      -1.257  -6.045   1.514  0.00  0.00    +0.283 C 
ATOM      8  O   UNL     1       0.123  -5.724   1.395  0.00  0.00    -0.335 OA
ATOM      9  O   UNL     1       0.424  -6.018  -1.547  0.00  0.00    -0.335 OA
ATOM     10  C   UNL     1       1.555  -5.196  -1.702  0.00  0.00    +0.199 C 
ATOM     11  C   UNL     1       2.557  -5.809  -2.688  0.00  0.00    +0.077 C 
ATOM     12  C   UNL     1       1.063  -8.328  -1.151  0.00  0.00    +0.047 C 
ATOM     13  C   UNL     1       1.108  -7.920   1.617  0.00  0.00    +0.048 C 
ATOM     14  C   UNL     1       2.825  -5.552   1.925  0.00  0.00    +0.047 C 
ATOM     15  C   UNL     1       3.686  -4.373  -0.709  0.00  0.00    +0.050 C 
ENDROOT
BRANCH   7  16
ATOM     16  C   UNL     1      -2.001  -4.861   2.076  0.00  0.00    +0.008 A 
ATOM     17  C   UNL     1      -1.335  -3.671   2.302  0.00  0.00    +0.008 A 
ATOM     18  C   UNL     1      -2.017  -2.585   2.818  0.00  0.00    +0.000 A 
ATOM     19  C   UNL     1      -3.365  -2.688   3.106  0.00  0.00    +0.000 A 
ATOM     20  C   UNL     1      -4.031  -3.878   2.879  0.00  0.00    +0.000 A 
ATOM     21  C   UNL     1      -3.350  -4.963   2.360  0.00  0.00    +0.008 A 
ENDBRANCH   7  16
BRANCH  10  22
ATOM     22  O   UNL     1       1.111  -3.947  -2.284  0.00  0.00    -0.350 OA
ATOM     23  C   UNL     1       0.317  -4.105  -3.463  0.00  0.00    +0.197 C 
ENDBRANCH  10  22
BRANCH   2  24
ATOM     24  O   UNL     1       3.280  -7.012   0.073  0.00  0.00    -0.383 OA
ATOM     25  H   UNL     1       4.181  -6.672  -0.015  0.00  0.00    +0.210 HD
ENDBRANCH   2  24
BRANCH   1  26
ATOM     26  O   UNL     1       1.559  -3.785   0.255  0.00  0.00    -0.334 OA
BRANCH  26  31
ATOM     27  C   UNL     1       2.159   1.239  -2.226  0.00  0.00    +0.010 C 
ATOM     28  C   UNL     1       1.635  -0.118  -1.751  0.00  0.00    +0.015 C 
ATOM     29  C   UNL     1       2.677  -1.200  -2.046  0.00  0.00    +0.166 C 
ATOM     30  O   UNL     1       2.211  -2.456  -1.550  0.00  0.00    -0.348 OA
ATOM     31  C   UNL     1       1.997  -2.482  -0.137  0.00  0.00    +0.171 C 
ATOM     32  C   UNL     1       0.927  -1.452   0.235  0.00  0.00    +0.048 C 
ATOM     33  C   UNL     1       1.375  -0.067  -0.242  0.00  0.00    -0.001 C 
ATOM     34  C   UNL     1       0.277   0.957   0.053  0.00  0.00    +0.008 C 
ATOM     35  C   UNL     1      -0.396  -1.822  -0.439  0.00  0.00    +0.013 C 
ATOM     36  C   UNL     1       3.303  -2.144   0.584  0.00  0.00    +0.074 C 
ENDBRANCH  26  31
ENDBRANCH   1  26
TORSDOF 5
