REMARK  Name = ZINC59114527
REMARK  10 active torsions:
REMARK  status: ('A' for Active; 'I' for Inactive)
REMARK    1  A    between atoms: C_1  and  C_2
REMARK    2  A    between atoms: C_2  and  C_4
REMARK    3  A    between atoms: C_2  and  N_17
REMARK    4  A    between atoms: C_4  and  N_5
REMARK    5  A    between atoms: N_5  and  C_6
REMARK    6  A    between atoms: C_6  and  N_8
REMARK    7  A    between atoms: N_8  and  C_9
REMARK    8  A    between atoms: N_17  and  C_18
REMARK    9  A    between atoms: C_18  and  N_20
REMARK   10  A    between atoms: N_20  and  C_21
REMARK                            x       y       z     vdW  Elec       q    Type
REMARK                         _______ _______ _______ _____ _____    ______ ____
ROOT
ATOM      1  C   UNL     1       0.580   1.862   1.829  0.00  0.00    +0.029 C 
ATOM      2  C   UNL     1       0.242   0.488   1.246  0.00  0.00    +0.086 C 
ENDROOT
BRANCH   2   3
ATOM      3  N   UNL     1       1.020  -0.541   1.940  0.00  0.00    -0.322 N 
ATOM      4  H   UNL     1       0.631  -1.020   2.689  0.00  0.00    +0.148 HD
BRANCH   3   5
ATOM      5  C   UNL     1       2.276  -0.822   1.539  0.00  0.00    +0.135 C 
ATOM      6  S   UNL     1       2.962   0.024   0.218  0.00  0.00    -0.019 S 
BRANCH   5   7
ATOM      7  N   UNL     1       2.991  -1.769   2.178  0.00  0.00    -0.296 N 
ATOM      8  H   UNL     1       2.580  -2.296   2.881  0.00  0.00    +0.154 HD
BRANCH   7   9
ATOM      9  C   UNL     1       4.327  -1.993   1.827  0.00  0.00    +0.053 A 
ATOM     10  C   UNL     1       4.686  -2.104   0.490  0.00  0.00    +0.044 A 
ATOM     11  C   UNL     1       6.006  -2.325   0.146  0.00  0.00    +0.043 A 
ATOM     12  C   UNL     1       6.970  -2.436   1.133  0.00  0.00    +0.021 A 
ATOM     13  C   UNL     1       6.616  -2.326   2.465  0.00  0.00    +0.023 A 
ATOM     14  C   UNL     1       5.298  -2.099   2.815  0.00  0.00    +0.062 A 
ATOM     15 CL   UNL     1       4.856  -1.954   4.487  0.00  0.00    -0.082 Cl
ATOM     16 CL   UNL     1       6.455  -2.463  -1.525  0.00  0.00    -0.083 Cl
ENDBRANCH   7   9
ENDBRANCH   5   7
ENDBRANCH   3   5
ENDBRANCH   2   3
BRANCH   2  17
ATOM     17  C   UNL     1      -1.251   0.210   1.429  0.00  0.00    +0.125 C 
BRANCH  17  18
ATOM     18  N   UNL     1      -1.552  -1.152   0.980  0.00  0.00    -0.325 N 
ATOM     19  H   UNL     1      -0.843  -1.716   0.634  0.00  0.00    +0.148 HD
BRANCH  18  20
ATOM     20  C   UNL     1      -2.813  -1.621   1.047  0.00  0.00    +0.135 C 
ATOM     21  S   UNL     1      -4.065  -0.625   1.658  0.00  0.00    -0.019 S 
BRANCH  20  22
ATOM     22  N   UNL     1      -3.090  -2.873   0.634  0.00  0.00    -0.296 N 
ATOM     23  H   UNL     1      -2.396  -3.414   0.228  0.00  0.00    +0.154 HD
BRANCH  22  24
ATOM     24  C   UNL     1      -4.380  -3.393   0.792  0.00  0.00    +0.053 A 
ATOM     25  C   UNL     1      -5.485  -2.635   0.428  0.00  0.00    +0.044 A 
ATOM     26  C   UNL     1      -6.758  -3.151   0.585  0.00  0.00    +0.043 A 
ATOM     27  C   UNL     1      -6.931  -4.422   1.105  0.00  0.00    +0.021 A 
ATOM     28  C   UNL     1      -5.833  -5.179   1.468  0.00  0.00    +0.023 A 
ATOM     29  C   UNL     1      -4.557  -4.671   1.308  0.00  0.00    +0.062 A 
ATOM     30 CL   UNL     1      -3.179  -5.625   1.758  0.00  0.00    -0.082 Cl
ATOM     31 CL   UNL     1      -8.140  -2.204   0.130  0.00  0.00    -0.083 Cl
ENDBRANCH  22  24
ENDBRANCH  20  22
ENDBRANCH  18  20
ENDBRANCH  17  18
ENDBRANCH   2  17
TORSDOF 9
