REMARK  Name = ZINC39762995
REMARK  16 active torsions:
REMARK  status: ('A' for Active; 'I' for Inactive)
REMARK    1  A    between atoms: C_1  and  C_2
REMARK    2  A    between atoms: C_2  and  N_3
REMARK    3  A    between atoms: C_4  and  CA_25
REMARK    4  A    between atoms: C_7  and  S_8
REMARK    5  A    between atoms: S_8  and  C_9
REMARK    6  A    between atoms: C_9  and  C_11
REMARK    7  A    between atoms: C_9  and  C_12
REMARK    8  A    between atoms: N_14  and  C_15
REMARK    9  A    between atoms: C_18  and  N_21
REMARK   10  A    between atoms: C_22  and  C_24
REMARK   11  A    between atoms: CA_25  and  C_27
REMARK   12  A    between atoms: CA_25  and  N_29
REMARK   13  A    between atoms: C_27  and  O_28
REMARK   14  A    between atoms: C_30  and  C_32
REMARK   15  A    between atoms: C_35  and  O_38
REMARK   16  A    between atoms: O_38  and  C_39
REMARK                            x       y       z     vdW  Elec       q    Type
REMARK                         _______ _______ _______ _____ _____    ______ ____
ROOT
ATOM      1  N   UNL     1      -1.327  -0.484   0.011  0.00  0.00    -0.305 N 
ATOM      2  C   UNL     1      -2.087  -0.782   1.109  0.00  0.00    +0.157 A 
ATOM      3  N   UNL     1      -3.237  -1.218   0.678  0.00  0.00    -0.131 NA
ATOM      4  N   UNL     1      -3.256  -1.216  -0.607  0.00  0.00    -0.122 NA
ATOM      5  C   UNL     1      -2.111  -0.770  -1.069  0.00  0.00    +0.192 A 
ENDROOT
BRANCH   1   7
ATOM      6  C   UNL     1       0.003   1.568   0.010  0.00  0.00    +0.027 C 
ATOM      7  C   UNL     1       0.041   0.038  -0.002  0.00  0.00    +0.122 C 
ENDBRANCH   1   7
BRANCH   5   8
ATOM      8  S   UNL     1      -1.669  -0.580  -2.764  0.00  0.00    -0.074 S 
BRANCH   8   9
ATOM      9  C   UNL     1      -3.143  -1.131  -3.667  0.00  0.00    +0.137 C 
ATOM     10  C   UNL     1      -3.372  -2.621  -3.408  0.00  0.00    +0.029 C 
BRANCH   9  11
ATOM     11  C   UNL     1      -2.942  -0.903  -5.143  0.00  0.00    +0.230 C 
ATOM     12  O   UNL     1      -1.820  -0.859  -5.603  0.00  0.00    -0.274 OA
ATOM     13  N   UNL     1      -4.009  -0.747  -5.952  0.00  0.00    -0.285 N 
ATOM     14  H   UNL     1      -4.905  -0.848  -5.597  0.00  0.00    +0.155 HD
BRANCH  13  15
ATOM     15  C   UNL     1      -3.822  -0.439  -7.306  0.00  0.00    +0.034 A 
ATOM     16  C   UNL     1      -4.717   0.399  -7.957  0.00  0.00    +0.025 A 
ATOM     17  C   UNL     1      -4.534   0.702  -9.291  0.00  0.00    +0.025 A 
ATOM     18  C   UNL     1      -3.453   0.170  -9.982  0.00  0.00    +0.033 A 
ATOM     19  C   UNL     1      -2.557  -0.668  -9.331  0.00  0.00    +0.025 A 
ATOM     20  C   UNL     1      -2.738  -0.967  -7.995  0.00  0.00    +0.025 A 
BRANCH  18  21
ATOM     21  N   UNL     1      -3.267   0.477 -11.336  0.00  0.00    -0.286 N 
ATOM     22  C   UNL     1      -2.764  -0.451 -12.175  0.00  0.00    +0.214 C 
ATOM     23  O   UNL     1      -2.395  -1.522 -11.743  0.00  0.00    -0.276 OA
ATOM     24  C   UNL     1      -2.661  -0.156 -13.649  0.00  0.00    +0.109 C 
ATOM     25  H   UNL     1      -3.499   1.358 -11.670  0.00  0.00    +0.155 HD
ENDBRANCH  18  21
ENDBRANCH  13  15
ENDBRANCH   9  11
ENDBRANCH   8   9
ENDBRANCH   5   8
BRANCH   2  26
ATOM     26  CA  UNL     1      -1.670  -0.634   2.550  0.00  0.00    +0.167 C 
BRANCH  26  27
ATOM     27  N   UNL     1      -2.755  -0.008   3.310  0.00  0.00    -0.299 N 
ATOM     28  C   UNL     1      -2.480   0.675   4.438  0.00  0.00    +0.245 C 
ATOM     29  O   UNL     1      -1.331   0.772   4.826  0.00  0.00    -0.270 OA
ATOM     30  H   UNL     1      -3.671  -0.086   3.001  0.00  0.00    +0.150 HD
BRANCH  28  31
ATOM     31  C   UNL     1      -3.573   1.306   5.204  0.00  0.00    +0.037 A 
ATOM     32  C   UNL     1      -4.894   1.191   4.764  0.00  0.00    +0.016 A 
ATOM     33  C   UNL     1      -5.910   1.781   5.481  0.00  0.00    +0.046 A 
ATOM     34  C   UNL     1      -5.624   2.490   6.642  0.00  0.00    +0.120 A 
ATOM     35  C   UNL     1      -4.311   2.607   7.083  0.00  0.00    +0.046 A 
ATOM     36  C   UNL     1      -3.289   2.015   6.374  0.00  0.00    +0.016 A 
BRANCH  34  37
ATOM     37  O   UNL     1      -6.629   3.070   7.346  0.00  0.00    -0.495 OA
ATOM     38  C   UNL     1      -6.264   3.784   8.529  0.00  0.00    +0.277 C 
ENDBRANCH  34  37
ENDBRANCH  28  31
ENDBRANCH  26  27
BRANCH  26  39
ATOM     39  C   UNL     1      -1.367  -2.014   3.137  0.00  0.00    +0.186 C 
BRANCH  39  40
ATOM     40  O   UNL     1      -2.498  -2.869   2.955  0.00  0.00    -0.393 OA
ATOM     41  H   UNL     1      -2.376  -3.762   3.305  0.00  0.00    +0.209 HD
ENDBRANCH  39  40
ENDBRANCH  26  39
ENDBRANCH   2  26
TORSDOF 12
