REMARK  Name = ZINC36038224
REMARK  11 active torsions:
REMARK  status: ('A' for Active; 'I' for Inactive)
REMARK    1  A    between atoms: C_1  and  C_2
REMARK    2  A    between atoms: C_2  and  C_3
REMARK    3  A    between atoms: C_5  and  C_30
REMARK    4  A    between atoms: C_6  and  C_11
REMARK    5  A    between atoms: C_11  and  N_12
REMARK    6  A    between atoms: N_16  and  C_19
REMARK    7  A    between atoms: C_19  and  C_20
REMARK    8  A    between atoms: C_23  and  C_26
REMARK    9  A    between atoms: C_30  and  O_32
REMARK   10  A    between atoms: O_32  and  C_33
REMARK   11  A    between atoms: C_33  and  C_34
REMARK                            x       y       z     vdW  Elec       q    Type
REMARK                         _______ _______ _______ _____ _____    ______ ____
ROOT
ATOM      1  N   UNL     1      -0.842  -4.837   1.713  0.00  0.00    -0.299 NA
ATOM      2  C   UNL     1       0.527  -4.268   1.667  0.00  0.00    +0.083 C 
ATOM      3  C   UNL     1       1.116  -4.328   3.054  0.00  0.00    -0.003 C 
ATOM      4  C   UNL     1       1.923  -5.613   3.299  0.00  0.00    -0.077 C 
ATOM      5  N   UNL     1       1.263  -6.816   2.745  0.00  0.00    +0.383 N 
ATOM      6  C   UNL     1      -0.163  -6.814   2.980  0.00  0.00    -0.063 C 
ATOM      7  C   UNL     1      -0.864  -6.235   1.737  0.00  0.00    +0.066 C 
ATOM      8  H   UNL     1       1.431  -6.853   1.751  0.00  0.00    -0.081 HD
ENDROOT
BRANCH   1   9
ATOM      9  C   UNL     1      -1.665  -4.316   0.613  0.00  0.00    +0.135 C 
BRANCH   9  12
ATOM     10  C   UNL     1      -1.478  -0.513   0.010  0.00  0.00    +0.113 C 
ATOM     11  C   UNL     1      -1.301  -2.006  -0.179  0.00  0.00    +0.075 C 
ATOM     12  C   UNL     1      -1.818  -2.825   0.763  0.00  0.00    +0.038 C 
ATOM     13  N   UNL     1      -2.478  -2.323   1.848  0.00  0.00    -0.271 N 
ATOM     14  C   UNL     1      -2.663  -1.014   2.065  0.00  0.00    +0.304 C 
ATOM     15  O   UNL     1      -3.263  -0.663   3.061  0.00  0.00    -0.253 OA
ATOM     16  N   UNL     1      -2.204  -0.075   1.214  0.00  0.00    -0.292 N 
ATOM     17  H   UNL     1      -2.832  -2.949   2.498  0.00  0.00    +0.156 HD
ATOM     18  H   UNL     1      -2.349   0.867   1.392  0.00  0.00    +0.151 HD
BRANCH  10  20
ATOM     19  C   UNL     1      -0.229   1.650   0.012  0.00  0.00    +0.006 C 
ATOM     20  C   UNL     1      -0.089   0.127   0.038  0.00  0.00    +0.024 C 
ENDBRANCH  10  20
BRANCH  11  21
ATOM     21  C   UNL     1      -0.618  -2.525  -1.304  0.00  0.00    +0.338 C 
ATOM     22  O   UNL     1       0.598  -2.547  -1.320  0.00  0.00    -0.245 OA
BRANCH  21  23
ATOM     23  O   UNL     1      -1.316  -2.996  -2.359  0.00  0.00    -0.462 OA
BRANCH  23  24
ATOM     24  C   UNL     1      -0.561  -3.505  -3.460  0.00  0.00    +0.229 C 
ATOM     25  C   UNL     1      -1.517  -3.990  -4.552  0.00  0.00    +0.048 C 
ENDBRANCH  23  24
ENDBRANCH  21  23
ENDBRANCH  11  21
ENDBRANCH   9  12
ENDBRANCH   1   9
BRANCH   5  26
ATOM     26  C   UNL     1       1.848  -8.010   3.369  0.00  0.00    -0.043 C 
BRANCH  26  27
ATOM     27  C   UNL     1       3.297  -8.125   2.973  0.00  0.00    -0.064 A 
ATOM     28  C   UNL     1       3.649  -8.825   1.834  0.00  0.00    +0.002 A 
ATOM     29  C   UNL     1       4.979  -8.930   1.471  0.00  0.00    +0.012 A 
ATOM     30  C   UNL     1       5.957  -8.335   2.247  0.00  0.00    +0.055 A 
ATOM     31  C   UNL     1       5.604  -7.635   3.386  0.00  0.00    +0.012 A 
ATOM     32  C   UNL     1       4.274  -7.526   3.747  0.00  0.00    +0.002 A 
BRANCH  30  33
ATOM     33  C   UNL     1       7.406  -8.451   1.852  0.00  0.00    +0.417 C 
ATOM     34  F   UNL     1       7.749  -7.382   1.017  0.00  0.00    -0.166 F 
ATOM     35  F   UNL     1       8.206  -8.421   2.999  0.00  0.00    -0.166 F 
ATOM     36  F   UNL     1       7.609  -9.657   1.173  0.00  0.00    -0.166 F 
ENDBRANCH  30  33
ENDBRANCH  26  27
ENDBRANCH   5  26
TORSDOF 9
