REMARK  Name = ZINC39666028
REMARK  9 active torsions:
REMARK  status: ('A' for Active; 'I' for Inactive)
REMARK    1  A    between atoms: C_1  and  C_2
REMARK    2  A    between atoms: C_5  and  O_8
REMARK    3  A    between atoms: O_8  and  C_9
REMARK    4  A    between atoms: C_9  and  C_11
REMARK    5  A    between atoms: C_9  and  C_12
REMARK    6  A    between atoms: C_12  and  N_13
REMARK    7  A    between atoms: C_14  and  C_16
REMARK    8  A    between atoms: C_27  and  C_29
REMARK    9  A    between atoms: C_31  and  C_36
REMARK                            x       y       z     vdW  Elec       q    Type
REMARK                         _______ _______ _______ _____ _____    ______ ____
ROOT
ATOM      1  C   UNL     1       4.661  -6.548   0.316  0.00  0.00    +0.100 C 
ATOM      2  C   UNL     1       4.939  -5.632  -0.896  0.00  0.00    +0.121 C 
ATOM      3  N   UNL     1       6.230  -6.113  -1.441  0.00  0.00    -0.296 N 
ATOM      4  C   UNL     1       6.154  -7.589  -1.322  0.00  0.00    +0.115 C 
ATOM      5  C   UNL     1       5.459  -7.832   0.033  0.00  0.00    -0.004 C 
ATOM      6  C   UNL     1       4.518  -9.028  -0.064  0.00  0.00    -0.010 C 
ATOM      7  C   UNL     1       5.339 -10.301  -0.288  0.00  0.00    -0.082 C 
ATOM      8  N   UNL     1       6.279 -10.481   0.825  0.00  0.00    +0.379 N 
ATOM      9  C   UNL     1       7.239  -9.372   0.854  0.00  0.00    -0.082 C 
ATOM     10  C   UNL     1       6.498  -8.060   1.126  0.00  0.00    -0.010 C 
ATOM     11  C   UNL     1       7.246  -5.376  -1.932  0.00  0.00    +0.247 C 
ATOM     12  O   UNL     1       7.136  -4.168  -2.014  0.00  0.00    -0.270 OA
ATOM     13  H   UNL     1       5.768 -10.505   1.695  0.00  0.00    -0.086 HD
ATOM     14  H   UNL     1       6.776 -11.351   0.707  0.00  0.00    -0.086 HD
ENDROOT
BRANCH  11  15
ATOM     15  C   UNL     1       8.493  -6.036  -2.373  0.00  0.00    +0.040 A 
ATOM     16  C   UNL     1       9.709  -5.354  -2.302  0.00  0.00    +0.025 A 
ATOM     17  C   UNL     1      10.870  -5.975  -2.714  0.00  0.00    +0.058 A 
ATOM     18  C   UNL     1      10.833  -7.271  -3.197  0.00  0.00    +0.050 A 
ATOM     19  C   UNL     1       9.629  -7.954  -3.270  0.00  0.00    +0.125 A 
ATOM     20  C   UNL     1       8.460  -7.345  -2.855  0.00  0.00    +0.051 A 
ATOM     21  F   UNL     1       9.600  -9.219  -3.743  0.00  0.00    -0.205 F 
BRANCH  17  22
ATOM     22  C   UNL     1      12.184  -5.239  -2.639  0.00  0.00    +0.418 C 
ATOM     23  F   UNL     1      12.777  -5.472  -1.394  0.00  0.00    -0.166 F 
ATOM     24  F   UNL     1      13.033  -5.696  -3.653  0.00  0.00    -0.166 F 
ATOM     25  F   UNL     1      11.959  -3.868  -2.800  0.00  0.00    -0.166 F 
ENDBRANCH  17  22
ENDBRANCH  11  15
BRANCH   1  27
ATOM     26  N   UNL     1       2.628  -7.094   1.617  0.00  0.00    -0.312 N 
ATOM     27  C   UNL     1       3.189  -6.856   0.414  0.00  0.00    +0.218 C 
ATOM     28  O   UNL     1       2.508  -6.890  -0.589  0.00  0.00    -0.275 OA
ATOM     29  H   UNL     1       3.173  -7.067   2.419  0.00  0.00    +0.149 HD
BRANCH  26  30
ATOM     30  C   UNL     1       1.198  -7.394   1.712  0.00  0.00    +0.148 C 
BRANCH  30  31
ATOM     31  C   UNL     1       0.821  -7.622   3.177  0.00  0.00    +0.187 C 
ATOM     32  C   UNL     1      -0.644  -8.056   3.265  0.00  0.00    +0.053 C 
BRANCH  31  33
ATOM     33  O   UNL     1       1.002  -6.408   3.910  0.00  0.00    -0.488 OA
BRANCH  33  38
ATOM     34  C   UNL     1       2.256  -6.889   9.380  0.00  0.00    +0.044 C 
ATOM     35  C   UNL     1       1.920  -6.760   7.917  0.00  0.00    -0.050 A 
ATOM     36  C   UNL     1       1.623  -7.889   7.175  0.00  0.00    +0.007 A 
ATOM     37  C   UNL     1       1.315  -7.773   5.833  0.00  0.00    +0.046 A 
ATOM     38  C   UNL     1       1.304  -6.524   5.230  0.00  0.00    +0.121 A 
ATOM     39  C   UNL     1       1.603  -5.393   5.976  0.00  0.00    +0.046 A 
ATOM     40  C   UNL     1       1.905  -5.513   7.319  0.00  0.00    +0.007 A 
ENDBRANCH  33  38
ENDBRANCH  31  33
ENDBRANCH  30  31
ENDBRANCH  26  30
ENDBRANCH   1  27
TORSDOF 7
