REMARK  Name = ZINC44409691
REMARK  11 active torsions:
REMARK  status: ('A' for Active; 'I' for Inactive)
REMARK    1  A    between atoms: C_1  and  C_2
REMARK    2  A    between atoms: C_2  and  C_3
REMARK    3  A    between atoms: C_3  and  C_5
REMARK    4  A    between atoms: C_3  and  N_33
REMARK    5  A    between atoms: C_5  and  C_6
REMARK    6  A    between atoms: C_7  and  O_31
REMARK    7  A    between atoms: C_9  and  C_30
REMARK    8  A    between atoms: C_16  and  O_23
REMARK    9  A    between atoms: C_17  and  C_22
REMARK   10  A    between atoms: C_27  and  O_29
REMARK   11  A    between atoms: O_31  and  C_32
REMARK                            x       y       z     vdW  Elec       q    Type
REMARK                         _______ _______ _______ _____ _____    ______ ____
ROOT
ATOM      1  C   UNL     1       1.277  -2.528   2.581  0.00  0.00    +0.036 A 
ATOM      2  C   UNL     1       2.607  -2.930   2.604  0.00  0.00    +0.127 A 
ATOM      3  C   UNL     1       3.184  -3.388   3.785  0.00  0.00    +0.050 A 
ATOM      4  C   UNL     1       2.434  -3.478   4.938  0.00  0.00    -0.029 A 
ATOM      5  C   UNL     1       1.093  -3.098   4.914  0.00  0.00    +0.105 A 
ATOM      6  C   UNL     1       0.530  -2.576   3.741  0.00  0.00    +0.149 A 
ATOM      7  O   UNL     1      -0.721  -2.078   3.807  0.00  0.00    -0.451 OA
ATOM      8  C   UNL     1      -1.798  -2.844   4.100  0.00  0.00    +0.181 A 
ATOM      9  C   UNL     1      -2.901  -2.675   3.277  0.00  0.00    +0.083 A 
ATOM     10  C   UNL     1      -4.072  -3.411   3.475  0.00  0.00    +0.113 A 
ATOM     11  C   UNL     1      -4.128  -4.336   4.525  0.00  0.00    +0.138 A 
ATOM     12  C   UNL     1      -3.026  -4.499   5.342  0.00  0.00    +0.038 A 
ATOM     13  C   UNL     1      -1.858  -3.759   5.139  0.00  0.00    +0.181 A 
ATOM     14  O   UNL     1      -0.854  -4.018   6.020  0.00  0.00    -0.418 OA
ATOM     15  C   UNL     1       0.230  -3.246   6.097  0.00  0.00    +0.348 C 
ATOM     16  O   UNL     1       0.493  -2.664   7.131  0.00  0.00    -0.244 OA
ATOM     17  C   UNL     1      -3.085  -5.494   6.473  0.00  0.00    +0.051 C 
ATOM     18  C   UNL     1      -5.037  -3.001   2.447  0.00  0.00    +0.346 C 
ATOM     19  O   UNL     1      -6.162  -3.446   2.330  0.00  0.00    -0.245 OA
ATOM     20  O   UNL     1      -4.494  -2.061   1.654  0.00  0.00    -0.427 OA
ATOM     21  C   UNL     1      -3.159  -1.784   2.088  0.00  0.00    +0.345 C 
ATOM     22  C   UNL     1       3.058  -3.984   6.212  0.00  0.00    +0.045 C 
ENDROOT
BRANCH  11  23
ATOM     23  O   UNL     1      -5.252  -5.065   4.738  0.00  0.00    -0.506 OA
ATOM     24  H   UNL     1      -5.272  -5.906   4.261  0.00  0.00    +0.292 HD
ENDBRANCH  11  23
BRANCH  21  25
ATOM     25  O   UNL     1      -2.232  -2.083   1.042  0.00  0.00    -0.354 OA
ATOM     26  H   UNL     1      -2.347  -1.543   0.249  0.00  0.00    +0.214 HD
ENDBRANCH  21  25
BRANCH   2  27
ATOM     27  O   UNL     1       3.348  -2.876   1.469  0.00  0.00    -0.495 OA
ATOM     28  C   UNL     1       4.708  -3.303   1.561  0.00  0.00    +0.277 C 
ENDBRANCH   2  27
BRANCH   1  29
ATOM     29  C   UNL     1       0.655  -2.037   1.299  0.00  0.00    +0.026 C 
BRANCH  29  30
ATOM     30  C   UNL     1       0.732  -0.510   1.247  0.00  0.00    -0.071 C 
BRANCH  30  31
ATOM     31  N   UNL     1       2.139  -0.092   1.181  0.00  0.00    +0.380 N 
ATOM     32  H   UNL     1       2.567  -0.479   0.353  0.00  0.00    -0.090 HD
ATOM     33  H   UNL     1       2.189   0.915   1.147  0.00  0.00    -0.090 HD
ATOM     34  H   UNL     1       2.627  -0.426   1.999  0.00  0.00    -0.090 HD
ENDBRANCH  30  31
BRANCH  30  36
ATOM     35  C   UNL     1      -0.039   1.525   0.020  0.00  0.00    +0.002 C 
ATOM     36  C   UNL     1      -0.008  -0.004   0.007  0.00  0.00    -0.019 C 
ENDBRANCH  30  36
ENDBRANCH  29  30
ENDBRANCH   1  29
TORSDOF 7
