REMARK  Name = ZINC32999633
REMARK  7 active torsions:
REMARK  status: ('A' for Active; 'I' for Inactive)
REMARK    1  A    between atoms: C_1  and  C_2
REMARK    2  A    between atoms: C_2  and  C_30
REMARK    3  A    between atoms: N_5  and  C_9
REMARK    4  A    between atoms: C_9  and  C_10
REMARK    5  A    between atoms: N_12  and  C_13
REMARK    6  A    between atoms: C_16  and  S_19
REMARK    7  A    between atoms: S_19  and  N_22
REMARK                            x       y       z     vdW  Elec       q    Type
REMARK                         _______ _______ _______ _____ _____    ______ ____
ROOT
ATOM      1  C   UNL     1      -4.100  -3.981   2.821  0.00  0.00    +0.235 C 
ATOM      2  O   UNL     1      -4.579  -4.881   3.478  0.00  0.00    -0.274 OA
ATOM      3  N   UNL     1      -3.573  -4.239   1.608  0.00  0.00    -0.284 N 
ATOM      4  H   UNL     1      -3.250  -3.510   1.055  0.00  0.00    +0.155 HD
ENDROOT
BRANCH   3   5
ATOM      5  C   UNL     1      -3.492  -5.557   1.145  0.00  0.00    +0.034 A 
ATOM      6  C   UNL     1      -2.412  -5.957   0.370  0.00  0.00    +0.025 A 
ATOM      7  C   UNL     1      -2.335  -7.259  -0.085  0.00  0.00    +0.031 A 
ATOM      8  C   UNL     1      -3.332  -8.163   0.231  0.00  0.00    +0.113 A 
ATOM      9  C   UNL     1      -4.410  -7.768   1.003  0.00  0.00    +0.031 A 
ATOM     10  C   UNL     1      -4.489  -6.469   1.466  0.00  0.00    +0.025 A 
BRANCH   8  11
ATOM     11  S   UNL     1      -3.231  -9.823  -0.351  0.00  0.00    +0.100 S 
ATOM     12  O   UNL     1      -4.559 -10.327  -0.376  0.00  0.00    -0.146 OA
ATOM     13  O   UNL     1      -2.404  -9.798  -1.506  0.00  0.00    -0.146 OA
BRANCH  11  14
ATOM     14  N   UNL     1      -2.415 -10.695   0.796  0.00  0.00    -0.118 NA
ATOM     15  C   UNL     1      -2.199 -11.958   0.617  0.00  0.00    +0.117 C 
ATOM     16  C   UNL     1      -2.690 -12.645  -0.655  0.00  0.00    +0.073 C 
ATOM     17  C   UNL     1      -1.468 -13.000  -1.475  0.00  0.00    +0.008 C 
ATOM     18  C   UNL     1      -0.881 -14.369  -1.131  0.00  0.00    +0.002 C 
ATOM     19  C   UNL     1      -0.825 -14.637   0.373  0.00  0.00    +0.019 C 
ATOM     20  C   UNL     1      -0.352 -13.444   1.175  0.00  0.00    +0.102 C 
ATOM     21  N   UNL     1      -1.550 -12.654   1.529  0.00  0.00    -0.331 N 
ATOM     22  H   UNL     1      -1.862 -12.649   2.447  0.00  0.00    +0.147 HD
ENDBRANCH  11  14
ENDBRANCH   8  11
ENDBRANCH   3   5
BRANCH   1  23
ATOM     23  C   UNL     1      -4.092  -2.575   3.363  0.00  0.00    +0.214 C 
BRANCH  23  28
ATOM     24  C   UNL     1      -4.774  -1.472   7.878  0.00  0.00    +0.047 C 
ATOM     25  C   UNL     1      -5.087  -2.640   6.941  0.00  0.00    +0.135 C 
ATOM     26  C   UNL     1      -4.046  -2.737   5.844  0.00  0.00    +0.251 C 
ATOM     27  O   UNL     1      -2.857  -2.935   5.977  0.00  0.00    -0.272 OA
ATOM     28  N   UNL     1      -4.716  -2.559   4.688  0.00  0.00    -0.215 N 
ATOM     29  C   UNL     1      -6.023  -2.365   4.901  0.00  0.00    +0.310 C 
ATOM     30  O   UNL     1      -6.832  -2.181   4.013  0.00  0.00    -0.252 OA
ATOM     31  N   UNL     1      -6.341  -2.395   6.208  0.00  0.00    -0.281 N 
ATOM     32  H   UNL     1      -7.224  -2.279   6.593  0.00  0.00    +0.152 HD
BRANCH  25  33
ATOM     33  C   UNL     1      -5.168  -3.931   7.715  0.00  0.00    -0.016 A 
ATOM     34  C   UNL     1      -4.036  -4.704   7.891  0.00  0.00    +0.006 A 
ATOM     35  C   UNL     1      -4.110  -5.887   8.601  0.00  0.00    +0.000 A 
ATOM     36  C   UNL     1      -5.317  -6.298   9.135  0.00  0.00    +0.000 A 
ATOM     37  C   UNL     1      -6.450  -5.525   8.960  0.00  0.00    +0.000 A 
ATOM     38  C   UNL     1      -6.374  -4.339   8.253  0.00  0.00    +0.006 A 
ENDBRANCH  25  33
ENDBRANCH  23  28
ENDBRANCH   1  23
TORSDOF 6
