REMARK  Name = ZINC12541735
REMARK  7 active torsions:
REMARK  status: ('A' for Active; 'I' for Inactive)
REMARK    1  A    between atoms: C_1  and  C_2
REMARK    2  A    between atoms: C_5  and  C_8
REMARK    3  A    between atoms: C_8  and  N_9
REMARK    4  A    between atoms: C_10  and  C_12
REMARK    5  A    between atoms: C_17  and  N_18
REMARK    6  A    between atoms: N_18  and  S_19
REMARK    7  A    between atoms: S_19  and  C_22
REMARK                            x       y       z     vdW  Elec       q    Type
REMARK                         _______ _______ _______ _____ _____    ______ ____
ROOT
ATOM      1  C   UNL     1       3.239   2.880  -3.763  0.00  0.00    +0.059 A 
ATOM      2  C   UNL     1       2.369   3.599  -4.587  0.00  0.00    +0.015 A 
ATOM      3  C   UNL     1       1.711   4.704  -4.092  0.00  0.00    +0.001 A 
ATOM      4  C   UNL     1       1.906   5.107  -2.781  0.00  0.00    +0.002 A 
ATOM      5  C   UNL     1       2.757   4.404  -1.953  0.00  0.00    +0.025 A 
ATOM      6  C   UNL     1       3.434   3.290  -2.435  0.00  0.00    +0.060 A 
ENDROOT
BRANCH   1   8
ATOM      7  N   UNL     1       3.755   1.305  -5.561  0.00  0.00    -0.307 N 
ATOM      8  C   UNL     1       3.946   1.696  -4.285  0.00  0.00    +0.246 C 
ATOM      9  O   UNL     1       4.702   1.072  -3.565  0.00  0.00    -0.270 OA
ATOM     10  H   UNL     1       3.152   1.803  -6.135  0.00  0.00    +0.149 HD
BRANCH   7  11
ATOM     11  C   UNL     1       4.458   0.129  -6.080  0.00  0.00    +0.139 C 
BRANCH  11  16
ATOM     12  C   UNL     1       2.982  -0.716 -11.603  0.00  0.00    +0.044 C 
ATOM     13  C   UNL     1       3.367  -0.495 -10.162  0.00  0.00    -0.050 A 
ATOM     14  C   UNL     1       4.451   0.303  -9.851  0.00  0.00    +0.003 A 
ATOM     15  C   UNL     1       4.805   0.505  -8.530  0.00  0.00    +0.005 A 
ATOM     16  C   UNL     1       4.073  -0.091  -7.520  0.00  0.00    -0.030 A 
ATOM     17  C   UNL     1       2.991  -0.893  -7.832  0.00  0.00    +0.005 A 
ATOM     18  C   UNL     1       2.635  -1.092  -9.153  0.00  0.00    +0.003 A 
ENDBRANCH  11  16
ENDBRANCH   7  11
ENDBRANCH   1   8
BRANCH   6  19
ATOM     19  N   UNL     1       4.295   2.583  -1.606  0.00  0.00    -0.216 N 
ATOM     20  H   UNL     1       5.106   2.193  -1.968  0.00  0.00    +0.174 HD
BRANCH  19  21
ATOM     21  S   UNL     1       3.938   2.408   0.002  0.00  0.00    +0.072 S 
ATOM     22  O   UNL     1       3.711   3.714   0.513  0.00  0.00    -0.150 OA
ATOM     23  O   UNL     1       4.922   1.538   0.544  0.00  0.00    -0.150 OA
BRANCH  21  24
ATOM     24  C   UNL     1       2.400   1.553   0.103  0.00  0.00    +0.111 A 
ATOM     25  C   UNL     1       1.215   2.267   0.127  0.00  0.00    +0.031 A 
ATOM     26  C   UNL     1       0.005   1.607   0.206  0.00  0.00    +0.030 A 
ATOM     27  C   UNL     1      -0.023   0.221   0.262  0.00  0.00    +0.067 A 
ATOM     28  C   UNL     1       1.173  -0.499   0.237  0.00  0.00    +0.069 A 
ATOM     29  C   UNL     1       2.383   0.173   0.157  0.00  0.00    +0.056 A 
ATOM     30  N   UNL     1       0.832  -1.848   0.305  0.00  0.00    -0.306 N 
ATOM     31  H   UNL     1       1.454  -2.592   0.307  0.00  0.00    +0.170 HD
ATOM     32  C   UNL     1      -0.510  -1.943   0.368  0.00  0.00    +0.325 A 
ATOM     33  O   UNL     1      -1.136  -2.985   0.436  0.00  0.00    -0.247 OA
ATOM     34  N   UNL     1      -1.054  -0.712   0.344  0.00  0.00    -0.306 N 
ATOM     35  H   UNL     1      -2.001  -0.509   0.378  0.00  0.00    +0.170 HD
ENDBRANCH  21  24
ENDBRANCH  19  21
ENDBRANCH   6  19
TORSDOF 6
