REMARK  Name = ZINC12954968
REMARK  9 active torsions:
REMARK  status: ('A' for Active; 'I' for Inactive)
REMARK    1  A    between atoms: C_1  and  C_2
REMARK    2  A    between atoms: C_5  and  S_8
REMARK    3  A    between atoms: S_8  and  N_11
REMARK    4  A    between atoms: N_14  and  O_27
REMARK    5  A    between atoms: N_16  and  O_17
REMARK    6  A    between atoms: O_17  and  C_18
REMARK    7  A    between atoms: C_18  and  C_19
REMARK    8  A    between atoms: O_27  and  C_28
REMARK    9  A    between atoms: C_28  and  C_29
REMARK                            x       y       z     vdW  Elec       q    Type
REMARK                         _______ _______ _______ _____ _____    ______ ____
ROOT
ATOM      1  N   UNL     1       1.223  -2.923  -1.606  0.00  0.00    -0.167 N 
ATOM      2  C   UNL     1       2.269  -2.633  -2.405  0.00  0.00    +0.350 C 
ATOM      3  O   UNL     1       3.220  -2.017  -1.962  0.00  0.00    -0.248 OA
ATOM      4  N   UNL     1       2.262  -3.025  -3.694  0.00  0.00    -0.116 N 
ATOM      5  C   UNL     1       3.335  -2.728  -4.513  0.00  0.00    +0.263 C 
ATOM      6  N   UNL     1       3.328  -3.103  -5.748  0.00  0.00    -0.074 NA
ATOM      7  H   UNL     1       0.465  -3.414  -1.959  0.00  0.00    +0.178 HD
ENDROOT
BRANCH   1   8
ATOM      8  S   UNL     1       1.232  -2.441  -0.022  0.00  0.00    +0.076 S 
ATOM      9  O   UNL     1       2.489  -2.832   0.515  0.00  0.00    -0.150 OA
ATOM     10  O   UNL     1      -0.002  -2.866   0.539  0.00  0.00    -0.150 OA
BRANCH   8  15
ATOM     11  C   UNL     1       1.151   3.592   0.010  0.00  0.00    +0.044 C 
ATOM     12  C   UNL     1       1.171   2.086   0.002  0.00  0.00    -0.050 A 
ATOM     13  C   UNL     1      -0.017   1.378   0.010  0.00  0.00    +0.005 A 
ATOM     14  C   UNL     1       0.002  -0.004   0.002  0.00  0.00    +0.029 A 
ATOM     15  C   UNL     1       1.208  -0.679  -0.013  0.00  0.00    +0.109 A 
ATOM     16  C   UNL     1       2.396   0.029  -0.021  0.00  0.00    +0.029 A 
ATOM     17  C   UNL     1       2.377   1.411  -0.015  0.00  0.00    +0.005 A 
ENDBRANCH   8  15
ENDBRANCH   1   8
BRANCH   6  18
ATOM     18  O   UNL     1       4.427  -2.799  -6.587  0.00  0.00    -0.388 OA
BRANCH  18  19
ATOM     19  C   UNL     1       4.285  -3.275  -7.927  0.00  0.00    +0.301 C 
BRANCH  19  20
ATOM     20  C   UNL     1       5.505  -2.897  -8.727  0.00  0.00    +0.029 A 
ATOM     21  C   UNL     1       5.540  -1.694  -9.409  0.00  0.00    +0.049 A 
ATOM     22  C   UNL     1       6.662  -1.345 -10.140  0.00  0.00    +0.020 A 
ATOM     23  C   UNL     1       7.744  -2.203 -10.195  0.00  0.00    +0.003 A 
ATOM     24  C   UNL     1       7.708  -3.407  -9.517  0.00  0.00    +0.020 A 
ATOM     25  C   UNL     1       6.589  -3.755  -8.783  0.00  0.00    +0.049 A 
ATOM     26 CL   UNL     1       6.543  -5.267  -7.932  0.00  0.00    -0.083 Cl
ATOM     27 CL   UNL     1       4.177  -0.620  -9.345  0.00  0.00    -0.083 Cl
ENDBRANCH  19  20
ENDBRANCH  18  19
ENDBRANCH   6  18
BRANCH   4  28
ATOM     28  O   UNL     1       1.155  -3.742  -4.210  0.00  0.00    -0.265 OA
BRANCH  28  29
ATOM     29  C   UNL     1       0.130  -2.912  -4.760  0.00  0.00    +0.229 C 
BRANCH  29  30
ATOM     30  C   UNL     1      -0.992  -3.775  -5.276  0.00  0.00    +0.017 A 
ATOM     31  C   UNL     1      -0.977  -4.220  -6.586  0.00  0.00    +0.048 A 
ATOM     32  C   UNL     1      -2.006  -5.016  -7.058  0.00  0.00    +0.020 A 
ATOM     33  C   UNL     1      -3.053  -5.359  -6.223  0.00  0.00    +0.003 A 
ATOM     34  C   UNL     1      -3.071  -4.911  -4.916  0.00  0.00    +0.020 A 
ATOM     35  C   UNL     1      -2.040  -4.119  -4.441  0.00  0.00    +0.048 A 
ATOM     36 CL   UNL     1      -2.063  -3.557  -2.799  0.00  0.00    -0.083 Cl
ATOM     37 CL   UNL     1       0.334  -3.783  -7.636  0.00  0.00    -0.083 Cl
ENDBRANCH  29  30
ENDBRANCH  28  29
ENDBRANCH   4  28
TORSDOF 8
