REMARK  Name = ZINC25082570
REMARK  7 active torsions:
REMARK  status: ('A' for Active; 'I' for Inactive)
REMARK    1  A    between atoms: C_1  and  C_2
REMARK    2  A    between atoms: C_2  and  C_4
REMARK    3  A    between atoms: C_2  and  N_23
REMARK    4  A    between atoms: N_6  and  C_7
REMARK    5  A    between atoms: N_10  and  C_13
REMARK    6  A    between atoms: C_13  and  C_14
REMARK    7  A    between atoms: N_16  and  C_17
REMARK                            x       y       z     vdW  Elec       q    Type
REMARK                         _______ _______ _______ _____ _____    ______ ____
ROOT
ATOM      1  C   UNL     1      -4.854  -4.038  -1.186  0.00  0.00    +0.069 C 
ATOM      2  C   UNL     1      -3.947  -4.776  -0.198  0.00  0.00    +0.003 C 
ATOM      3  C   UNL     1      -2.508  -4.282  -0.367  0.00  0.00    -0.076 C 
ATOM      4  N   UNL     1      -2.454  -2.836  -0.121  0.00  0.00    +0.386 N 
ATOM      5  C   UNL     1      -3.281  -2.102  -1.088  0.00  0.00    -0.076 C 
ATOM      6  C   UNL     1      -4.742  -2.531  -0.941  0.00  0.00    +0.003 C 
ATOM      7  H   UNL     1      -2.867  -2.650   0.881  0.00  0.00    -0.081 HD
ENDROOT
BRANCH   1  10
ATOM      8  C   UNL     1      -7.126  -4.372  -2.002  0.00  0.00    +0.234 C 
ATOM      9  O   UNL     1      -6.772  -3.935  -3.077  0.00  0.00    -0.274 OA
ATOM     10  N   UNL     1      -6.242  -4.464  -0.989  0.00  0.00    -0.311 N 
ATOM     11  H   UNL     1      -6.563  -4.860  -0.014  0.00  0.00    +0.149 HD
BRANCH   8  13
ATOM     12  C   UNL     1      -8.582  -6.292  -1.418  0.00  0.00    +0.038 C 
ATOM     13  C   UNL     1      -8.553  -4.810  -1.800  0.00  0.00    +0.167 C 
BRANCH  13  14
ATOM     14  N   UNL     1      -9.306  -4.611  -3.040  0.00  0.00    -0.230 N 
ATOM     15  C   UNL     1      -8.980  -5.211  -4.214  0.00  0.00    +0.227 C 
ATOM     16  O   UNL     1      -8.197  -6.123  -4.372  0.00  0.00    -0.275 OA
ATOM     17  C   UNL     1      -9.783  -4.524  -5.275  0.00  0.00    +0.091 C 
ATOM     18  C   UNL     1     -10.301  -5.349  -6.434  0.00  0.00    +0.040 C 
ATOM     19  C   UNL     1     -11.342  -4.509  -7.143  0.00  0.00    -0.030 C 
ATOM     20  C   UNL     1     -11.932  -3.477  -6.619  0.00  0.00    -0.030 C 
ATOM     21  C   UNL     1     -11.688  -2.977  -5.211  0.00  0.00    +0.040 C 
ATOM     22  C   UNL     1     -11.038  -4.111  -4.447  0.00  0.00    +0.091 C 
ATOM     23  C   UNL     1     -10.394  -3.803  -3.129  0.00  0.00    +0.227 C 
ATOM     24  O   UNL     1     -10.770  -2.994  -2.308  0.00  0.00    -0.275 OA
ENDBRANCH  13  14
ENDBRANCH   8  13
ENDBRANCH   1  10
BRANCH   4  25
ATOM     25  C   UNL     1      -1.068  -2.350  -0.139  0.00  0.00    +0.019 C 
BRANCH  25  26
ATOM     26  C   UNL     1      -0.317  -2.934   1.030  0.00  0.00    +0.201 C 
ATOM     27  O   UNL     1      -0.906  -3.589   1.863  0.00  0.00    -0.278 OA
ATOM     28  N   UNL     1       1.010  -2.727   1.150  0.00  0.00    -0.287 N 
ATOM     29  H   UNL     1       1.528  -2.060   0.446  0.00  0.00    +0.155 HD
BRANCH  28  30
ATOM     30  C   UNL     1       1.727  -3.360   2.171  0.00  0.00    +0.033 A 
ATOM     31  C   UNL     1       1.141  -3.558   3.414  0.00  0.00    +0.023 A 
ATOM     32  C   UNL     1       1.850  -4.188   4.418  0.00  0.00    +0.002 A 
ATOM     33  C   UNL     1       3.146  -4.612   4.189  0.00  0.00    +0.000 A 
ATOM     34  C   UNL     1       3.735  -4.412   2.954  0.00  0.00    +0.002 A 
ATOM     35  C   UNL     1       3.029  -3.787   1.944  0.00  0.00    +0.023 A 
ENDBRANCH  28  30
ENDBRANCH  25  26
ENDBRANCH   4  25
TORSDOF 6
