REMARK  Name = ZINC14273305
REMARK  13 active torsions:
REMARK  status: ('A' for Active; 'I' for Inactive)
REMARK    1  A    between atoms: C_1  and  C_2
REMARK    2  A    between atoms: C_2  and  C_3
REMARK    3  A    between atoms: C_2  and  C_4
REMARK    4  A    between atoms: C_2  and  C_5
REMARK    5  A    between atoms: C_8  and  O_11
REMARK    6  A    between atoms: O_11  and  C_12
REMARK    7  A    between atoms: C_12  and  C_13
REMARK    8  A    between atoms: N_15  and  C_16
REMARK    9  A    between atoms: C_17  and  C_30
REMARK   10  A    between atoms: C_22  and  C_26
REMARK   11  A    between atoms: C_26  and  C_27
REMARK   12  A    between atoms: C_26  and  C_28
REMARK   13  A    between atoms: C_26  and  C_29
REMARK                            x       y       z     vdW  Elec       q    Type
REMARK                         _______ _______ _______ _____ _____    ______ ____
ROOT
ATOM      1  C   UNL     1       1.180   1.675  -0.000  0.00  0.00    +0.084 A 
ATOM      2  C   UNL     1       2.477   1.183  -0.010  0.00  0.00    +0.068 A 
ATOM      3  C   UNL     1       3.563   2.148  -0.020  0.00  0.00    -0.023 A 
ATOM      4  C   UNL     1       3.180   3.444  -0.009  0.00  0.00    -0.004 A 
ATOM      5  S   UNL     1       1.411   3.393   0.007  0.00  0.00    -0.077 S 
ATOM      6  C   UNL     1       4.070   4.649  -0.011  0.00  0.00    +0.046 C 
ATOM      7  C   UNL     1       5.486   4.203  -0.404  0.00  0.00    -0.000 C 
ATOM      8  C   UNL     1       5.863   2.970   0.422  0.00  0.00    +0.009 C 
ATOM      9  C   UNL     1       5.038   1.766  -0.035  0.00  0.00    +0.037 C 
ENDROOT
BRANCH   2  10
ATOM     10  C   UNL     1       2.743  -0.260  -0.013  0.00  0.00    +0.244 C 
ATOM     11  O   UNL     1       2.846  -0.857  -1.068  0.00  0.00    -0.270 OA
ATOM     12  N   UNL     1       2.872  -0.923   1.153  0.00  0.00    -0.325 N 
ATOM     13  H   UNL     1       2.790  -0.447   1.994  0.00  0.00    +0.145 HD
ATOM     14  H   UNL     1       3.048  -1.877   1.151  0.00  0.00    +0.145 HD
ENDBRANCH   2  10
BRANCH   1  17
ATOM     15  C   UNL     1      -1.187   1.624   0.017  0.00  0.00    +0.255 C 
ATOM     16  O   UNL     1      -1.204   2.836   0.023  0.00  0.00    -0.272 OA
ATOM     17  N   UNL     1      -0.011   0.966   0.007  0.00  0.00    -0.277 N 
ATOM     18  H   UNL     1       0.002  -0.004   0.002  0.00  0.00    +0.155 HD
BRANCH  15  19
ATOM     19  C   UNL     1      -2.482   0.853   0.018  0.00  0.00    +0.324 C 
BRANCH  19  20
ATOM     20  O   UNL     1      -3.581   1.766   0.029  0.00  0.00    -0.483 OA
BRANCH  20  24
ATOM     21  C   UNL     1      -7.371   0.138   0.038  0.00  0.00    -0.042 A 
ATOM     22  C   UNL     1      -7.210   1.511   0.044  0.00  0.00    +0.008 A 
ATOM     23  C   UNL     1      -5.942   2.059   0.041  0.00  0.00    +0.046 A 
ATOM     24  C   UNL     1      -4.829   1.230   0.032  0.00  0.00    +0.121 A 
ATOM     25  C   UNL     1      -4.994  -0.148   0.019  0.00  0.00    +0.046 A 
ATOM     26  C   UNL     1      -6.264  -0.690   0.029  0.00  0.00    +0.008 A 
BRANCH  21  28
ATOM     27  C   UNL     1      -9.515   0.011  -1.202  0.00  0.00    +0.015 C 
ATOM     28  C   UNL     1      -8.756  -0.457   0.041  0.00  0.00    -0.013 C 
ATOM     29  C   UNL     1      -8.655  -1.984   0.033  0.00  0.00    +0.015 C 
ATOM     30  C   UNL     1      -9.503  -0.002   1.296  0.00  0.00    +0.015 C 
ENDBRANCH  21  28
ENDBRANCH  20  24
ENDBRANCH  19  20
ENDBRANCH  15  19
ENDBRANCH   1  17
BRANCH   7  31
ATOM     31  C   UNL     1       6.476   5.334  -0.120  0.00  0.00    -0.035 C 
ATOM     32  C   UNL     1       6.447   5.675   1.371  0.00  0.00    +0.011 C 
ATOM     33  C   UNL     1       7.886   4.888  -0.513  0.00  0.00    +0.011 C 
ATOM     34  C   UNL     1       6.087   6.570  -0.933  0.00  0.00    +0.011 C 
ENDBRANCH   7  31
TORSDOF 7
