REMARK  Name = ZINC67035187
REMARK  9 active torsions:
REMARK  status: ('A' for Active; 'I' for Inactive)
REMARK    1  A    between atoms: C_1  and  C_2
REMARK    2  A    between atoms: C_6  and  C_7
REMARK    3  A    between atoms: N_9  and  N_10
REMARK    4  A    between atoms: N_13  and  C_14
REMARK    5  A    between atoms: C_14  and  C_15
REMARK    6  A    between atoms: C_18  and  N_21
REMARK    7  A    between atoms: C_22  and  C_24
REMARK    8  A    between atoms: C_24  and  C_25
REMARK    9  A    between atoms: C_24  and  C_26
REMARK                            x       y       z     vdW  Elec       q    Type
REMARK                         _______ _______ _______ _____ _____    ______ ____
ROOT
ATOM      1  N   UNL     1      -0.379  -0.751   4.964  0.00  0.00    -0.218 N 
ATOM      2  C   UNL     1      -0.170  -1.640   5.955  0.00  0.00    +0.316 C 
ATOM      3  O   UNL     1      -0.031  -1.253   7.099  0.00  0.00    -0.251 OA
ATOM      4  N   UNL     1      -0.117  -2.958   5.679  0.00  0.00    -0.294 N 
ATOM      5  H   UNL     1      -0.417   0.197   5.163  0.00  0.00    +0.174 HD
ATOM      6  H   UNL     1      -0.228  -3.267   4.766  0.00  0.00    +0.151 HD
ENDROOT
BRANCH   1   9
ATOM      7  C   UNL     1      -0.748  -0.308   2.654  0.00  0.00    +0.267 C 
ATOM      8  O   UNL     1      -0.797   0.882   2.904  0.00  0.00    -0.268 OA
ATOM      9  N   UNL     1      -0.540  -1.197   3.646  0.00  0.00    -0.229 N 
ATOM     10  H   UNL     1      -0.501  -2.146   3.446  0.00  0.00    +0.173 HD
BRANCH   7  16
ATOM     11  C   UNL     1      -1.242   1.467   0.143  0.00  0.00    +0.045 C 
ATOM     12  C   UNL     1      -1.138  -0.036   0.123  0.00  0.00    -0.031 A 
ATOM     13  C   UNL     1      -1.250  -0.761  -1.039  0.00  0.00    +0.011 A 
ATOM     14  C   UNL     1      -1.146  -2.112  -0.986  0.00  0.00    +0.046 A 
ATOM     15  S   UNL     1      -0.892  -2.442   0.641  0.00  0.00    -0.092 S 
ATOM     16  C   UNL     1      -0.917  -0.775   1.275  0.00  0.00    +0.078 A 
ENDBRANCH   7  16
ENDBRANCH   1   9
BRANCH   4  17
ATOM     17  C   UNL     1       0.110  -3.924   6.756  0.00  0.00    +0.141 C 
BRANCH  17  18
ATOM     18  C   UNL     1       0.126  -5.319   6.186  0.00  0.00    -0.030 A 
ATOM     19  C   UNL     1      -1.050  -6.040   6.092  0.00  0.00    +0.007 A 
ATOM     20  C   UNL     1      -1.039  -7.318   5.569  0.00  0.00    +0.023 A 
ATOM     21  C   UNL     1       0.155  -7.879   5.137  0.00  0.00    +0.033 A 
ATOM     22  C   UNL     1       1.335  -7.153   5.232  0.00  0.00    +0.023 A 
ATOM     23  C   UNL     1       1.316  -5.873   5.751  0.00  0.00    +0.007 A 
BRANCH  21  24
ATOM     24  N   UNL     1       0.170  -9.174   4.608  0.00  0.00    -0.285 N 
ATOM     25  C   UNL     1      -0.886  -9.627   3.904  0.00  0.00    +0.220 C 
ATOM     26  O   UNL     1      -1.808  -8.882   3.647  0.00  0.00    -0.275 OA
ATOM     27  H   UNL     1       0.941  -9.746   4.747  0.00  0.00    +0.155 HD
BRANCH  25  28
ATOM     28  C   UNL     1      -0.922 -11.059   3.435  0.00  0.00    +0.069 C 
ATOM     29  C   UNL     1      -2.220 -11.311   2.665  0.00  0.00    +0.017 C 
ATOM     30  C   UNL     1       0.275 -11.325   2.519  0.00  0.00    +0.017 C 
ENDBRANCH  25  28
ENDBRANCH  21  24
ENDBRANCH  17  18
ENDBRANCH   4  17
TORSDOF 6
