REMARK  Name = ZINC36643381
REMARK  12 active torsions:
REMARK  status: ('A' for Active; 'I' for Inactive)
REMARK    1  A    between atoms: C_1  and  C_2
REMARK    2  A    between atoms: C_2  and  C_3
REMARK    3  A    between atoms: N_12  and  C_13
REMARK    4  A    between atoms: C_13  and  C_14
REMARK    5  A    between atoms: C_14  and  C_15
REMARK    6  A    between atoms: C_15  and  N_16
REMARK    7  A    between atoms: N_16  and  C_17
REMARK    8  A    between atoms: N_16  and  C_18
REMARK    9  A    between atoms: C_19  and  C_21
REMARK   10  A    between atoms: C_24  and  S_27
REMARK   11  A    between atoms: S_27  and  N_30
REMARK   12  A    between atoms: C_35  and  C_37
REMARK                            x       y       z     vdW  Elec       q    Type
REMARK                         _______ _______ _______ _____ _____    ______ ____
ROOT
ATOM      1  C   UNL     1       4.201  -0.188   0.611  0.00  0.00    -0.046 A 
ATOM      2  C   UNL     1       3.196  -0.259  -0.343  0.00  0.00    +0.006 A 
ATOM      3  C   UNL     1       3.416  -0.815  -1.575  0.00  0.00    +0.029 A 
ATOM      4  C   UNL     1       4.685  -1.338  -1.916  0.00  0.00    +0.080 A 
ATOM      5  C   UNL     1       5.685  -1.248  -0.920  0.00  0.00    +0.041 A 
ATOM      6  C   UNL     1       5.456  -0.684   0.310  0.00  0.00    +0.021 A 
ATOM      7  S   UNL     1       7.085  -1.992  -1.721  0.00  0.00    -0.052 S 
ATOM      8  C   UNL     1       6.283  -2.364  -3.275  0.00  0.00    +0.168 A 
ATOM      9  N   UNL     1       5.066  -1.914  -3.076  0.00  0.00    -0.224 NA
ATOM     10  N   UNL     1       6.811  -2.972  -4.401  0.00  0.00    -0.246 N 
ATOM     11  C   UNL     1       8.099  -3.370  -4.411  0.00  0.00    +0.252 C 
ATOM     12  O   UNL     1       8.779  -3.252  -3.410  0.00  0.00    -0.270 OA
ENDROOT
BRANCH  11  13
ATOM     13  C   UNL     1       8.684  -3.949  -5.638  0.00  0.00    +0.037 A 
ATOM     14  C   UNL     1       8.379  -3.402  -6.886  0.00  0.00    +0.015 A 
ATOM     15  C   UNL     1       8.929  -3.947  -8.027  0.00  0.00    +0.029 A 
ATOM     16  C   UNL     1       9.781  -5.033  -7.938  0.00  0.00    +0.106 A 
ATOM     17  C   UNL     1      10.088  -5.580  -6.705  0.00  0.00    +0.029 A 
ATOM     18  C   UNL     1       9.550  -5.041  -5.554  0.00  0.00    +0.015 A 
BRANCH  16  19
ATOM     19  S   UNL     1      10.478  -5.724  -9.401  0.00  0.00    +0.061 S 
ATOM     20  O   UNL     1      10.810  -7.072  -9.096  0.00  0.00    -0.153 OA
ATOM     21  O   UNL     1       9.607  -5.377 -10.469  0.00  0.00    -0.153 OA
BRANCH  19  22
ATOM     22  N   UNL     1      11.907  -4.936  -9.682  0.00  0.00    -0.174 NA
ATOM     23  C   UNL     1      11.965  -3.796 -10.607  0.00  0.00    +0.110 C 
ATOM     24  C   UNL     1      13.056  -4.061 -11.649  0.00  0.00    +0.017 C 
ATOM     25  C   UNL     1      14.377  -4.358 -10.935  0.00  0.00    +0.003 C 
ATOM     26  C   UNL     1      14.220  -5.611 -10.070  0.00  0.00    +0.020 C 
ATOM     27  C   UNL     1      13.141  -5.360  -9.006  0.00  0.00    +0.077 C 
ATOM     28  C   UNL     1      12.880  -6.649  -8.223  0.00  0.00    +0.026 C 
ENDBRANCH  19  22
ENDBRANCH  16  19
ENDBRANCH  11  13
BRANCH   1  30
ATOM     29  C   UNL     1       4.225   1.930   1.901  0.00  0.00    +0.009 C 
ATOM     30  C   UNL     1       3.930   0.430   1.958  0.00  0.00    +0.032 C 
ENDBRANCH   1  30
BRANCH  10  31
ATOM     31  C   UNL     1       5.970  -3.184  -5.581  0.00  0.00    +0.114 C 
BRANCH  31  32
ATOM     32  C   UNL     1       5.745  -1.849  -6.293  0.00  0.00    +0.001 C 
BRANCH  32  33
ATOM     33  C   UNL     1       4.999  -2.091  -7.607  0.00  0.00    -0.078 C 
BRANCH  33  34
ATOM     34  N   UNL     1       4.783  -0.808  -8.290  0.00  0.00    +0.376 N 
ATOM     35  C   UNL     1       6.079  -0.235  -8.678  0.00  0.00    -0.097 C 
ATOM     36  C   UNL     1       3.964  -1.025  -9.491  0.00  0.00    -0.097 C 
ATOM     37  H   UNL     1       4.306  -0.172  -7.669  0.00  0.00    -0.083 HD
ENDBRANCH  33  34
ENDBRANCH  32  33
ENDBRANCH  31  32
ENDBRANCH  10  31
TORSDOF 8
