REMARK  Name = ZINC22531030
REMARK  7 active torsions:
REMARK  status: ('A' for Active; 'I' for Inactive)
REMARK    1  A    between atoms: C_1  and  C_2
REMARK    2  A    between atoms: C_7  and  N_8
REMARK    3  A    between atoms: C_9  and  C_11
REMARK    4  A    between atoms: C_12  and  C_33
REMARK    5  A    between atoms: N_18  and  C_23
REMARK    6  A    between atoms: N_21  and  C_22
REMARK    7  A    between atoms: C_24  and  C_26
REMARK                            x       y       z     vdW  Elec       q    Type
REMARK                         _______ _______ _______ _____ _____    ______ ____
ROOT
ATOM      1  C   UNL     1      -2.265   0.783   0.157  0.00  0.00    +0.043 C 
ATOM      2  C   UNL     1      -3.477   1.343   0.023  0.00  0.00    +0.015 C 
ATOM      3  N   UNL     1      -4.613   0.580   0.063  0.00  0.00    -0.304 N 
ATOM      4  C   UNL     1      -4.579  -0.687   0.594  0.00  0.00    +0.116 A 
ATOM      5  C   UNL     1      -3.392  -1.337   0.754  0.00  0.00    +0.067 A 
ATOM      6  C   UNL     1      -3.392  -2.630   1.308  0.00  0.00    +0.262 A 
ATOM      7  O   UNL     1      -2.342  -3.230   1.464  0.00  0.00    -0.267 OA
ATOM      8  N   UNL     1      -4.559  -3.201   1.664  0.00  0.00    -0.264 N 
ATOM      9  C   UNL     1      -5.721  -2.545   1.494  0.00  0.00    +0.333 A 
ATOM     10  O   UNL     1      -6.764  -3.080   1.820  0.00  0.00    -0.246 OA
ATOM     11  N   UNL     1      -5.747  -1.307   0.969  0.00  0.00    -0.284 N 
ATOM     12  C   UNL     1      -7.027  -0.616   0.794  0.00  0.00    +0.155 C 
ATOM     13  C   UNL     1      -4.562  -4.547   2.242  0.00  0.00    +0.157 C 
ATOM     14  C   UNL     1      -2.095  -0.698   0.340  0.00  0.00    +0.094 C 
ATOM     15  C   UNL     1      -3.590   2.833  -0.173  0.00  0.00    +0.061 C 
ATOM     16  H   UNL     1      -5.559   0.980  -0.331  0.00  0.00    +0.153 HD
ENDROOT
BRANCH  14  17
ATOM     17  C   UNL     1      -1.629  -1.308  -0.957  0.00  0.00    -0.035 A 
ATOM     18  C   UNL     1      -2.411  -1.199  -2.092  0.00  0.00    +0.006 A 
ATOM     19  C   UNL     1      -1.982  -1.753  -3.283  0.00  0.00    +0.020 A 
ATOM     20  C   UNL     1      -0.774  -2.426  -3.337  0.00  0.00    +0.041 A 
ATOM     21  C   UNL     1       0.005  -2.539  -2.200  0.00  0.00    +0.020 A 
ATOM     22  C   UNL     1      -0.422  -1.980  -1.010  0.00  0.00    +0.006 A 
ATOM     23 CL   UNL     1      -0.237  -3.127  -4.831  0.00  0.00    -0.084 Cl
ENDBRANCH  14  17
BRANCH   1  25
ATOM     24  N   UNL     1      -0.725   2.166  -1.046  0.00  0.00    -0.281 N 
ATOM     25  C   UNL     1      -1.115   1.609   0.118  0.00  0.00    +0.247 C 
ATOM     26  O   UNL     1      -0.480   1.816   1.136  0.00  0.00    -0.270 OA
ATOM     27  H   UNL     1      -1.331   2.028  -1.953  0.00  0.00    +0.155 HD
BRANCH  24  34
ATOM     28  C   UNL     1       0.821   2.074  -3.433  0.00  0.00    +0.045 C 
ATOM     29  C   UNL     1       1.237   2.904  -2.245  0.00  0.00    -0.029 A 
ATOM     30  C   UNL     1       2.398   3.649  -2.295  0.00  0.00    +0.005 A 
ATOM     31  C   UNL     1       2.780   4.412  -1.207  0.00  0.00    +0.000 A 
ATOM     32  C   UNL     1       2.000   4.430  -0.064  0.00  0.00    +0.002 A 
ATOM     33  C   UNL     1       0.835   3.691  -0.010  0.00  0.00    +0.023 A 
ATOM     34  C   UNL     1       0.452   2.920  -1.100  0.00  0.00    +0.037 A 
ENDBRANCH  24  34
ENDBRANCH   1  25
TORSDOF 3
