REMARK  Name = ZINC11880531
REMARK  8 active torsions:
REMARK  status: ('A' for Active; 'I' for Inactive)
REMARK    1  A    between atoms: C_10  and  C_11
REMARK    2  A    between atoms: C_11  and  C_12
REMARK    3  A    between atoms: C_12  and  C_18
REMARK    4  A    between atoms: C_18  and  C_19
REMARK    5  A    between atoms: C_19  and  C_20
REMARK    6  A    between atoms: N_22  and  C_23
REMARK    7  A    between atoms: C_23  and  C_24
REMARK    8  A    between atoms: C_24  and  N_71
REMARK                            x       y       z     vdW  Elec       q    Type
REMARK                         _______ _______ _______ _____ _____    ______ ____
ROOT
ATOM      1  C   UNL     1       2.865   2.213  -2.195  0.00  0.00    +0.035 C 
ENDROOT
BRANCH   1   2
ATOM      2  C   UNL     1       3.944   3.100  -1.569  0.00  0.00    +0.039 C 
ATOM      3  C   UNL     1       5.289   2.343  -1.507  0.00  0.00    +0.035 C 
ATOM      4  C   UNL     1       5.965   2.793  -2.823  0.00  0.00    +0.098 C 
ATOM      5  C   UNL     1       5.320   4.125  -3.135  0.00  0.00    +0.214 C 
ATOM      6  O   UNL     1       5.755   4.940  -3.920  0.00  0.00    -0.276 OA
ATOM      7  N   UNL     1       4.192   4.273  -2.417  0.00  0.00    -0.309 N 
ATOM      8  H   UNL     1       3.617   5.053  -2.453  0.00  0.00    +0.149 HD
BRANCH   2   9
ATOM      9  C   UNL     1       3.519   3.541  -0.167  0.00  0.00    +0.061 C 
BRANCH   9  19
ATOM     10  C   UNL     1      -1.446   2.301  -0.282  0.00  0.00    +0.001 A 
ATOM     11  C   UNL     1      -0.257   1.579  -0.197  0.00  0.00    +0.001 A 
ATOM     12  C   UNL     1       0.948   2.212  -0.188  0.00  0.00    +0.009 A 
ATOM     13  C   UNL     1       0.997   3.615  -0.259  0.00  0.00    -0.015 A 
ATOM     14  C   UNL     1      -0.212   4.349  -0.339  0.00  0.00    -0.018 A 
ATOM     15  C   UNL     1      -1.437   3.660  -0.347  0.00  0.00    +0.008 A 
ATOM     16  C   UNL     1      -0.163   5.751  -0.411  0.00  0.00    +0.008 A 
ATOM     17  C   UNL     1       1.042   6.385  -0.401  0.00  0.00    +0.001 A 
ATOM     18  C   UNL     1       2.231   5.662  -0.322  0.00  0.00    +0.004 A 
ATOM     19  C   UNL     1       2.222   4.303  -0.252  0.00  0.00    -0.038 A 
ENDBRANCH   9  19
ENDBRANCH   2   9
ENDBRANCH   1   2
BRANCH   1  20
ATOM     20  C   UNL     1       3.307   1.783  -3.595  0.00  0.00    +0.098 C 
BRANCH  20  21
ATOM     21  C   UNL     1       2.245   0.910  -4.211  0.00  0.00    +0.213 C 
ATOM     22  O   UNL     1       1.234   0.656  -3.591  0.00  0.00    -0.276 OA
ATOM     23  N   UNL     1       2.418   0.410  -5.450  0.00  0.00    -0.317 N 
ATOM     24  H   UNL     1       3.227   0.613  -5.946  0.00  0.00    +0.149 HD
BRANCH  23  25
ATOM     25  C   UNL     1       1.385  -0.439  -6.049  0.00  0.00    +0.092 C 
BRANCH  25  26
ATOM     26  C   UNL     1       1.768  -0.766  -7.494  0.00  0.00    -0.049 C 
ATOM     27  C   UNL     1       3.099  -1.547  -7.524  0.00  0.00    -0.010 C 
ATOM     28  C   UNL     1       3.825  -1.009  -8.782  0.00  0.00    -0.001 C 
ATOM     29  C   UNL     1       3.466   0.498  -8.767  0.00  0.00    -0.001 C 
ATOM     30  C   UNL     1       2.002   0.533  -8.284  0.00  0.00    -0.010 C 
BRANCH  26  36
ATOM     31  C   UNL     1      -0.535  -0.778  -8.242  0.00  0.00    -0.049 C 
ATOM     32  C   UNL     1      -1.595  -1.618  -8.960  0.00  0.00    +0.141 C 
ATOM     33  O   UNL     1      -1.788  -2.844  -8.249  0.00  0.00    -0.383 OA
ATOM     34  C   UNL     1      -0.599  -3.628  -8.121  0.00  0.00    +0.141 C 
ATOM     35  C   UNL     1       0.470  -2.809  -7.394  0.00  0.00    -0.049 C 
ATOM     36  N   UNL     1       0.713  -1.565  -8.154  0.00  0.00    +0.387 N 
ATOM     37  H   UNL     1       1.022  -1.807  -9.102  0.00  0.00    -0.081 HD
ENDBRANCH  26  36
ENDBRANCH  25  26
ENDBRANCH  23  25
ENDBRANCH  20  21
ENDBRANCH   1  20
TORSDOF 8
