REMARK  Name = ZINC13501087
REMARK  10 active torsions:
REMARK  status: ('A' for Active; 'I' for Inactive)
REMARK    1  A    between atoms: C_1  and  C_2
REMARK    2  A    between atoms: C_2  and  C_3
REMARK    3  A    between atoms: C_3  and  C_5
REMARK    4  A    between atoms: C_3  and  N_75
REMARK    5  A    between atoms: N_9  and  C_10
REMARK    6  A    between atoms: C_16  and  C_17
REMARK    7  A    between atoms: C_16  and  N_75
REMARK    8  A    between atoms: C_21  and  C_30
REMARK    9  A    between atoms: C_23  and  C_29
REMARK   10  A    between atoms: C_31  and  N_75
REMARK                            x       y       z     vdW  Elec       q    Type
REMARK                         _______ _______ _______ _____ _____    ______ ____
ROOT
ATOM      1  N   UNL     1      -1.588   7.716  -1.062  0.00  0.00    +0.391 N 
ATOM      2  H   UNL     1      -0.928   7.254  -1.698  0.00  0.00    -0.080 HD
ENDROOT
BRANCH   1   3
ATOM      3  C   UNL     1      -2.967   7.386  -1.478  0.00  0.00    -0.067 C 
ATOM      4  C   UNL     1      -3.970   8.319  -0.796  0.00  0.00    -0.015 C 
ATOM      5  C   UNL     1      -5.388   7.962  -1.248  0.00  0.00    -0.002 C 
ATOM      6  C   UNL     1      -5.696   6.513  -0.864  0.00  0.00    -0.000 C 
ATOM      7  C   UNL     1      -4.693   5.581  -1.546  0.00  0.00    -0.002 C 
ATOM      8  C   UNL     1      -3.275   5.938  -1.094  0.00  0.00    -0.015 C 
ENDBRANCH   1   3
BRANCH   1   9
ATOM      9  C   UNL     1      -1.376   9.178  -1.128  0.00  0.00    +0.003 C 
BRANCH   9  10
ATOM     10  C   UNL     1      -2.215   9.756  -2.238  0.00  0.00    +0.138 A 
ATOM     11  N   UNL     1      -2.419   9.229  -3.421  0.00  0.00    -0.115 NA
ATOM     12  N   UNL     1      -3.190  10.022  -4.082  0.00  0.00    -0.023 NA
ATOM     13  N   UNL     1      -3.483  11.041  -3.352  0.00  0.00    -0.044 NA
ATOM     14  N   UNL     1      -2.905  10.911  -2.206  0.00  0.00    -0.228 N 
BRANCH  14  15
ATOM     15  C   UNL     1      -2.983  11.847  -1.081  0.00  0.00    +0.111 C 
ATOM     16  C   UNL     1      -4.441  11.992  -0.639  0.00  0.00    +0.027 C 
ATOM     17  C   UNL     1      -4.522  12.970   0.535  0.00  0.00    +0.002 C 
ATOM     18  C   UNL     1      -3.982  14.334   0.102  0.00  0.00    +0.000 C 
ATOM     19  C   UNL     1      -2.524  14.188  -0.340  0.00  0.00    +0.002 C 
ATOM     20  C   UNL     1      -2.443  13.211  -1.515  0.00  0.00    +0.027 C 
ENDBRANCH  14  15
ENDBRANCH   9  10
BRANCH   9  22
ATOM     21  C   UNL     1       0.961   8.754  -0.352  0.00  0.00    +0.002 C 
ATOM     22  C   UNL     1       0.103   9.443  -1.415  0.00  0.00    -0.011 C 
ENDBRANCH   9  22
ENDBRANCH   1   9
BRANCH   1  23
ATOM     23  C   UNL     1      -1.346   7.233   0.314  0.00  0.00    -0.036 C 
BRANCH  23  24
ATOM     24  C   UNL     1      -2.276   7.914   1.284  0.00  0.00    +0.001 A 
ATOM     25  C   UNL     1      -3.427   7.302   1.659  0.00  0.00    +0.017 A 
ATOM     26  C   UNL     1      -4.309   7.990   2.604  0.00  0.00    -0.001 A 
ATOM     27  C   UNL     1      -5.510   7.411   3.027  0.00  0.00    +0.013 A 
ATOM     28  C   UNL     1      -6.311   8.079   3.909  0.00  0.00    -0.050 A 
ATOM     29  C   UNL     1      -5.944   9.329   4.389  0.00  0.00    +0.008 A 
ATOM     30  C   UNL     1      -4.768   9.922   3.982  0.00  0.00    -0.026 A 
ATOM     31  C   UNL     1      -3.934   9.257   3.089  0.00  0.00    +0.052 A 
ATOM     32  N   UNL     1      -2.750   9.825   2.668  0.00  0.00    -0.322 N 
ATOM     33  H   UNL     1      -2.492  10.698   3.003  0.00  0.00    +0.169 HD
ATOM     34  C   UNL     1      -1.946   9.185   1.800  0.00  0.00    +0.251 A 
ATOM     35  O   UNL     1      -0.906   9.716   1.451  0.00  0.00    -0.268 OA
ATOM     36  C   UNL     1      -4.385  11.281   4.507  0.00  0.00    +0.046 C 
ATOM     37  C   UNL     1      -7.604   7.454   4.364  0.00  0.00    +0.044 C 
ENDBRANCH  23  24
ENDBRANCH   1  23
TORSDOF 7
