REMARK  Name = ZINC38799177
REMARK  8 active torsions:
REMARK  status: ('A' for Active; 'I' for Inactive)
REMARK    1  A    between atoms: C_1  and  C_2
REMARK    2  A    between atoms: C_2  and  C_4
REMARK    3  A    between atoms: C_2  and  S_16
REMARK    4  A    between atoms: N_6  and  C_7
REMARK    5  A    between atoms: C_12  and  N_13
REMARK    6  A    between atoms: S_16  and  C_17
REMARK    7  A    between atoms: C_21  and  C_30
REMARK    8  A    between atoms: N_22  and  C_23
REMARK                            x       y       z     vdW  Elec       q    Type
REMARK                         _______ _______ _______ _____ _____    ______ ____
ROOT
ATOM      1  C   UNL     1      -1.061  -0.330   1.472  0.00  0.00    +0.242 C 
ATOM      2  N   UNL     1      -1.149   1.140   1.475  0.00  0.00    -0.237 N 
ATOM      3  N   UNL     1      -1.001   1.544   2.807  0.00  0.00    -0.169 NA
ATOM      4  C   UNL     1      -0.837   0.518   3.599  0.00  0.00    +0.151 C 
ATOM      5  N   UNL     1      -0.859  -0.687   2.885  0.00  0.00    -0.254 N 
ATOM      6  H   UNL     1      -1.282   1.715   0.705  0.00  0.00    +0.171 HD
ENDROOT
BRANCH   4   7
ATOM      7  C   UNL     1      -0.663   0.610   4.989  0.00  0.00    +0.022 C 
ATOM      8  C   UNL     1      -0.550   1.775   5.749  0.00  0.00    +0.006 A 
ATOM      9  C   UNL     1      -0.571   3.143   5.405  0.00  0.00    +0.010 A 
ATOM     10  C   UNL     1      -0.436   4.084   6.375  0.00  0.00    +0.001 A 
ATOM     11  C   UNL     1      -0.275   3.732   7.717  0.00  0.00    +0.002 A 
ATOM     12  C   UNL     1      -0.247   2.437   8.119  0.00  0.00    +0.026 A 
ATOM     13  C   UNL     1      -0.382   1.399   7.162  0.00  0.00    +0.043 A 
ATOM     14  N   UNL     1      -0.388   0.086   7.294  0.00  0.00    -0.380 N 
ATOM     15  C   UNL     1      -0.566  -0.531   5.976  0.00  0.00    +0.152 C 
ATOM     16  H   UNL     1      -0.292  -0.394   8.131  0.00  0.00    +0.160 HD
ENDBRANCH   4   7
BRANCH   5  17
ATOM     17  C   UNL     1      -0.716  -1.975   3.409  0.00  0.00    +0.038 A 
ATOM     18  C   UNL     1      -1.831  -2.788   3.570  0.00  0.00    +0.025 A 
ATOM     19  C   UNL     1      -1.687  -4.060   4.088  0.00  0.00    +0.022 A 
ATOM     20  C   UNL     1      -0.434  -4.524   4.447  0.00  0.00    +0.041 A 
ATOM     21  C   UNL     1       0.678  -3.716   4.289  0.00  0.00    +0.022 A 
ATOM     22  C   UNL     1       0.541  -2.446   3.765  0.00  0.00    +0.025 A 
ATOM     23 CL   UNL     1      -0.257  -6.124   5.099  0.00  0.00    -0.084 Cl
ENDBRANCH   5  17
BRANCH   1  24
ATOM     24  S   UNL     1       0.348  -0.879   0.470  0.00  0.00    -0.105 S 
BRANCH  24  26
ATOM     25  C   UNL     1       1.632   1.468   1.042  0.00  0.00    +0.029 C 
ATOM     26  C   UNL     1       1.773  -0.045   1.223  0.00  0.00    +0.133 C 
BRANCH  26  27
ATOM     27  C   UNL     1       3.040  -0.515   0.555  0.00  0.00    +0.230 C 
ATOM     28  O   UNL     1       3.005  -0.945  -0.578  0.00  0.00    -0.274 OA
ATOM     29  N   UNL     1       4.212  -0.457   1.218  0.00  0.00    -0.283 N 
ATOM     30  H   UNL     1       4.251  -0.052   2.099  0.00  0.00    +0.155 HD
BRANCH  29  31
ATOM     31  C   UNL     1       5.372  -0.980   0.636  0.00  0.00    +0.064 A 
ATOM     32  C   UNL     1       5.576  -0.864  -0.733  0.00  0.00    +0.025 A 
ATOM     33  C   UNL     1       6.722  -1.381  -1.304  0.00  0.00    +0.002 A 
ATOM     34  C   UNL     1       7.665  -2.015  -0.515  0.00  0.00    +0.002 A 
ATOM     35  C   UNL     1       7.463  -2.133   0.847  0.00  0.00    +0.034 A 
ATOM     36  C   UNL     1       6.323  -1.612   1.426  0.00  0.00    +0.147 A 
BRANCH  36  37
ATOM     37  N   UNL     1       6.111  -1.732   2.886  0.00  0.00    +0.058 N 
ATOM     38  O   UNL     1       6.982  -2.193   3.587  0.00  0.00    -0.126 OA
ATOM     39  O   UNL     1       5.068  -1.369   3.378  0.00  0.00    -0.126 OA
ENDBRANCH  36  37
ENDBRANCH  29  31
ENDBRANCH  26  27
ENDBRANCH  24  26
ENDBRANCH   1  24
TORSDOF 7
