REMARK  Name = ZINC32096076
REMARK  12 active torsions:
REMARK  status: ('A' for Active; 'I' for Inactive)
REMARK    1  A    between atoms: C_1  and  C_2
REMARK    2  A    between atoms: C_2  and  C_30
REMARK    3  A    between atoms: C_4  and  N_10
REMARK    4  A    between atoms: C_6  and  C_8
REMARK    5  A    between atoms: C_6  and  C_9
REMARK    6  A    between atoms: C_11  and  C_13
REMARK    7  A    between atoms: C_15  and  C_18
REMARK    8  A    between atoms: C_18  and  O_19
REMARK    9  A    between atoms: O_19  and  C_20
REMARK   10  A    between atoms: C_23  and  C_26
REMARK   11  A    between atoms: C_26  and  O_28
REMARK   12  A    between atoms: O_28  and  C_29
REMARK                            x       y       z     vdW  Elec       q    Type
REMARK                         _______ _______ _______ _____ _____    ______ ____
ROOT
ATOM      1  C   UNL     1       2.087  -6.187   0.568  0.00  0.00    +0.313 A 
ATOM      2  N   UNL     1       2.246  -4.966   1.036  0.00  0.00    -0.184 NA
ATOM      3  C   UNL     1       2.326  -4.173  -0.043  0.00  0.00    +0.209 A 
ATOM      4  N   UNL     1       2.224  -4.930  -1.096  0.00  0.00    -0.057 NA
ATOM      5  O   UNL     1       2.086  -6.090  -0.770  0.00  0.00    -0.328 OA
ENDROOT
BRANCH   1   7
ATOM      6  N   UNL     1       1.793  -8.615   0.744  0.00  0.00    -0.305 N 
ATOM      7  C   UNL     1       1.944  -7.429   1.365  0.00  0.00    +0.302 C 
ATOM      8  O   UNL     1       1.962  -7.377   2.579  0.00  0.00    -0.265 OA
ATOM      9  H   UNL     1       1.776  -8.662  -0.355  0.00  0.00    +0.149 HD
BRANCH   6  13
ATOM     10  C   UNL     1      -0.323 -12.020   2.571  0.00  0.00    -0.010 C 
ATOM     11  C   UNL     1       0.758 -12.189   1.497  0.00  0.00    -0.072 C 
ATOM     12  C   UNL     1       0.901 -10.890   0.708  0.00  0.00    +0.009 C 
ATOM     13  C   UNL     1       1.651  -9.845   1.534  0.00  0.00    +0.071 C 
ATOM     14  C   UNL     1       3.038 -10.393   1.866  0.00  0.00    +0.009 C 
ATOM     15  C   UNL     1       2.921 -11.685   2.670  0.00  0.00    -0.072 C 
ATOM     16  N   UNL     1       2.006 -12.638   2.077  0.00  0.00    +0.386 N 
ATOM     17  C   UNL     1       2.519 -11.356   4.113  0.00  0.00    -0.010 C 
ATOM     18  C   UNL     1       4.324 -12.330   2.722  0.00  0.00    -0.010 C 
ATOM     19  C   UNL     1       0.263 -13.276   0.517  0.00  0.00    -0.010 C 
ATOM     20  H   UNL     1       1.798 -13.346   2.893  0.00  0.00    -0.084 HD
ATOM     21  H   UNL     1       2.611 -13.137   1.305  0.00  0.00    -0.084 HD
ENDBRANCH   6  13
ENDBRANCH   1   7
BRANCH   3  22
ATOM     22  C   UNL     1       2.508  -2.677  -0.036  0.00  0.00    +0.308 C 
BRANCH  22  23
ATOM     23  O   UNL     1       1.228  -2.042  -0.021  0.00  0.00    -0.484 OA
BRANCH  23  24
ATOM     24  C   UNL     1       1.214  -0.685  -0.013  0.00  0.00    +0.121 A 
ATOM     25  C   UNL     1       0.002  -0.004   0.002  0.00  0.00    +0.046 A 
ATOM     26  C   UNL     1      -0.017   1.373   0.010  0.00  0.00    +0.018 A 
ATOM     27  C   UNL     1       1.186   2.086   0.002  0.00  0.00    +0.059 A 
ATOM     28  C   UNL     1       2.402   1.398  -0.013  0.00  0.00    +0.018 A 
ATOM     29  C   UNL     1       2.412   0.021  -0.020  0.00  0.00    +0.046 A 
BRANCH  27  30
ATOM     30  C   UNL     1       1.170   3.561   0.010  0.00  0.00    +0.339 C 
ATOM     31  O   UNL     1       0.112   4.157   0.023  0.00  0.00    -0.245 OA
BRANCH  30  32
ATOM     32  O   UNL     1       2.330   4.246   0.003  0.00  0.00    -0.464 OA
ATOM     33  C   UNL     1       2.239   5.695   0.011  0.00  0.00    +0.280 C 
ENDBRANCH  30  32
ENDBRANCH  27  30
ENDBRANCH  23  24
ENDBRANCH  22  23
ENDBRANCH   3  22
TORSDOF 7
