REMARK  Name = ZINC38610793
REMARK  9 active torsions:
REMARK  status: ('A' for Active; 'I' for Inactive)
REMARK    1  A    between atoms: C_1  and  C_2
REMARK    2  A    between atoms: C_4  and  C_16
REMARK    3  A    between atoms: C_6  and  C_14
REMARK    4  A    between atoms: C_7  and  N_13
REMARK    5  A    between atoms: C_20  and  O_31
REMARK    6  A    between atoms: C_21  and  O_22
REMARK    7  A    between atoms: O_22  and  C_23
REMARK    8  A    between atoms: C_23  and  C_24
REMARK    9  A    between atoms: O_31  and  C_32
REMARK                            x       y       z     vdW  Elec       q    Type
REMARK                         _______ _______ _______ _____ _____    ______ ____
ROOT
ATOM      1  C   UNL     1      -3.326  -0.578  -0.911  0.00  0.00    +0.010 A 
ATOM      2  C   UNL     1      -3.442  -1.781  -1.584  0.00  0.00    +0.008 A 
ATOM      3  C   UNL     1      -4.152  -1.848  -2.768  0.00  0.00    +0.004 A 
ATOM      4  C   UNL     1      -4.750  -0.713  -3.285  0.00  0.00    +0.049 A 
ATOM      5  C   UNL     1      -4.637   0.495  -2.616  0.00  0.00    +0.162 A 
ATOM      6  C   UNL     1      -3.927   0.561  -1.420  0.00  0.00    +0.166 A 
ENDROOT
BRANCH   1  10
ATOM      7  C   UNL     1       0.262   0.976  -0.089  0.00  0.00    +0.067 C 
ATOM      8  C   UNL     1       0.016  -0.505   0.049  0.00  0.00    +0.066 C 
ATOM      9  C   UNL     1      -1.165  -1.058   0.183  0.00  0.00    +0.030 C 
ATOM     10  C   UNL     1      -2.551  -0.509   0.379  0.00  0.00    +0.101 C 
ATOM     11  C   UNL     1      -3.195  -1.394   1.430  0.00  0.00    +0.098 C 
ATOM     12  C   UNL     1      -2.606  -2.530   1.858  0.00  0.00    +0.195 C 
ATOM     13  O   UNL     1      -1.414  -3.014   1.466  0.00  0.00    -0.448 OA
ATOM     14  C   UNL     1      -0.898  -2.564   0.210  0.00  0.00    +0.343 C 
ATOM     15  N   UNL     1       0.567  -2.615   0.162  0.00  0.00    -0.138 NA
ATOM     16  N   UNL     1       0.985  -1.456   0.046  0.00  0.00    -0.155 NA
BRANCH  12  17
ATOM     17  N   UNL     1      -3.294  -3.268   2.788  0.00  0.00    -0.329 N 
ATOM     18  H   UNL     1      -4.159  -2.964   3.105  0.00  0.00    +0.145 HD
ATOM     19  H   UNL     1      -2.916  -4.093   3.129  0.00  0.00    +0.145 HD
ENDBRANCH  12  17
BRANCH  11  20
ATOM     20  C   UNL     1      -4.461  -1.014   1.982  0.00  0.00    +0.101 C 
ATOM     21  N   UNL     1      -5.465  -0.713   2.420  0.00  0.00    -0.191 NA
ENDBRANCH  11  20
ENDBRANCH   1  10
BRANCH   5  22
ATOM     22  O   UNL     1      -5.224   1.612  -3.123  0.00  0.00    -0.491 OA
ATOM     23  C   UNL     1      -5.942   1.468  -4.350  0.00  0.00    +0.277 C 
ENDBRANCH   5  22
BRANCH   6  24
ATOM     24  O   UNL     1      -3.819   1.743  -0.757  0.00  0.00    -0.483 OA
BRANCH  24  25
ATOM     25  C   UNL     1      -2.786   2.634  -1.183  0.00  0.00    +0.264 C 
BRANCH  25  26
ATOM     26  C   UNL     1      -2.900   3.933  -0.427  0.00  0.00    -0.010 A 
ATOM     27  C   UNL     1      -3.680   4.958  -0.929  0.00  0.00    +0.008 A 
ATOM     28  C   UNL     1      -3.785   6.150  -0.236  0.00  0.00    +0.015 A 
ATOM     29  C   UNL     1      -3.109   6.316   0.960  0.00  0.00    +0.018 A 
ATOM     30  C   UNL     1      -2.329   5.290   1.461  0.00  0.00    +0.015 A 
ATOM     31  C   UNL     1      -2.229   4.097   0.770  0.00  0.00    +0.008 A 
ATOM     32 BR   UNL     1      -3.252   7.946   1.908  0.00  0.00    -0.050 Br
ENDBRANCH  25  26
ENDBRANCH  24  25
ENDBRANCH   6  24
TORSDOF 7
