REMARK  Name = ZINC59887968
REMARK  14 active torsions:
REMARK  status: ('A' for Active; 'I' for Inactive)
REMARK    1  A    between atoms: C_1  and  C_2
REMARK    2  A    between atoms: C_3  and  C_11
REMARK    3  A    between atoms: C_4  and  C_10
REMARK    4  A    between atoms: N_5  and  C_7
REMARK    5  A    between atoms: C_7  and  C_8
REMARK    6  A    between atoms: C_8  and  O_9
REMARK    7  A    between atoms: N_12  and  N_13
REMARK    8  A    between atoms: C_16  and  S_19
REMARK    9  A    between atoms: S_19  and  C_20
REMARK   10  A    between atoms: C_20  and  C_21
REMARK   11  A    between atoms: N_23  and  C_24
REMARK   12  A    between atoms: C_29  and  S_30
REMARK   13  A    between atoms: S_30  and  C_31
REMARK   14  A    between atoms: C_31  and  C_32
REMARK                            x       y       z     vdW  Elec       q    Type
REMARK                         _______ _______ _______ _____ _____    ______ ____
ROOT
ATOM      1  N   UNL     1       0.032   1.334  -4.148  0.00  0.00    -0.205 N 
ATOM      2  C   UNL     1       0.003   2.686  -4.435  0.00  0.00    +0.232 A 
ATOM      3  N   UNL     1      -0.009   3.664  -3.554  0.00  0.00    -0.186 NA
ATOM      4  C   UNL     1      -0.037   4.841  -4.189  0.00  0.00    +0.211 A 
ATOM      5  N   UNL     1      -0.043   4.627  -5.484  0.00  0.00    -0.144 NA
ATOM      6  N   UNL     1      -0.013   3.235  -5.668  0.00  0.00    -0.245 N 
ATOM      7  H   UNL     1       0.043   0.685  -4.868  0.00  0.00    +0.177 HD
ATOM      8  H   UNL     1      -0.006   2.762  -6.515  0.00  0.00    +0.192 HD
ENDROOT
BRANCH   1  10
ATOM      9  C   UNL     1       0.072  -0.367  -2.545  0.00  0.00    +0.141 C 
ATOM     10  N   UNL     1       0.045   0.901  -2.815  0.00  0.00    -0.187 NA
BRANCH   9  13
ATOM     11  C   UNL     1       0.039   1.506   0.013  0.00  0.00    +0.068 C 
ATOM     12  C   UNL     1       0.071  -0.001   0.005  0.00  0.00    +0.069 A 
ATOM     13  C   UNL     1       0.086  -0.823  -1.141  0.00  0.00    +0.038 A 
ATOM     14  C   UNL     1       0.115  -2.131  -0.708  0.00  0.00    +0.045 A 
ATOM     15  N   UNL     1       0.118  -2.108   0.641  0.00  0.00    -0.266 N 
ATOM     16  N   UNL     1       0.097  -0.772   1.059  0.00  0.00    -0.176 NA
ATOM     17  C   UNL     1       0.139  -3.360  -1.579  0.00  0.00    +0.066 C 
BRANCH  15  18
ATOM     18  C   UNL     1       0.146  -3.281   1.518  0.00  0.00    +0.171 C 
BRANCH  18  19
ATOM     19  C   UNL     1       1.598  -3.658   1.819  0.00  0.00    +0.179 C 
BRANCH  19  20
ATOM     20  O   UNL     1       1.624  -4.802   2.675  0.00  0.00    -0.393 OA
ATOM     21  H   UNL     1       2.515  -5.098   2.908  0.00  0.00    +0.209 HD
ENDBRANCH  19  20
ENDBRANCH  18  19
ENDBRANCH  15  18
ENDBRANCH   9  13
ENDBRANCH   1  10
BRANCH   4  22
ATOM     22  S   UNL     1      -0.063   6.423  -3.414  0.00  0.00    -0.075 S 
BRANCH  22  23
ATOM     23  C   UNL     1      -0.096   7.591  -4.801  0.00  0.00    +0.173 C 
BRANCH  23  24
ATOM     24  C   UNL     1      -0.120   9.001  -4.269  0.00  0.00    +0.228 C 
ATOM     25  O   UNL     1      -0.115   9.199  -3.072  0.00  0.00    -0.275 OA
ATOM     26  N   UNL     1      -0.147  10.043  -5.124  0.00  0.00    -0.284 N 
ATOM     27  H   UNL     1      -0.085   9.889  -6.079  0.00  0.00    +0.155 HD
BRANCH  26  28
ATOM     28  C   UNL     1      -0.264  11.350  -4.632  0.00  0.00    +0.047 A 
ATOM     29  C   UNL     1       0.333  11.697  -3.429  0.00  0.00    +0.024 A 
ATOM     30  C   UNL     1       0.217  12.986  -2.945  0.00  0.00    +0.002 A 
ATOM     31  C   UNL     1      -0.494  13.935  -3.658  0.00  0.00    +0.001 A 
ATOM     32  C   UNL     1      -1.093  13.599  -4.857  0.00  0.00    +0.016 A 
ATOM     33  C   UNL     1      -0.976  12.308  -5.353  0.00  0.00    +0.029 A 
BRANCH  33  34
ATOM     34  S   UNL     1      -1.732  11.879  -6.886  0.00  0.00    -0.119 S 
BRANCH  34  35
ATOM     35  C   UNL     1      -2.521  13.418  -7.432  0.00  0.00    +0.101 C 
BRANCH  35  36
ATOM     36  C   UNL     1      -3.214  13.187  -8.751  0.00  0.00    -0.024 C 
ATOM     37  C   UNL     1      -4.518  13.280  -8.830  0.00  0.00    +0.005 C 
ENDBRANCH  35  36
ENDBRANCH  34  35
ENDBRANCH  33  34
ENDBRANCH  26  28
ENDBRANCH  23  24
ENDBRANCH  22  23
ENDBRANCH   4  22
TORSDOF 12
