REMARK  Name = ZINC09203518
REMARK  6 active torsions:
REMARK  status: ('A' for Active; 'I' for Inactive)
REMARK    1  A    between atoms: C_1  and  C_2
REMARK    2  A    between atoms: C_7  and  N_8
REMARK    3  A    between atoms: N_8  and  S_9
REMARK    4  A    between atoms: S_9  and  C_12
REMARK    5  A    between atoms: C_15  and  C_18
REMARK    6  A    between atoms: C_23  and  N_26
REMARK                            x       y       z     vdW  Elec       q    Type
REMARK                         _______ _______ _______ _____ _____    ______ ____
ROOT
ATOM      1  C   UNL     1      -5.684   5.938  -0.321  0.00  0.00    +0.247 C 
ATOM      2  O   UNL     1      -6.295   6.416  -1.258  0.00  0.00    -0.270 OA
ATOM      3  N   UNL     1      -4.504   5.322  -0.531  0.00  0.00    -0.297 N 
ATOM      4  C   UNL     1      -3.988   5.135  -1.894  0.00  0.00    +0.110 C 
ATOM      5  C   UNL     1      -3.667   3.651  -2.100  0.00  0.00    +0.044 C 
ATOM      6  C   UNL     1      -2.716   3.181  -0.998  0.00  0.00    +0.095 C 
ATOM      7  C   UNL     1      -3.391   3.343   0.365  0.00  0.00    +0.044 C 
ATOM      8  C   UNL     1      -3.709   4.824   0.600  0.00  0.00    +0.110 C 
ENDROOT
BRANCH   6   9
ATOM      9  N   UNL     1      -2.381   1.771  -1.212  0.00  0.00    -0.289 N 
ATOM     10  C   UNL     1      -1.102   1.259  -1.419  0.00  0.00    +0.070 A 
ATOM     11  C   UNL     1       0.156   1.839  -1.482  0.00  0.00    +0.028 A 
ATOM     12  C   UNL     1       1.268   1.048  -1.700  0.00  0.00    +0.002 A 
ATOM     13  C   UNL     1       1.131  -0.321  -1.855  0.00  0.00    +0.002 A 
ATOM     14  C   UNL     1      -0.118  -0.907  -1.793  0.00  0.00    +0.028 A 
ATOM     15  C   UNL     1      -1.240  -0.121  -1.575  0.00  0.00    +0.067 A 
ATOM     16  N   UNL     1      -2.599  -0.405  -1.464  0.00  0.00    -0.306 N 
ATOM     17  H   UNL     1      -3.002  -1.285  -1.529  0.00  0.00    +0.170 HD
ATOM     18  C   UNL     1      -3.257   0.750  -1.250  0.00  0.00    +0.328 A 
ATOM     19  O   UNL     1      -4.461   0.854  -1.107  0.00  0.00    -0.247 OA
ENDBRANCH   6   9
BRANCH   1  23
ATOM     20  C   UNL     1      -7.271   6.210   3.609  0.00  0.00    +0.109 A 
ATOM     21  C   UNL     1      -5.941   6.514   3.381  0.00  0.00    +0.029 A 
ATOM     22  C   UNL     1      -5.419   6.427   2.107  0.00  0.00    +0.015 A 
ATOM     23  C   UNL     1      -6.237   6.032   1.047  0.00  0.00    +0.037 A 
ATOM     24  C   UNL     1      -7.579   5.733   1.283  0.00  0.00    +0.015 A 
ATOM     25  C   UNL     1      -8.087   5.818   2.563  0.00  0.00    +0.029 A 
BRANCH  20  26
ATOM     26  S   UNL     1      -7.929   6.322   5.240  0.00  0.00    +0.072 S 
ATOM     27  O   UNL     1      -9.059   5.461   5.282  0.00  0.00    -0.150 OA
ATOM     28  O   UNL     1      -6.832   6.183   6.131  0.00  0.00    -0.150 OA
BRANCH  26  29
ATOM     29  N   UNL     1      -8.502   7.864   5.432  0.00  0.00    -0.216 N 
ATOM     30  H   UNL     1      -8.135   8.435   6.125  0.00  0.00    +0.174 HD
BRANCH  29  37
ATOM     31  C   UNL     1      -8.424  10.601   4.660  0.00  0.00    +0.046 C 
ATOM     32  C   UNL     1      -9.515   9.672   4.194  0.00  0.00    -0.028 A 
ATOM     33  C   UNL     1     -10.517  10.141   3.367  0.00  0.00    +0.005 A 
ATOM     34  C   UNL     1     -11.517   9.289   2.939  0.00  0.00    +0.000 A 
ATOM     35  C   UNL     1     -11.520   7.964   3.337  0.00  0.00    +0.002 A 
ATOM     36  C   UNL     1     -10.518   7.487   4.160  0.00  0.00    +0.025 A 
ATOM     37  C   UNL     1      -9.514   8.342   4.596  0.00  0.00    +0.051 A 
ENDBRANCH  29  37
ENDBRANCH  26  29
ENDBRANCH  20  26
ENDBRANCH   1  23
TORSDOF 5
