REMARK  Name = ZINC36545428
REMARK  19 active torsions:
REMARK  status: ('A' for Active; 'I' for Inactive)
REMARK    1  A    between atoms: C_1  and  C_2
REMARK    2  A    between atoms: C_2  and  C_3
REMARK    3  A    between atoms: C_3  and  C_4
REMARK    4  A    between atoms: C_3  and  C_6
REMARK    5  A    between atoms: C_4  and  C_5
REMARK    6  A    between atoms: C_6  and  C_8
REMARK    7  A    between atoms: C_6  and  N_19
REMARK    8  A    between atoms: N_10  and  C_11
REMARK    9  A    between atoms: C_11  and  C_12
REMARK   10  A    between atoms: C_11  and  C_13
REMARK   11  A    between atoms: C_11  and  C_14
REMARK   12  A    between atoms: C_14  and  C_15
REMARK   13  A    between atoms: C_15  and  C_16
REMARK   14  A    between atoms: C_15  and  C_17
REMARK   15  A    between atoms: C_15  and  C_18
REMARK   16  A    between atoms: N_19  and  C_20
REMARK   17  A    between atoms: C_27  and  C_29
REMARK   18  A    between atoms: C_33  and  O_36
REMARK   19  A    between atoms: C_34  and  O_35
REMARK                            x       y       z     vdW  Elec       q    Type
REMARK                         _______ _______ _______ _____ _____    ______ ____
ROOT
ATOM      1  N   UNL     1       4.900   1.759  -0.263  0.00  0.00    -0.254 N 
ATOM      2  C   UNL     1       5.787   1.815  -1.276  0.00  0.00    +0.255 C 
ATOM      3  O   UNL     1       5.696   1.037  -2.207  0.00  0.00    -0.269 OA
ENDROOT
BRANCH   1   4
ATOM      4  C   UNL     1       4.929   2.728   0.746  0.00  0.00    +0.056 A 
ATOM      5  C   UNL     1       5.420   2.407   2.005  0.00  0.00    +0.025 A 
ATOM      6  C   UNL     1       5.448   3.366   2.999  0.00  0.00    +0.002 A 
ATOM      7  C   UNL     1       4.988   4.644   2.742  0.00  0.00    +0.002 A 
ATOM      8  C   UNL     1       4.498   4.968   1.490  0.00  0.00    +0.022 A 
ATOM      9  C   UNL     1       4.473   4.015   0.489  0.00  0.00    +0.062 A 
ATOM     10 CL   UNL     1       3.864   4.424  -1.084  0.00  0.00    -0.082 Cl
ENDBRANCH   1   4
BRANCH   2  11
ATOM     11  C   UNL     1       6.867   2.819  -1.257  0.00  0.00    +0.082 A 
ATOM     12  C   UNL     1       7.478   3.171  -0.050  0.00  0.00    +0.017 A 
ATOM     13  C   UNL     1       8.486   4.109  -0.036  0.00  0.00    +0.005 A 
ATOM     14  C   UNL     1       8.900   4.709  -1.214  0.00  0.00    +0.049 A 
ATOM     15  C   UNL     1       8.305   4.372  -2.417  0.00  0.00    +0.159 A 
ATOM     16  C   UNL     1       7.289   3.421  -2.448  0.00  0.00    +0.171 A 
BRANCH  16  17
ATOM     17  O   UNL     1       6.707   3.083  -3.627  0.00  0.00    -0.503 OA
ATOM     18  H   UNL     1       5.940   3.626  -3.857  0.00  0.00    +0.292 HD
ENDBRANCH  16  17
BRANCH  15  19
ATOM     19  O   UNL     1       8.716   4.966  -3.569  0.00  0.00    -0.503 OA
ATOM     20  H   UNL     1       9.433   4.498  -4.019  0.00  0.00    +0.292 HD
ENDBRANCH  15  19
ENDBRANCH   2  11
BRANCH   1  21
ATOM     21  C   UNL     1       3.905   0.685  -0.218  0.00  0.00    +0.170 C 
BRANCH  21  22
ATOM     22  C   UNL     1       4.393  -0.413   0.693  0.00  0.00    +0.235 C 
ATOM     23  O   UNL     1       5.447  -0.291   1.279  0.00  0.00    -0.274 OA
ATOM     24  N   UNL     1       3.656  -1.530   0.856  0.00  0.00    -0.309 N 
ATOM     25  H   UNL     1       2.788  -1.605   0.431  0.00  0.00    +0.149 HD
BRANCH  24  26
ATOM     26  C   UNL     1       4.168  -2.631   1.675  0.00  0.00    +0.030 C 
ATOM     27  C   UNL     1       5.420  -3.216   1.019  0.00  0.00    +0.031 C 
ATOM     28  C   UNL     1       4.520  -2.109   3.070  0.00  0.00    +0.031 C 
BRANCH  26  29
ATOM     29  C   UNL     1       3.099  -3.719   1.793  0.00  0.00    +0.031 C 
BRANCH  29  30
ATOM     30  C   UNL     1       1.753  -3.076   2.137  0.00  0.00    -0.036 C 
ATOM     31  C   UNL     1       1.202  -2.356   0.905  0.00  0.00    +0.010 C 
ATOM     32  C   UNL     1       0.768  -4.161   2.577  0.00  0.00    +0.010 C 
ATOM     33  C   UNL     1       1.945  -2.070   3.273  0.00  0.00    +0.010 C 
ENDBRANCH  29  30
ENDBRANCH  26  29
ENDBRANCH  24  26
ENDBRANCH  21  22
BRANCH  21  34
ATOM     34  C   UNL     1       2.581   1.237   0.313  0.00  0.00    +0.018 C 
BRANCH  34  36
ATOM     35  C   UNL     1       3.523   0.948   2.609  0.00  0.00    +0.004 C 
ATOM     36  C   UNL     1       2.817   1.920   1.662  0.00  0.00    +0.002 C 
ENDBRANCH  34  36
BRANCH  34  37
ATOM     37  C   UNL     1       2.017   2.254  -0.682  0.00  0.00    +0.002 C 
ATOM     38  C   UNL     1       1.587   1.531  -1.960  0.00  0.00    +0.004 C 
ENDBRANCH  34  37
ENDBRANCH  21  34
ENDBRANCH   1  21
TORSDOF 12
