REMARK  Name = ZINC14884016
REMARK  11 active torsions:
REMARK  status: ('A' for Active; 'I' for Inactive)
REMARK    1  A    between atoms: C_1  and  C_2
REMARK    2  A    between atoms: C_2  and  N_3
REMARK    3  A    between atoms: N_3  and  C_4
REMARK    4  A    between atoms: N_3  and  C_6
REMARK    5  A    between atoms: C_4  and  C_5
REMARK    6  A    between atoms: C_9  and  C_12
REMARK    7  A    between atoms: C_12  and  N_69
REMARK    8  A    between atoms: C_15  and  C_18
REMARK    9  A    between atoms: C_18  and  C_25
REMARK   10  A    between atoms: C_25  and  C_26
REMARK   11  A    between atoms: C_26  and  C_27
REMARK                            x       y       z     vdW  Elec       q    Type
REMARK                         _______ _______ _______ _____ _____    ______ ____
ROOT
ATOM      1  C   UNL     1      -0.754   1.594  -1.231  0.00  0.00    -0.078 C 
ATOM      2  C   UNL     1      -0.013   1.086   0.008  0.00  0.00    -0.013 C 
ATOM      3  C   UNL     1      -0.731   1.580   1.267  0.00  0.00    +0.018 C 
ATOM      4  C   UNL     1      -2.184   1.095   1.239  0.00  0.00    -0.013 C 
ATOM      5  C   UNL     1      -2.862   1.602  -0.035  0.00  0.00    -0.078 C 
ATOM      6  N   UNL     1      -2.137   1.071  -1.209  0.00  0.00    +0.382 N 
ATOM      7  H   UNL     1      -2.106   0.047  -1.146  0.00  0.00    -0.081 HD
ENDROOT
BRANCH   3   8
ATOM      8  C   UNL     1      -0.029   1.026   2.507  0.00  0.00    +0.115 C 
ATOM      9  C   UNL     1       0.176  -0.471   2.381  0.00  0.00    +0.244 C 
ATOM     10  O   UNL     1      -0.682  -1.320   2.272  0.00  0.00    -0.273 OA
ATOM     11  N   UNL     1       1.510  -0.661   2.414  0.00  0.00    -0.238 N 
ATOM     12  C   UNL     1       2.170   0.496   2.543  0.00  0.00    +0.307 C 
ATOM     13  O   UNL     1       3.381   0.580   2.596  0.00  0.00    -0.252 OA
ATOM     14  N   UNL     1       1.343   1.555   2.607  0.00  0.00    -0.285 N 
ATOM     15  H   UNL     1       1.938  -1.528   2.351  0.00  0.00    +0.159 HD
ATOM     16  H   UNL     1       1.599   2.486   2.701  0.00  0.00    +0.151 HD
BRANCH   8  17
ATOM     17  C   UNL     1      -0.827   1.358   3.770  0.00  0.00    +0.040 C 
BRANCH  17  18
ATOM     18  C   UNL     1      -0.044   0.903   5.003  0.00  0.00    +0.038 C 
BRANCH  18  19
ATOM     19  C   UNL     1      -0.830   1.231   6.246  0.00  0.00    -0.047 A 
ATOM     20  C   UNL     1      -0.653   2.449   6.875  0.00  0.00    +0.003 A 
ATOM     21  C   UNL     1      -1.377   2.751   8.013  0.00  0.00    +0.000 A 
ATOM     22  C   UNL     1      -2.272   1.831   8.527  0.00  0.00    +0.000 A 
ATOM     23  C   UNL     1      -2.446   0.611   7.901  0.00  0.00    +0.000 A 
ATOM     24  C   UNL     1      -1.724   0.311   6.761  0.00  0.00    +0.003 A 
ENDBRANCH  18  19
ENDBRANCH  17  18
ENDBRANCH   8  17
ENDBRANCH   3   8
BRANCH   6  25
ATOM     25  C   UNL     1      -2.840   1.453  -2.452  0.00  0.00    -0.043 C 
BRANCH  25  29
ATOM     26  C   UNL     1      -6.587  -0.597  -2.599  0.00  0.00    +0.030 A 
ATOM     27  C   UNL     1      -6.504   0.660  -2.015  0.00  0.00    +0.023 A 
ATOM     28  C   UNL     1      -5.292   1.320  -1.969  0.00  0.00    +0.003 A 
ATOM     29  C   UNL     1      -4.161   0.730  -2.503  0.00  0.00    -0.064 A 
ATOM     30  C   UNL     1      -4.242  -0.519  -3.091  0.00  0.00    +0.003 A 
ATOM     31  C   UNL     1      -5.450  -1.187  -3.135  0.00  0.00    +0.023 A 
BRANCH  26  32
ATOM     32  N   UNL     1      -7.812  -1.267  -2.648  0.00  0.00    -0.330 N 
BRANCH  32  34
ATOM     33  C   UNL     1      -7.644  -3.666  -2.204  0.00  0.00    +0.024 C 
ATOM     34  C   UNL     1      -7.898  -2.593  -3.264  0.00  0.00    +0.102 C 
ENDBRANCH  32  34
BRANCH  32  35
ATOM     35  C   UNL     1      -9.011  -0.643  -2.082  0.00  0.00    +0.102 C 
ATOM     36  C   UNL     1      -9.712   0.185  -3.160  0.00  0.00    +0.024 C 
ENDBRANCH  32  35
ENDBRANCH  26  32
ENDBRANCH  25  29
ENDBRANCH   6  25
TORSDOF 9
