REMARK  Name = ZINC22619972
REMARK  11 active torsions:
REMARK  status: ('A' for Active; 'I' for Inactive)
REMARK    1  A    between atoms: C_1  and  N_2
REMARK    2  A    between atoms: N_2  and  C_3
REMARK    3  A    between atoms: N_2  and  C_4
REMARK    4  A    between atoms: C_4  and  C_6
REMARK    5  A    between atoms: C_4  and  C_26
REMARK    6  A    between atoms: C_6  and  N_7
REMARK    7  A    between atoms: C_8  and  C_10
REMARK    8  A    between atoms: C_14  and  S_16
REMARK    9  A    between atoms: S_16  and  N_19
REMARK   10  A    between atoms: N_19  and  C_20
REMARK   11  A    between atoms: C_20  and  C_21
REMARK                            x       y       z     vdW  Elec       q    Type
REMARK                         _______ _______ _______ _____ _____    ______ ____
ROOT
ATOM      1  N   UNL     1      -4.444  -0.555  -6.354  0.00  0.00    -0.313 N 
ATOM      2  C   UNL     1      -3.264  -0.238  -5.783  0.00  0.00    +0.244 C 
ATOM      3  O   UNL     1      -2.411  -1.092  -5.637  0.00  0.00    -0.270 OA
ATOM      4  H   UNL     1      -5.215   0.218  -6.486  0.00  0.00    +0.149 HD
ENDROOT
BRANCH   2   5
ATOM      5  C   UNL     1      -3.007   1.147  -5.336  0.00  0.00    +0.039 A 
ATOM      6  C   UNL     1      -3.985   2.130  -5.502  0.00  0.00    +0.013 A 
ATOM      7  C   UNL     1      -3.739   3.421  -5.082  0.00  0.00    +0.003 A 
ATOM      8  C   UNL     1      -2.529   3.741  -4.492  0.00  0.00    +0.028 A 
ATOM      9  C   UNL     1      -1.554   2.773  -4.329  0.00  0.00    +0.106 A 
ATOM     10  C   UNL     1      -1.787   1.478  -4.745  0.00  0.00    +0.041 A 
BRANCH   9  11
ATOM     11  S   UNL     1      -0.015   3.193  -3.583  0.00  0.00    +0.059 S 
ATOM     12  O   UNL     1       0.517   1.991  -3.044  0.00  0.00    -0.153 OA
ATOM     13  O   UNL     1      -0.251   4.346  -2.786  0.00  0.00    -0.153 OA
BRANCH  11  14
ATOM     14  N   UNL     1       1.008   3.660  -4.799  0.00  0.00    -0.185 NA
ATOM     15  H   UNL     1       1.806   2.976  -5.122  0.00  0.00    +0.148 HD
BRANCH  14  16
ATOM     16  C   UNL     1       0.718   4.867  -5.577  0.00  0.00    +0.148 C 
BRANCH  16  17
ATOM     17  C   UNL     1       1.947   5.276  -6.347  0.00  0.00    +0.005 A 
ATOM     18  C   UNL     1       2.337   4.906  -7.591  0.00  0.00    +0.012 A 
ATOM     19  C   UNL     1       3.515   5.416  -8.103  0.00  0.00    +0.008 A 
ATOM     20  C   UNL     1       4.252   6.262  -7.342  0.00  0.00    +0.045 A 
ATOM     21  S   UNL     1       3.271   6.367  -5.854  0.00  0.00    -0.100 S 
ENDBRANCH  16  17
ENDBRANCH  14  16
ENDBRANCH  11  14
ENDBRANCH   9  11
ENDBRANCH   2   5
BRANCH   1  22
ATOM     22  C   UNL     1      -4.698  -1.928  -6.797  0.00  0.00    +0.094 C 
BRANCH  22  23
ATOM     23  C   UNL     1      -6.172  -2.076  -7.177  0.00  0.00    -0.020 C 
BRANCH  23  24
ATOM     24  C   UNL     1      -6.406  -3.448  -7.756  0.00  0.00    -0.041 A 
ATOM     25  C   UNL     1      -7.024  -4.423  -6.995  0.00  0.00    +0.003 A 
ATOM     26  C   UNL     1      -7.242  -5.680  -7.527  0.00  0.00    +0.000 A 
ATOM     27  C   UNL     1      -6.835  -5.966  -8.816  0.00  0.00    +0.001 A 
ATOM     28  C   UNL     1      -6.213  -4.994  -9.576  0.00  0.00    +0.020 A 
ATOM     29  C   UNL     1      -5.998  -3.733  -9.046  0.00  0.00    +0.043 A 
ATOM     30 CL   UNL     1      -5.216  -2.512 -10.000  0.00  0.00    -0.083 Cl
ENDBRANCH  23  24
BRANCH  23  32
ATOM     31  C   UNL     1      -6.379  -2.519  -4.806  0.00  0.00    -0.096 C 
ATOM     32  N   UNL     1      -7.006  -1.901  -5.981  0.00  0.00    +0.382 N 
ATOM     33  C   UNL     1      -7.288  -0.479  -5.740  0.00  0.00    -0.096 C 
ATOM     34  H   UNL     1      -7.965  -2.410  -6.160  0.00  0.00    -0.082 HD
ENDBRANCH  23  32
ENDBRANCH  22  23
ENDBRANCH   1  22
TORSDOF 9
