REMARK  Name = ZINC35486733
REMARK  17 active torsions:
REMARK  status: ('A' for Active; 'I' for Inactive)
REMARK    1  A    between atoms: C_1  and  C_2
REMARK    2  A    between atoms: C_2  and  C_3
REMARK    3  A    between atoms: C_3  and  C_4
REMARK    4  A    between atoms: C_4  and  C_5
REMARK    5  A    between atoms: C_5  and  O_6
REMARK    6  A    between atoms: O_6  and  C_7
REMARK    7  A    between atoms: C_10  and  C_16
REMARK    8  A    between atoms: C_12  and  O_13
REMARK    9  A    between atoms: O_13  and  C_14
REMARK   10  A    between atoms: C_14  and  C_15
REMARK   11  A    between atoms: C_23  and  C_38
REMARK   12  A    between atoms: C_24  and  C_37
REMARK   13  A    between atoms: N_31  and  C_32
REMARK   14  A    between atoms: C_32  and  C_33
REMARK   15  A    between atoms: C_33  and  N_34
REMARK   16  A    between atoms: N_34  and  C_35
REMARK   17  A    between atoms: N_34  and  C_36
REMARK                            x       y       z     vdW  Elec       q    Type
REMARK                         _______ _______ _______ _____ _____    ______ ____
ROOT
ATOM      1  C   UNL     1      -7.818  -6.645   0.041  0.00  0.00    +0.145 C 
ATOM      2  C   UNL     1      -8.404  -6.617   1.414  0.00  0.00    +0.072 A 
ATOM      3  C   UNL     1      -7.921  -7.173   2.682  0.00  0.00    +0.199 A 
ATOM      4  O   UNL     1      -6.802  -7.633   2.826  0.00  0.00    -0.287 OA
ATOM      5  C   UNL     1      -8.926  -7.121   3.774  0.00  0.00    +0.065 A 
ATOM      6  C   UNL     1      -8.694  -7.785   4.979  0.00  0.00    +0.019 A 
ATOM      7  C   UNL     1      -9.631  -7.732   5.973  0.00  0.00    -0.047 A 
ATOM      8  C   UNL     1     -10.809  -7.022   5.786  0.00  0.00    -0.044 A 
ATOM      9  C   UNL     1     -11.053  -6.360   4.604  0.00  0.00    +0.050 A 
ATOM     10  C   UNL     1     -10.112  -6.396   3.575  0.00  0.00    +0.140 A 
ATOM     11  O   UNL     1     -10.368  -5.730   2.426  0.00  0.00    -0.450 OA
ATOM     12  C   UNL     1      -9.588  -5.938   1.347  0.00  0.00    +0.199 A 
ATOM     13  C   UNL     1      -9.802  -5.518  -0.049  0.00  0.00    +0.283 C 
ATOM     14  O   UNL     1     -10.766  -4.895  -0.448  0.00  0.00    -0.267 OA
ATOM     15  N   UNL     1      -8.772  -5.927  -0.820  0.00  0.00    -0.285 N 
ATOM     16  C   UNL     1     -11.833  -6.975   6.890  0.00  0.00    +0.044 C 
ATOM     17  C   UNL     1      -9.385  -8.448   7.276  0.00  0.00    +0.044 C 
ENDROOT
BRANCH   1  21
ATOM     18  C   UNL     1      -4.032  -4.656   0.016  0.00  0.00    +0.162 A 
ATOM     19  C   UNL     1      -5.205  -3.918   0.025  0.00  0.00    +0.050 A 
ATOM     20  C   UNL     1      -6.427  -4.564   0.033  0.00  0.00    +0.009 A 
ATOM     21  C   UNL     1      -6.482  -5.946   0.032  0.00  0.00    -0.019 A 
ATOM     22  C   UNL     1      -5.316  -6.687   0.023  0.00  0.00    +0.055 A 
ATOM     23  C   UNL     1      -4.088  -6.046   0.009  0.00  0.00    +0.162 A 
BRANCH  18  24
ATOM     24  O   UNL     1      -2.829  -4.022   0.007  0.00  0.00    -0.488 OA
BRANCH  24  25
ATOM     25  C   UNL     1      -2.848  -2.593   0.015  0.00  0.00    +0.229 C 
BRANCH  25  26
ATOM     26  C   UNL     1      -1.413  -2.063   0.004  0.00  0.00    +0.041 C 
BRANCH  26  27
ATOM     27  C   UNL     1      -1.433  -0.534   0.013  0.00  0.00    +0.003 C 
BRANCH  27  29
ATOM     28  C   UNL     1      -0.019   1.526   0.010  0.00  0.00    +0.004 C 
ATOM     29  C   UNL     1       0.002  -0.004   0.002  0.00  0.00    -0.003 C 
ENDBRANCH  27  29
ENDBRANCH  26  27
ENDBRANCH  25  26
ENDBRANCH  24  25
ENDBRANCH  18  24
BRANCH  23  30
ATOM     30  O   UNL     1      -2.939  -6.774  -0.006  0.00  0.00    -0.489 OA
BRANCH  30  31
ATOM     31  C   UNL     1      -3.073  -8.197  -0.013  0.00  0.00    +0.226 C 
ATOM     32  C   UNL     1      -1.684  -8.839  -0.029  0.00  0.00    +0.048 C 
ENDBRANCH  30  31
ENDBRANCH  23  30
ENDBRANCH   1  21
BRANCH  15  33
ATOM     33  C   UNL     1      -8.629  -5.697  -2.260  0.00  0.00    +0.090 C 
BRANCH  33  34
ATOM     34  C   UNL     1      -9.269  -6.855  -3.028  0.00  0.00    -0.060 C 
BRANCH  34  35
ATOM     35  N   UNL     1      -9.125  -6.624  -4.471  0.00  0.00    +0.377 N 
ATOM     36  C   UNL     1      -9.632  -7.791  -5.207  0.00  0.00    -0.097 C 
ATOM     37  C   UNL     1      -9.892  -5.432  -4.856  0.00  0.00    -0.097 C 
ATOM     38  H   UNL     1      -8.151  -6.484  -4.694  0.00  0.00    -0.083 HD
ENDBRANCH  34  35
ENDBRANCH  33  34
ENDBRANCH  15  33
TORSDOF 11
