REMARK  Name = ZINC09560595
REMARK  11 active torsions:
REMARK  status: ('A' for Active; 'I' for Inactive)
REMARK    1  A    between atoms: C_1  and  C_2
REMARK    2  A    between atoms: C_5  and  N_9
REMARK    3  A    between atoms: C_6  and  C_8
REMARK    4  A    between atoms: C_10  and  C_12
REMARK    5  A    between atoms: C_13  and  C_38
REMARK    6  A    between atoms: C_17  and  C_18
REMARK    7  A    between atoms: C_21  and  C_23
REMARK    8  A    between atoms: C_24  and  N_37
REMARK    9  A    between atoms: C_25  and  C_27
REMARK   10  A    between atoms: N_29  and  C_30
REMARK   11  A    between atoms: C_30  and  C_31
REMARK                            x       y       z     vdW  Elec       q    Type
REMARK                         _______ _______ _______ _____ _____    ______ ____
ROOT
ATOM      1  C   UNL     1       1.502   4.031   1.098  0.00  0.00    +0.069 A 
ATOM      2  C   UNL     1       1.957   5.353   1.069  0.00  0.00    +0.052 A 
ATOM      3  N   UNL     1       2.611   5.810   0.024  0.00  0.00    -0.244 NA
ATOM      4  C   UNL     1       2.865   5.056  -1.029  0.00  0.00    +0.112 A 
ATOM      5  C   UNL     1       2.463   3.705  -1.119  0.00  0.00    +0.040 A 
ATOM      6  C   UNL     1       1.746   3.183   0.001  0.00  0.00    +0.043 A 
ATOM      7  C   UNL     1       2.823   3.032  -2.354  0.00  0.00    +0.054 A 
ATOM      8  C   UNL     1       3.518   3.745  -3.309  0.00  0.00    +0.097 A 
ATOM      9  S   UNL     1       3.701   5.355  -2.568  0.00  0.00    -0.062 S 
ATOM     10  C   UNL     1       1.696   6.260   2.244  0.00  0.00    +0.066 C 
ENDROOT
BRANCH   6  11
ATOM     11  C   UNL     1       1.278   1.791   0.010  0.00  0.00    +0.137 A 
ATOM     12  C   UNL     1      -0.025   1.383   0.026  0.00  0.00    +0.050 A 
ATOM     13  C   UNL     1      -0.008  -0.023   0.029  0.00  0.00    +0.045 A 
ATOM     14  C   UNL     1       1.287  -0.404   0.015  0.00  0.00    +0.103 A 
ATOM     15  O   UNL     1       2.059   0.692   0.004  0.00  0.00    -0.460 OA
ATOM     16  C   UNL     1       1.783  -1.827   0.013  0.00  0.00    +0.086 C 
ENDBRANCH   6  11
BRANCH   1  18
ATOM     17  N   UNL     1      -0.571   3.633   2.326  0.00  0.00    -0.281 N 
ATOM     18  C   UNL     1       0.771   3.527   2.272  0.00  0.00    +0.251 C 
ATOM     19  O   UNL     1       1.379   3.015   3.193  0.00  0.00    -0.270 OA
ATOM     20  H   UNL     1      -1.048   4.112   1.631  0.00  0.00    +0.155 HD
BRANCH  17  25
ATOM     21  C   UNL     1      -3.430   1.281   6.624  0.00  0.00    +0.044 C 
ATOM     22  C   UNL     1      -2.671   1.905   5.482  0.00  0.00    -0.050 A 
ATOM     23  C   UNL     1      -1.433   1.405   5.121  0.00  0.00    +0.005 A 
ATOM     24  C   UNL     1      -0.734   1.975   4.075  0.00  0.00    +0.024 A 
ATOM     25  C   UNL     1      -1.276   3.053   3.385  0.00  0.00    +0.037 A 
ATOM     26  C   UNL     1      -2.517   3.556   3.754  0.00  0.00    -0.029 A 
ATOM     27  C   UNL     1      -3.212   2.978   4.798  0.00  0.00    +0.008 A 
ATOM     28  C   UNL     1      -3.106   4.729   3.013  0.00  0.00    +0.045 C 
ENDBRANCH  17  25
ENDBRANCH   1  18
BRANCH   8  29
ATOM     29  C   UNL     1       3.976   3.303  -4.574  0.00  0.00    +0.253 C 
ATOM     30  O   UNL     1       3.765   2.158  -4.932  0.00  0.00    -0.270 OA
ATOM     31  N   UNL     1       4.646   4.149  -5.381  0.00  0.00    -0.308 N 
ATOM     32  H   UNL     1       4.814   5.061  -5.096  0.00  0.00    +0.149 HD
BRANCH  31  33
ATOM     33  C   UNL     1       5.119   3.692  -6.690  0.00  0.00    +0.136 C 
BRANCH  33  34
ATOM     34  C   UNL     1       5.842   4.838  -7.400  0.00  0.00    +0.135 C 
ATOM     35  C   UNL     1       6.241   4.418  -8.832  0.00  0.00    +0.035 C 
ATOM     36  C   UNL     1       7.618   5.084  -9.049  0.00  0.00    +0.031 C 
ATOM     37  C   UNL     1       7.889   5.827  -7.722  0.00  0.00    +0.160 C 
ATOM     38  O   UNL     1       7.093   5.130  -6.739  0.00  0.00    -0.375 OA
ENDBRANCH  33  34
ENDBRANCH  31  33
ENDBRANCH   8  29
BRANCH   7  39
ATOM     39  N   UNL     1       2.481   1.704  -2.566  0.00  0.00    -0.356 N 
ATOM     40  H   UNL     1       2.731   1.265  -3.394  0.00  0.00    +0.142 HD
ATOM     41  H   UNL     1       1.992   1.214  -1.887  0.00  0.00    +0.142 HD
ENDBRANCH   7  39
TORSDOF 7
