REMARK  Name = ZINC16227174
REMARK  13 active torsions:
REMARK  status: ('A' for Active; 'I' for Inactive)
REMARK    1  A    between atoms: C_1  and  O_2
REMARK    2  A    between atoms: O_2  and  C_3
REMARK    3  A    between atoms: C_6  and  C_11
REMARK    4  A    between atoms: C_8  and  O_9
REMARK    5  A    between atoms: O_9  and  C_10
REMARK    6  A    between atoms: C_17  and  C_35
REMARK    7  A    between atoms: C_18  and  C_25
REMARK    8  A    between atoms: C_20  and  C_23
REMARK    9  A    between atoms: C_21  and  N_22
REMARK   10  A    between atoms: C_28  and  O_33
REMARK   11  A    between atoms: C_29  and  O_31
REMARK   12  A    between atoms: O_31  and  C_32
REMARK   13  A    between atoms: O_33  and  C_34
REMARK                            x       y       z     vdW  Elec       q    Type
REMARK                         _______ _______ _______ _____ _____    ______ ____
ROOT
ATOM      1  C   UNL     1       1.900   0.466   6.127  0.00  0.00    +0.028 C 
ATOM      2  C   UNL     1       2.858  -0.496   6.161  0.00  0.00    +0.079 A 
ATOM      3  C   UNL     1       3.544  -1.165   5.051  0.00  0.00    +0.271 A 
ATOM      4  O   UNL     1       3.284  -0.882   3.896  0.00  0.00    -0.266 OA
ATOM      5  N   UNL     1       4.471  -2.101   5.339  0.00  0.00    -0.257 N 
ATOM      6  C   UNL     1       4.716  -2.370   6.670  0.00  0.00    +0.099 A 
ATOM      7  C   UNL     1       5.618  -3.285   7.114  0.00  0.00    +0.057 C 
ATOM      8  C   UNL     1       6.414  -4.066   6.087  0.00  0.00    +0.100 C 
ATOM      9  C   UNL     1       6.115  -3.740   4.637  0.00  0.00    +0.079 C 
ATOM     10  C   UNL     1       5.185  -2.801   4.360  0.00  0.00    +0.118 C 
ATOM     11  S   UNL     1       3.627  -1.282   7.567  0.00  0.00    -0.065 S 
ENDROOT
BRANCH   1  15
ATOM     12  C   UNL     1       0.125   1.562   2.432  0.00  0.00    +0.162 A 
ATOM     13  C   UNL     1       0.442   0.233   2.682  0.00  0.00    +0.050 A 
ATOM     14  C   UNL     1       1.024  -0.127   3.878  0.00  0.00    +0.012 A 
ATOM     15  C   UNL     1       1.286   0.847   4.849  0.00  0.00    -0.020 A 
ATOM     16  C   UNL     1       0.961   2.186   4.598  0.00  0.00    +0.057 A 
ATOM     17  C   UNL     1       0.383   2.538   3.394  0.00  0.00    +0.162 A 
BRANCH  12  19
ATOM     18  C   UNL     1      -0.680   0.862   0.308  0.00  0.00    +0.277 C 
ATOM     19  O   UNL     1      -0.443   1.911   1.248  0.00  0.00    -0.491 OA
ENDBRANCH  12  19
BRANCH  17  20
ATOM     20  O   UNL     1       0.066   3.837   3.146  0.00  0.00    -0.491 OA
ATOM     21  C   UNL     1       0.358   4.784   4.176  0.00  0.00    +0.277 C 
ENDBRANCH  17  20
ENDBRANCH   1  15
BRANCH   8  22
ATOM     22  C   UNL     1       7.879  -3.814   6.335  0.00  0.00    -0.031 A 
ATOM     23  C   UNL     1       8.403  -2.549   6.142  0.00  0.00    +0.008 A 
ATOM     24  C   UNL     1       9.747  -2.313   6.368  0.00  0.00    +0.050 A 
ATOM     25  C   UNL     1      10.570  -3.345   6.789  0.00  0.00    +0.162 A 
ATOM     26  C   UNL     1      10.042  -4.617   6.984  0.00  0.00    +0.162 A 
ATOM     27  C   UNL     1       8.694  -4.846   6.760  0.00  0.00    +0.054 A 
BRANCH  26  28
ATOM     28  O   UNL     1      10.846  -5.633   7.398  0.00  0.00    -0.491 OA
ATOM     29  C   UNL     1      10.235  -6.912   7.577  0.00  0.00    +0.277 C 
ENDBRANCH  26  28
BRANCH  25  30
ATOM     30  O   UNL     1      11.892  -3.114   7.013  0.00  0.00    -0.491 OA
ATOM     31  C   UNL     1      12.364  -1.784   6.793  0.00  0.00    +0.277 C 
ENDBRANCH  25  30
ENDBRANCH   8  22
BRANCH   7  32
ATOM     32  C   UNL     1       5.808  -3.501   8.488  0.00  0.00    +0.241 C 
ATOM     33  O   UNL     1       5.159  -2.864   9.300  0.00  0.00    -0.271 OA
ATOM     34  N   UNL     1       6.708  -4.412   8.909  0.00  0.00    -0.326 N 
ATOM     35  H   UNL     1       7.224  -4.918   8.262  0.00  0.00    +0.145 HD
ATOM     36  H   UNL     1       6.839  -4.561   9.858  0.00  0.00    +0.145 HD
ENDBRANCH   7  32
BRANCH  10  37
ATOM     37  N   UNL     1       4.925  -2.516   3.041  0.00  0.00    -0.343 N 
ATOM     38  H   UNL     1       4.614  -1.633   2.788  0.00  0.00    +0.144 HD
ATOM     39  H   UNL     1       5.053  -3.198   2.363  0.00  0.00    +0.144 HD
ENDBRANCH  10  37
BRANCH   9  40
ATOM     40  C   UNL     1       6.808  -4.415   3.581  0.00  0.00    +0.099 C 
ATOM     41  N   UNL     1       7.356  -4.951   2.743  0.00  0.00    -0.191 NA
ENDBRANCH   9  40
TORSDOF 9
