REMARK  Name = ZINC39986727
REMARK  8 active torsions:
REMARK  status: ('A' for Active; 'I' for Inactive)
REMARK    1  A    between atoms: C_1  and  N_2
REMARK    2  A    between atoms: N_2  and  C_3
REMARK    3  A    between atoms: N_2  and  S_17
REMARK    4  A    between atoms: C_3  and  C_4
REMARK    5  A    between atoms: N_6  and  N_7
REMARK    6  A    between atoms: C_8  and  C_9
REMARK    7  A    between atoms: C_14  and  O_15
REMARK    8  A    between atoms: S_17  and  C_20
REMARK                            x       y       z     vdW  Elec       q    Type
REMARK                         _______ _______ _______ _____ _____    ______ ____
ROOT
ATOM      1  C   UNL     1      -0.321  -2.378   0.577  0.00  0.00    +0.206 C 
ENDROOT
BRANCH   1   2
ATOM      2  C   UNL     1      -1.579  -1.984   1.306  0.00  0.00    +0.248 C 
ATOM      3  O   UNL     1      -2.388  -1.255   0.771  0.00  0.00    -0.273 OA
ATOM      4  N   UNL     1      -1.806  -2.442   2.553  0.00  0.00    -0.206 N 
ATOM      5  H   UNL     1      -1.160  -3.025   2.982  0.00  0.00    +0.177 HD
BRANCH   4   6
ATOM      6  N   UNL     1      -2.976  -2.076   3.232  0.00  0.00    -0.188 NA
ATOM      7  C   UNL     1      -3.146  -2.427   4.470  0.00  0.00    +0.142 C 
BRANCH   7   8
ATOM      8  C   UNL     1      -2.018  -2.982   5.239  0.00  0.00    +0.037 A 
ATOM      9  C   UNL     1      -0.705  -2.659   4.892  0.00  0.00    +0.028 A 
ATOM     10  C   UNL     1       0.347  -3.181   5.617  0.00  0.00    +0.019 A 
ATOM     11  C   UNL     1       0.104  -4.026   6.688  0.00  0.00    +0.019 A 
ATOM     12  C   UNL     1      -1.191  -4.353   7.040  0.00  0.00    +0.047 A 
ATOM     13  C   UNL     1      -2.258  -3.832   6.327  0.00  0.00    +0.126 A 
ATOM     14 BR   UNL     1       2.125  -2.743   5.146  0.00  0.00    -0.050 Br
BRANCH  13  15
ATOM     15  O   UNL     1      -3.532  -4.149   6.677  0.00  0.00    -0.506 OA
ATOM     16  H   UNL     1      -3.902  -4.893   6.183  0.00  0.00    +0.292 HD
ENDBRANCH  13  15
ENDBRANCH   7   8
ENDBRANCH   4   6
ENDBRANCH   1   2
BRANCH   1  18
ATOM     17  C   UNL     1       0.191  -0.389  -0.913  0.00  0.00    +0.132 C 
ATOM     18  N   UNL     1      -0.310  -1.756  -0.749  0.00  0.00    -0.171 NA
BRANCH  18  19
ATOM     19  S   UNL     1      -0.863  -2.598  -2.064  0.00  0.00    +0.061 S 
ATOM     20  O   UNL     1      -1.757  -3.584  -1.567  0.00  0.00    -0.153 OA
ATOM     21  O   UNL     1      -1.255  -1.631  -3.029  0.00  0.00    -0.153 OA
BRANCH  19  22
ATOM     22  C   UNL     1       0.512  -3.462  -2.746  0.00  0.00    +0.106 A 
ATOM     23  C   UNL     1       1.296  -2.845  -3.720  0.00  0.00    +0.029 A 
ATOM     24  C   UNL     1       2.365  -3.485  -4.267  0.00  0.00    +0.010 A 
ATOM     25  C   UNL     1       2.687  -4.787  -3.846  0.00  0.00    -0.018 A 
ATOM     26  C   UNL     1       3.783  -5.479  -4.388  0.00  0.00    +0.008 A 
ATOM     27  C   UNL     1       4.065  -6.739  -3.956  0.00  0.00    +0.001 A 
ATOM     28  C   UNL     1       3.281  -7.355  -2.982  0.00  0.00    +0.001 A 
ATOM     29  C   UNL     1       2.212  -6.715  -2.435  0.00  0.00    +0.008 A 
ATOM     30  C   UNL     1       1.890  -5.414  -2.856  0.00  0.00    -0.016 A 
ATOM     31  C   UNL     1       0.797  -4.719  -2.310  0.00  0.00    +0.037 A 
ENDBRANCH  19  22
ENDBRANCH  18  19
ENDBRANCH   1  18
TORSDOF 7
