REMARK  Name = ZINC53624195
REMARK  6 active torsions:
REMARK  status: ('A' for Active; 'I' for Inactive)
REMARK    1  A    between atoms: C_1  and  C_2
REMARK    2  A    between atoms: C_6  and  N_9
REMARK    3  A    between atoms: C_7  and  C_8
REMARK    4  A    between atoms: C_12  and  C_23
REMARK    5  A    between atoms: C_27  and  O_29
REMARK    6  A    between atoms: O_29  and  C_30
REMARK                            x       y       z     vdW  Elec       q    Type
REMARK                         _______ _______ _______ _____ _____    ______ ____
ROOT
ATOM      1  N   UNL     1       0.050  -2.791   2.361  0.00  0.00    -0.215 NA
ATOM      2  C   UNL     1      -0.033  -4.108   2.351  0.00  0.00    +0.220 C 
ATOM      3  N   UNL     1      -0.129  -4.813   3.540  0.00  0.00    -0.291 N 
ATOM      4  C   UNL     1       0.412  -6.184   3.556  0.00  0.00    +0.202 C 
ATOM      5  N   UNL     1      -0.007  -6.834   2.305  0.00  0.00    -0.216 N 
ATOM      6  C   UNL     1      -0.371  -8.166   2.313  0.00  0.00    +0.249 C 
ATOM      7  C   UNL     1      -0.708  -8.792   1.165  0.00  0.00    +0.090 C 
ATOM      8  C   UNL     1      -0.708  -8.015  -0.088  0.00  0.00    +0.031 C 
ATOM      9  N   UNL     1      -0.124  -6.738  -0.060  0.00  0.00    -0.287 N 
ATOM     10  C   UNL     1      -0.040  -6.097   1.151  0.00  0.00    +0.198 C 
ATOM     11  N   UNL     1      -0.030  -4.779   1.187  0.00  0.00    -0.184 NA
ATOM     12  C   UNL     1      -1.244  -8.511  -1.213  0.00  0.00    +0.033 C 
ATOM     13  O   UNL     1      -0.392  -8.849   3.482  0.00  0.00    -0.270 OA
ATOM     14  H   UNL     1      -0.536  -4.421   4.329  0.00  0.00    +0.151 HD
ATOM     15  H   UNL     1       0.208  -6.322  -0.871  0.00  0.00    +0.155 HD
ENDROOT
BRANCH   1  21
ATOM     16  C   UNL     1       2.027   0.614  -0.548  0.00  0.00    +0.044 C 
ATOM     17  C   UNL     1       0.977  -0.430  -0.265  0.00  0.00    -0.046 A 
ATOM     18  C   UNL     1      -0.011  -0.686  -1.200  0.00  0.00    +0.004 A 
ATOM     19  C   UNL     1      -0.979  -1.642  -0.949  0.00  0.00    +0.002 A 
ATOM     20  C   UNL     1      -0.965  -2.348   0.236  0.00  0.00    +0.028 A 
ATOM     21  C   UNL     1       0.030  -2.095   1.184  0.00  0.00    +0.071 A 
ATOM     22  C   UNL     1       1.008  -1.132   0.921  0.00  0.00    -0.022 A 
ATOM     23  C   UNL     1       2.088  -0.856   1.935  0.00  0.00    +0.046 C 
ENDBRANCH   1  21
BRANCH   4  24
ATOM     24  C   UNL     1       1.917  -6.140   3.634  0.00  0.00    -0.005 A 
ATOM     25  C   UNL     1       2.668  -7.149   3.059  0.00  0.00    +0.007 A 
ATOM     26  C   UNL     1       4.048  -7.112   3.128  0.00  0.00    +0.004 A 
ATOM     27  C   UNL     1       4.680  -6.066   3.773  0.00  0.00    +0.045 A 
ATOM     28  C   UNL     1       3.929  -5.053   4.351  0.00  0.00    +0.120 A 
ATOM     29  C   UNL     1       2.544  -5.090   4.274  0.00  0.00    +0.052 A 
BRANCH  28  30
ATOM     30  O   UNL     1       4.549  -4.024   4.985  0.00  0.00    -0.495 OA
ATOM     31  C   UNL     1       5.977  -4.048   5.020  0.00  0.00    +0.277 C 
ENDBRANCH  28  30
ENDBRANCH   4  24
TORSDOF 3
