REMARK  Name = ZINC44728479
REMARK  9 active torsions:
REMARK  status: ('A' for Active; 'I' for Inactive)
REMARK    1  A    between atoms: C_1  and  C_2
REMARK    2  A    between atoms: C_11  and  C_12
REMARK    3  A    between atoms: C_12  and  C_13
REMARK    4  A    between atoms: C_13  and  N_14
REMARK    5  A    between atoms: C_15  and  C_17
REMARK    6  A    between atoms: C_28  and  C_30
REMARK    7  A    between atoms: C_31  and  C_41
REMARK    8  A    between atoms: C_34  and  C_35
REMARK    9  A    between atoms: C_37  and  C_40
REMARK                            x       y       z     vdW  Elec       q    Type
REMARK                         _______ _______ _______ _____ _____    ______ ____
ROOT
ATOM      1  C   UNL     1       2.732  -7.928   4.225  0.00  0.00    +0.100 C 
ATOM      2  C   UNL     1       2.316  -7.982   5.712  0.00  0.00    +0.121 C 
ATOM      3  N   UNL     1       3.179  -9.031   6.304  0.00  0.00    -0.296 N 
ATOM      4  C   UNL     1       4.499  -8.829   5.661  0.00  0.00    +0.115 C 
ATOM      5  C   UNL     1       4.165  -8.484   4.196  0.00  0.00    -0.004 C 
ATOM      6  C   UNL     1       5.132  -7.426   3.670  0.00  0.00    -0.010 C 
ATOM      7  C   UNL     1       6.541  -8.021   3.595  0.00  0.00    -0.082 C 
ATOM      8  N   UNL     1       6.534  -9.191   2.708  0.00  0.00    +0.379 N 
ATOM      9  C   UNL     1       5.674 -10.240   3.269  0.00  0.00    -0.082 C 
ATOM     10  C   UNL     1       4.228  -9.739   3.330  0.00  0.00    -0.010 C 
ATOM     11  C   UNL     1       2.840  -9.959   7.221  0.00  0.00    +0.252 C 
ATOM     12  O   UNL     1       3.669 -10.758   7.613  0.00  0.00    -0.270 OA
ATOM     13  H   UNL     1       6.184  -8.921   1.801  0.00  0.00    -0.086 HD
ATOM     14  H   UNL     1       7.474  -9.544   2.612  0.00  0.00    -0.086 HD
ENDROOT
BRANCH  11  15
ATOM     15  C   UNL     1       1.466 -10.005   7.749  0.00  0.00    +0.108 A 
ATOM     16  C   UNL     1       0.386 -10.753   7.218  0.00  0.00    +0.093 A 
ATOM     17  N   UNL     1      -0.660 -10.535   7.957  0.00  0.00    -0.082 NA
ATOM     18  O   UNL     1      -0.310  -9.640   8.995  0.00  0.00    -0.352 OA
ATOM     19  C   UNL     1       0.989  -9.328   8.863  0.00  0.00    +0.201 A 
ATOM     20  C   UNL     1       0.442 -11.648   6.006  0.00  0.00    +0.070 C 
BRANCH  19  21
ATOM     21  C   UNL     1       1.767  -8.427   9.740  0.00  0.00    +0.152 A 
ATOM     22  C   UNL     1       1.277  -7.742  10.880  0.00  0.00    +0.079 A 
ATOM     23  C   UNL     1       2.289  -7.028  11.403  0.00  0.00    +0.135 A 
ATOM     24  O   UNL     1       3.381  -7.231  10.651  0.00  0.00    -0.359 OA
ATOM     25  N   UNL     1       3.037  -8.123   9.606  0.00  0.00    -0.075 NA
ATOM     26  C   UNL     1       2.209  -6.149  12.625  0.00  0.00    +0.089 C 
ENDBRANCH  19  21
ENDBRANCH  11  15
BRANCH   1  28
ATOM     27  N   UNL     1       2.468  -6.253   2.424  0.00  0.00    -0.315 N 
ATOM     28  C   UNL     1       2.710  -6.506   3.725  0.00  0.00    +0.218 C 
ATOM     29  O   UNL     1       2.910  -5.590   4.494  0.00  0.00    -0.275 OA
ATOM     30  H   UNL     1       2.307  -6.986   1.809  0.00  0.00    +0.149 HD
BRANCH  27  31
ATOM     31  C   UNL     1       2.446  -4.872   1.938  0.00  0.00    +0.109 C 
BRANCH  31  32
ATOM     32  C   UNL     1       2.152  -4.863   0.436  0.00  0.00    +0.056 C 
BRANCH  32  43
ATOM     33  C   UNL     1       3.131   0.938  -1.733  0.00  0.00    +0.046 C 
ATOM     34  C   UNL     1       3.656  -0.412  -1.319  0.00  0.00    -0.027 A 
ATOM     35  C   UNL     1       5.006  -0.680  -1.387  0.00  0.00    +0.005 A 
ATOM     36  C   UNL     1       5.502  -1.919  -1.008  0.00  0.00    +0.001 A 
ATOM     37  C   UNL     1       4.658  -2.897  -0.561  0.00  0.00    +0.010 A 
ATOM     38  C   UNL     1       3.287  -2.648  -0.484  0.00  0.00    +0.003 A 
ATOM     39  C   UNL     1       2.780  -1.391  -0.862  0.00  0.00    +0.050 A 
ATOM     40  N   UNL     1       1.416  -1.432  -0.677  0.00  0.00    -0.360 N 
ATOM     41  H   UNL     1       0.807  -0.700  -0.862  0.00  0.00    +0.165 HD
ATOM     42  C   UNL     1       1.048  -2.658  -0.196  0.00  0.00    +0.087 A 
ATOM     43  C   UNL     1       2.130  -3.442  -0.064  0.00  0.00    -0.021 A 
ENDBRANCH  32  43
ENDBRANCH  31  32
ENDBRANCH  27  31
ENDBRANCH   1  28
TORSDOF 6
