REMARK  Name = ZINC20866758
REMARK  8 active torsions:
REMARK  status: ('A' for Active; 'I' for Inactive)
REMARK    1  A    between atoms: C_4  and  C_7
REMARK    2  A    between atoms: C_7  and  N_8
REMARK    3  A    between atoms: C_9  and  C_27
REMARK    4  A    between atoms: C_12  and  S_13
REMARK    5  A    between atoms: S_13  and  C_14
REMARK    6  A    between atoms: C_14  and  C_15
REMARK    7  A    between atoms: N_17  and  N_18
REMARK    8  A    between atoms: C_19  and  C_21
REMARK                            x       y       z     vdW  Elec       q    Type
REMARK                         _______ _______ _______ _____ _____    ______ ____
ROOT
ATOM      1  N   UNL     1       3.513  -5.387   0.382  0.00  0.00    -0.298 N 
ATOM      2  C   UNL     1       2.970  -6.625   0.125  0.00  0.00    +0.165 A 
ATOM      3  N   UNL     1       1.767  -6.424  -0.361  0.00  0.00    -0.128 NA
ATOM      4  N   UNL     1       1.522  -5.164  -0.420  0.00  0.00    -0.122 NA
ATOM      5  C   UNL     1       2.558  -4.482   0.017  0.00  0.00    +0.193 A 
ENDROOT
BRANCH   2   6
ATOM      6  C   UNL     1       3.618  -7.934   0.353  0.00  0.00    +0.019 A 
ATOM      7  C   UNL     1       4.994  -8.075   0.173  0.00  0.00    +0.013 A 
ATOM      8  C   UNL     1       5.594  -9.297   0.393  0.00  0.00    +0.021 A 
ATOM      9  C   UNL     1       4.832 -10.386   0.781  0.00  0.00    +0.041 A 
ATOM     10  C   UNL     1       3.464 -10.254   0.956  0.00  0.00    +0.021 A 
ATOM     11  C   UNL     1       2.854  -9.035   0.745  0.00  0.00    +0.013 A 
ATOM     12 CL   UNL     1       5.592 -11.923   1.049  0.00  0.00    -0.084 Cl
ENDBRANCH   2   6
BRANCH   1  13
ATOM     13  C   UNL     1       4.840  -5.101   0.933  0.00  0.00    +0.161 C 
BRANCH  13  17
ATOM     14  C   UNL     1       4.676  -5.259   5.199  0.00  0.00    +0.000 A 
ATOM     15  C   UNL     1       4.969  -6.400   4.475  0.00  0.00    +0.000 A 
ATOM     16  C   UNL     1       5.021  -6.349   3.095  0.00  0.00    +0.005 A 
ATOM     17  C   UNL     1       4.782  -5.157   2.438  0.00  0.00    -0.028 A 
ATOM     18  C   UNL     1       4.495  -4.014   3.162  0.00  0.00    +0.005 A 
ATOM     19  C   UNL     1       4.437  -4.067   4.542  0.00  0.00    +0.000 A 
ENDBRANCH  13  17
ENDBRANCH   1  13
BRANCH   5  20
ATOM     20  S   UNL     1       2.687  -2.728   0.119  0.00  0.00    -0.077 S 
BRANCH  20  21
ATOM     21  C   UNL     1       1.065  -2.255  -0.531  0.00  0.00    +0.174 C 
BRANCH  21  22
ATOM     22  C   UNL     1       0.945  -0.753  -0.537  0.00  0.00    +0.239 C 
ATOM     23  O   UNL     1       1.865  -0.069  -0.141  0.00  0.00    -0.273 OA
ATOM     24  N   UNL     1      -0.185  -0.169  -0.983  0.00  0.00    -0.233 N 
ATOM     25  H   UNL     1      -1.020  -0.789  -1.343  0.00  0.00    +0.173 HD
BRANCH  24  26
ATOM     26  N   UNL     1      -0.297   1.228  -0.989  0.00  0.00    -0.230 N 
ATOM     27  C   UNL     1      -1.425   1.811  -1.440  0.00  0.00    +0.260 C 
ATOM     28  O   UNL     1      -2.345   1.126  -1.842  0.00  0.00    -0.269 OA
ATOM     29  H   UNL     1       0.536   1.847  -0.626  0.00  0.00    +0.173 HD
BRANCH  27  30
ATOM     30  C   UNL     1      -1.542   3.285  -1.447  0.00  0.00    +0.038 A 
ATOM     31  C   UNL     1      -0.490   4.074  -0.981  0.00  0.00    +0.013 A 
ATOM     32  C   UNL     1      -0.604   5.449  -0.995  0.00  0.00    +0.001 A 
ATOM     33  C   UNL     1      -1.763   6.045  -1.459  0.00  0.00    +0.000 A 
ATOM     34  C   UNL     1      -2.812   5.269  -1.917  0.00  0.00    +0.001 A 
ATOM     35  C   UNL     1      -2.709   3.893  -1.913  0.00  0.00    +0.013 A 
ENDBRANCH  27  30
ENDBRANCH  24  26
ENDBRANCH  21  22
ENDBRANCH  20  21
ENDBRANCH   5  20
TORSDOF 8
