REMARK  Name = ZINC18145784
REMARK  6 active torsions:
REMARK  status: ('A' for Active; 'I' for Inactive)
REMARK    1  A    between atoms: C_1  and  C_2
REMARK    2  A    between atoms: C_2  and  C_36
REMARK    3  A    between atoms: N_5  and  C_9
REMARK    4  A    between atoms: C_9  and  C_10
REMARK    5  A    between atoms: N_12  and  C_13
REMARK    6  A    between atoms: N_27  and  C_30
REMARK                            x       y       z     vdW  Elec       q    Type
REMARK                         _______ _______ _______ _____ _____    ______ ____
ROOT
ATOM      1  C   UNL     1      -0.008   1.537   0.004  0.00  0.00    +0.017 C 
ATOM      2  C   UNL     1       0.015   0.008   0.003  0.00  0.00    +0.012 C 
ATOM      3  C   UNL     1       0.575  -0.449  -1.295  0.00  0.00    +0.031 A 
ATOM      4  C   UNL     1       1.760  -1.038  -1.540  0.00  0.00    +0.091 A 
ATOM      5  N   UNL     1       2.006  -1.315  -2.866  0.00  0.00    -0.288 N 
ATOM      6  C   UNL     1       1.082  -1.020  -3.799  0.00  0.00    +0.292 A 
ATOM      7  O   UNL     1       1.138  -1.203  -5.002  0.00  0.00    -0.259 OA
ATOM      8  S   UNL     1      -0.167  -0.338  -2.904  0.00  0.00    -0.030 S 
ATOM      9  S   UNL     1       2.880  -1.437  -0.224  0.00  0.00    -0.093 S 
ATOM     10  C   UNL     1       2.277  -0.442   1.177  0.00  0.00    +0.152 C 
ATOM     11  C   UNL     1       0.743  -0.446   1.211  0.00  0.00    +0.109 C 
ATOM     12  C   UNL     1       0.411  -1.778   1.808  0.00  0.00    +0.232 C 
ATOM     13  O   UNL     1      -0.599  -2.425   1.635  0.00  0.00    -0.274 OA
ATOM     14  N   UNL     1       1.471  -2.111   2.583  0.00  0.00    -0.209 N 
ATOM     15  C   UNL     1       2.536  -1.300   2.428  0.00  0.00    +0.240 C 
ATOM     16  O   UNL     1       3.516  -1.255   3.141  0.00  0.00    -0.274 OA
ATOM     17  C   UNL     1      -1.429  -0.491   0.099  0.00  0.00    +0.017 C 
ENDROOT
BRANCH  14  18
ATOM     18  C   UNL     1       1.460  -3.200   3.466  0.00  0.00    +0.044 A 
ATOM     19  C   UNL     1       0.330  -3.999   3.572  0.00  0.00    +0.024 A 
ATOM     20  C   UNL     1       0.322  -5.071   4.442  0.00  0.00    +0.002 A 
ATOM     21  C   UNL     1       1.440  -5.350   5.207  0.00  0.00    +0.000 A 
ATOM     22  C   UNL     1       2.567  -4.556   5.104  0.00  0.00    +0.002 A 
ATOM     23  C   UNL     1       2.583  -3.486   4.231  0.00  0.00    +0.024 A 
ENDBRANCH  14  18
BRANCH   5  24
ATOM     24  C   UNL     1       3.275  -1.930  -3.262  0.00  0.00    +0.222 C 
BRANCH  24  25
ATOM     25  C   UNL     1       3.136  -3.430  -3.235  0.00  0.00    +0.237 C 
ATOM     26  O   UNL     1       2.081  -3.936  -2.917  0.00  0.00    -0.274 OA
ATOM     27  N   UNL     1       4.185  -4.210  -3.565  0.00  0.00    -0.284 N 
ATOM     28  H   UNL     1       5.008  -3.807  -3.884  0.00  0.00    +0.155 HD
BRANCH  27  29
ATOM     29  C   UNL     1       4.087  -5.601  -3.448  0.00  0.00    +0.034 A 
ATOM     30  C   UNL     1       5.192  -6.346  -3.060  0.00  0.00    +0.025 A 
ATOM     31  C   UNL     1       5.093  -7.719  -2.946  0.00  0.00    +0.022 A 
ATOM     32  C   UNL     1       3.892  -8.352  -3.216  0.00  0.00    +0.041 A 
ATOM     33  C   UNL     1       2.789  -7.612  -3.603  0.00  0.00    +0.022 A 
ATOM     34  C   UNL     1       2.881  -6.238  -3.714  0.00  0.00    +0.025 A 
ATOM     35 CL   UNL     1       3.770 -10.078  -3.071  0.00  0.00    -0.084 Cl
ENDBRANCH  27  29
ENDBRANCH  24  25
ENDBRANCH   5  24
TORSDOF 4
