REMARK  Name = ZINC40568873
REMARK  8 active torsions:
REMARK  status: ('A' for Active; 'I' for Inactive)
REMARK    1  A    between atoms: C_1  and  C_2
REMARK    2  A    between atoms: C_7  and  C_8
REMARK    3  A    between atoms: C_8  and  N_9
REMARK    4  A    between atoms: C_20  and  C_33
REMARK    5  A    between atoms: C_26  and  N_32
REMARK    6  A    between atoms: C_27  and  C_28
REMARK    7  A    between atoms: C_28  and  O_30
REMARK    8  A    between atoms: O_30  and  C_31
REMARK                            x       y       z     vdW  Elec       q    Type
REMARK                         _______ _______ _______ _____ _____    ______ ____
ROOT
ATOM      1  N   UNL     1      -1.135   0.513   2.810  0.00  0.00    -0.265 N 
ATOM      2  C   UNL     1      -1.398   1.743   2.233  0.00  0.00    +0.041 A 
ATOM      3  C   UNL     1      -0.553   2.573   1.494  0.00  0.00    +0.024 A 
ATOM      4  C   UNL     1      -1.085   3.766   1.029  0.00  0.00    +0.002 A 
ATOM      5  C   UNL     1      -2.392   4.130   1.280  0.00  0.00    +0.000 A 
ATOM      6  C   UNL     1      -3.244   3.312   2.014  0.00  0.00    +0.007 A 
ATOM      7  C   UNL     1      -2.723   2.123   2.479  0.00  0.00    -0.002 A 
ATOM      8  C   UNL     1      -3.331   1.019   3.283  0.00  0.00    +0.142 C 
ATOM      9  C   UNL     1      -2.215   0.011   3.444  0.00  0.00    +0.240 C 
ATOM     10  O   UNL     1      -2.279  -1.048   4.034  0.00  0.00    -0.274 OA
ATOM     11  C   UNL     1      -3.799   1.508   4.624  0.00  0.00    +0.061 A 
ATOM     12  C   UNL     1      -3.061   1.953   5.712  0.00  0.00    +0.068 A 
ATOM     13  N   UNL     1      -3.898   2.279   6.668  0.00  0.00    -0.176 NA
ATOM     14  N   UNL     1      -5.205   2.049   6.210  0.00  0.00    -0.246 N 
ATOM     15  H   UNL     1      -6.021   2.203   6.711  0.00  0.00    +0.192 HD
ATOM     16  C   UNL     1      -5.125   1.577   4.956  0.00  0.00    +0.223 A 
ATOM     17  O   UNL     1      -6.112   1.212   4.101  0.00  0.00    -0.424 OA
ATOM     18  C   UNL     1      -5.768   0.522   2.996  0.00  0.00    +0.198 C 
ATOM     19  C   UNL     1      -4.491   0.392   2.558  0.00  0.00    +0.117 C 
ATOM     20  C   UNL     1      -1.558   2.045   5.784  0.00  0.00    +0.068 C 
ENDROOT
BRANCH  18  21
ATOM     21  N   UNL     1      -6.764  -0.082   2.275  0.00  0.00    -0.329 N 
ATOM     22  H   UNL     1      -7.675  -0.074   2.606  0.00  0.00    +0.145 HD
ATOM     23  H   UNL     1      -6.557  -0.517   1.433  0.00  0.00    +0.145 HD
ENDBRANCH  18  21
BRANCH  19  24
ATOM     24  C   UNL     1      -4.244  -0.350   1.394  0.00  0.00    +0.341 C 
ATOM     25  O   UNL     1      -3.987   0.223   0.350  0.00  0.00    -0.245 OA
BRANCH  24  26
ATOM     26  O   UNL     1      -4.291  -1.699   1.430  0.00  0.00    -0.465 OA
ATOM     27  C   UNL     1      -4.029  -2.391   0.207  0.00  0.00    +0.280 C 
ENDBRANCH  24  26
ENDBRANCH  19  24
BRANCH   1  28
ATOM     28  C   UNL     1       0.161  -0.167   2.736  0.00  0.00    +0.149 C 
BRANCH  28  35
ATOM     29  C   UNL     1       2.140  -1.898   3.933  0.00  0.00    +0.044 C 
ATOM     30  C   UNL     1       2.014  -0.467   4.391  0.00  0.00    -0.046 A 
ATOM     31  C   UNL     1       2.850   0.018   5.379  0.00  0.00    +0.003 A 
ATOM     32  C   UNL     1       2.734   1.330   5.799  0.00  0.00    +0.000 A 
ATOM     33  C   UNL     1       1.784   2.157   5.230  0.00  0.00    +0.000 A 
ATOM     34  C   UNL     1       0.949   1.672   4.241  0.00  0.00    +0.005 A 
ATOM     35  C   UNL     1       1.067   0.361   3.818  0.00  0.00    -0.027 A 
ENDBRANCH  28  35
ENDBRANCH   1  28
TORSDOF 5
