REMARK  Name = ZINC11880532
REMARK  8 active torsions:
REMARK  status: ('A' for Active; 'I' for Inactive)
REMARK    1  A    between atoms: C_10  and  C_11
REMARK    2  A    between atoms: C_11  and  C_12
REMARK    3  A    between atoms: C_12  and  C_18
REMARK    4  A    between atoms: C_18  and  C_19
REMARK    5  A    between atoms: C_19  and  C_20
REMARK    6  A    between atoms: N_22  and  C_23
REMARK    7  A    between atoms: C_23  and  C_24
REMARK    8  A    between atoms: C_24  and  N_71
REMARK                            x       y       z     vdW  Elec       q    Type
REMARK                         _______ _______ _______ _____ _____    ______ ____
ROOT
ATOM      1  C   UNL     1       0.220   4.165   5.980  0.00  0.00    +0.035 C 
ENDROOT
BRANCH   1   2
ATOM      2  C   UNL     1       0.851   3.803   7.326  0.00  0.00    +0.039 C 
ATOM      3  C   UNL     1       2.210   4.519   7.490  0.00  0.00    +0.035 C 
ATOM      4  C   UNL     1       3.195   3.450   6.965  0.00  0.00    +0.098 C 
ATOM      5  C   UNL     1       2.465   2.140   7.169  0.00  0.00    +0.214 C 
ATOM      6  O   UNL     1       2.985   1.045   7.150  0.00  0.00    -0.276 OA
ATOM      7  N   UNL     1       1.157   2.368   7.374  0.00  0.00    -0.309 N 
ATOM      8  H   UNL     1       0.498   1.673   7.533  0.00  0.00    +0.149 HD
BRANCH   2   9
ATOM      9  C   UNL     1      -0.091   4.182   8.470  0.00  0.00    +0.061 C 
BRANCH   9  19
ATOM     10  C   UNL     1      -1.540  -0.466  10.054  0.00  0.00    +0.001 A 
ATOM     11  C   UNL     1      -0.366   0.281  10.149  0.00  0.00    +0.001 A 
ATOM     12  C   UNL     1      -0.284   1.528   9.610  0.00  0.00    +0.009 A 
ATOM     13  C   UNL     1      -1.397   2.074   8.947  0.00  0.00    -0.015 A 
ATOM     14  C   UNL     1      -2.590   1.315   8.851  0.00  0.00    -0.018 A 
ATOM     15  C   UNL     1      -2.637   0.031   9.420  0.00  0.00    +0.008 A 
ATOM     16  C   UNL     1      -3.702   1.861   8.189  0.00  0.00    +0.008 A 
ATOM     17  C   UNL     1      -3.620   3.108   7.650  0.00  0.00    +0.001 A 
ATOM     18  C   UNL     1      -2.449   3.857   7.750  0.00  0.00    +0.004 A 
ATOM     19  C   UNL     1      -1.350   3.358   8.379  0.00  0.00    -0.038 A 
ENDBRANCH   9  19
ENDBRANCH   2   9
ENDBRANCH   1   2
BRANCH   1  20
ATOM     20  C   UNL     1       1.133   3.694   4.846  0.00  0.00    +0.098 C 
BRANCH  20  21
ATOM     21  C   UNL     1       0.511   4.050   3.520  0.00  0.00    +0.213 C 
ATOM     22  O   UNL     1      -0.556   4.625   3.486  0.00  0.00    -0.276 OA
ATOM     23  N   UNL     1       1.142   3.731   2.373  0.00  0.00    -0.317 N 
ATOM     24  H   UNL     1       1.996   3.272   2.400  0.00  0.00    +0.149 HD
BRANCH  23  25
ATOM     25  C   UNL     1       0.538   4.078   1.084  0.00  0.00    +0.092 C 
BRANCH  25  26
ATOM     26  C   UNL     1       1.390   3.504  -0.050  0.00  0.00    -0.049 C 
ATOM     27  C   UNL     1       0.732   3.804  -1.412  0.00  0.00    -0.010 C 
ATOM     28  C   UNL     1       1.438   5.094  -1.899  0.00  0.00    -0.001 C 
ATOM     29  C   UNL     1       2.902   4.875  -1.442  0.00  0.00    -0.001 C 
ATOM     30  C   UNL     1       2.770   4.185  -0.069  0.00  0.00    -0.010 C 
BRANCH  26  36
ATOM     31  C   UNL     1       2.428   1.491  -0.910  0.00  0.00    -0.049 C 
ATOM     32  C   UNL     1       2.611  -0.007  -0.657  0.00  0.00    +0.141 C 
ATOM     33  O   UNL     1       1.330  -0.642  -0.633  0.00  0.00    -0.383 OA
ATOM     34  C   UNL     1       0.447  -0.119   0.363  0.00  0.00    +0.141 C 
ATOM     35  C   UNL     1       0.242   1.378   0.120  0.00  0.00    -0.049 C 
ATOM     36  N   UNL     1       1.559   2.048   0.148  0.00  0.00    +0.387 N 
ATOM     37  H   UNL     1       1.998   1.884   1.061  0.00  0.00    -0.081 HD
ENDBRANCH  26  36
ENDBRANCH  25  26
ENDBRANCH  23  25
ENDBRANCH  20  21
ENDBRANCH   1  20
TORSDOF 8
