REMARK  Name = ZINC37263994
REMARK  14 active torsions:
REMARK  status: ('A' for Active; 'I' for Inactive)
REMARK    1  A    between atoms: C_1  and  C_2
REMARK    2  A    between atoms: C_5  and  N_8
REMARK    3  A    between atoms: C_11  and  C_13
REMARK    4  A    between atoms: C_13  and  C_14
REMARK    5  A    between atoms: C_13  and  C_15
REMARK    6  A    between atoms: C_13  and  C_16
REMARK    7  A    between atoms: C_17  and  C_33
REMARK    8  A    between atoms: N_23  and  C_24
REMARK    9  A    between atoms: C_24  and  C_25
REMARK   10  A    between atoms: N_27  and  C_28
REMARK   11  A    between atoms: C_28  and  C_29
REMARK   12  A    between atoms: C_29  and  N_30
REMARK   13  A    between atoms: N_30  and  C_31
REMARK   14  A    between atoms: N_30  and  C_32
REMARK                            x       y       z     vdW  Elec       q    Type
REMARK                         _______ _______ _______ _____ _____    ______ ____
ROOT
ATOM      1  N   UNL     1       2.686  -6.793  -0.773  0.00  0.00    -0.218 N 
ATOM      2  C   UNL     1       3.083  -8.062  -1.031  0.00  0.00    +0.136 A 
ATOM      3  C   UNL     1       1.976  -8.827  -1.177  0.00  0.00    +0.034 A 
ATOM      4  C   UNL     1       0.861  -8.006  -1.000  0.00  0.00    +0.075 A 
ATOM      5  N   UNL     1       1.282  -6.789  -0.753  0.00  0.00    -0.169 NA
ATOM      6  C   UNL     1       1.985 -10.303  -1.483  0.00  0.00    +0.112 C 
ATOM      7  S   UNL     1       2.499 -11.207   0.021  0.00  0.00    -0.138 S 
ATOM      8  C   UNL     1       3.838 -10.145   0.659  0.00  0.00    +0.166 C 
ATOM      9  C   UNL     1       4.712  -9.663  -0.459  0.00  0.00    +0.231 C 
ATOM     10  O   UNL     1       5.712 -10.282  -0.753  0.00  0.00    -0.274 OA
ATOM     11  N   UNL     1       4.392  -8.554  -1.134  0.00  0.00    -0.246 N 
ENDROOT
BRANCH   1  16
ATOM     12  C   UNL     1       6.072  -2.321   0.092  0.00  0.00    +0.044 C 
ATOM     13  C   UNL     1       5.173  -3.509  -0.137  0.00  0.00    -0.050 A 
ATOM     14  C   UNL     1       4.050  -3.380  -0.933  0.00  0.00    +0.005 A 
ATOM     15  C   UNL     1       3.224  -4.466  -1.146  0.00  0.00    +0.028 A 
ATOM     16  C   UNL     1       3.523  -5.689  -0.559  0.00  0.00    +0.067 A 
ATOM     17  C   UNL     1       4.652  -5.815   0.239  0.00  0.00    +0.028 A 
ATOM     18  C   UNL     1       5.476  -4.726   0.444  0.00  0.00    +0.005 A 
ENDBRANCH   1  16
BRANCH   6  19
ATOM     19  C   UNL     1       0.603 -10.742  -1.895  0.00  0.00    -0.023 A 
ATOM     20  C   UNL     1      -0.344 -11.065  -0.941  0.00  0.00    +0.012 A 
ATOM     21  C   UNL     1      -1.577 -11.456  -1.345  0.00  0.00    +0.045 A 
ATOM     22  S   UNL     1      -1.426 -11.376  -3.122  0.00  0.00    -0.105 S 
ATOM     23  C   UNL     1       0.269 -10.821  -3.206  0.00  0.00    +0.050 A 
ENDBRANCH   6  19
BRANCH   4  24
ATOM     24  C   UNL     1      -0.579  -8.445  -1.075  0.00  0.00    +0.007 C 
ATOM     25  C   UNL     1      -0.931  -9.252   0.176  0.00  0.00    +0.017 C 
ATOM     26  C   UNL     1      -1.483  -7.213  -1.158  0.00  0.00    +0.017 C 
ATOM     27  C   UNL     1      -0.783  -9.313  -2.317  0.00  0.00    +0.017 C 
ENDBRANCH   4  24
BRANCH  11  28
ATOM     28  C   UNL     1       5.387  -7.870  -1.964  0.00  0.00    +0.210 C 
BRANCH  28  29
ATOM     29  C   UNL     1       5.273  -8.353  -3.386  0.00  0.00    +0.231 C 
ATOM     30  O   UNL     1       4.386  -9.118  -3.698  0.00  0.00    -0.274 OA
ATOM     31  N   UNL     1       6.158  -7.935  -4.313  0.00  0.00    -0.316 N 
ATOM     32  H   UNL     1       6.911  -7.382  -4.050  0.00  0.00    +0.149 HD
BRANCH  31  33
ATOM     33  C   UNL     1       5.984  -8.316  -5.717  0.00  0.00    +0.085 C 
BRANCH  33  34
ATOM     34  C   UNL     1       7.181  -7.821  -6.532  0.00  0.00    -0.061 C 
BRANCH  34  35
ATOM     35  N   UNL     1       6.950  -8.095  -7.957  0.00  0.00    +0.377 N 
ATOM     36  C   UNL     1       8.070  -7.564  -8.745  0.00  0.00    -0.097 C 
ATOM     37  C   UNL     1       6.847  -9.545  -8.166  0.00  0.00    -0.097 C 
ATOM     38  H   UNL     1       6.092  -7.651  -8.249  0.00  0.00    -0.083 HD
ENDBRANCH  34  35
ENDBRANCH  33  34
ENDBRANCH  31  33
ENDBRANCH  28  29
ENDBRANCH  11  28
TORSDOF 8
