REMARK  Name = ZINC02101134
REMARK  8 active torsions:
REMARK  status: ('A' for Active; 'I' for Inactive)
REMARK    1  A    between atoms: C_1  and  N_58
REMARK    2  A    between atoms: C_8  and  O_31
REMARK    3  A    between atoms: C_10  and  C_12
REMARK    4  A    between atoms: N_19  and  C_22
REMARK    5  A    between atoms: C_20  and  O_21
REMARK    6  A    between atoms: C_22  and  C_23
REMARK    7  A    between atoms: C_23  and  C_24
REMARK    8  A    between atoms: O_31  and  C_32
REMARK                            x       y       z     vdW  Elec       q    Type
REMARK                         _______ _______ _______ _____ _____    ______ ____
ROOT
ATOM      1  C   UNL     1      -2.228   0.158   1.381  0.00  0.00    +0.067 A 
ATOM      2  C   UNL     1      -1.926   0.385   2.735  0.00  0.00    +0.259 A 
ATOM      3  O   UNL     1      -1.892   1.522   3.174  0.00  0.00    -0.267 OA
ATOM      4  N   UNL     1      -1.674  -0.662   3.545  0.00  0.00    -0.275 N 
ATOM      5  H   UNL     1      -1.459  -0.504   4.509  0.00  0.00    +0.173 HD
ATOM      6  C   UNL     1      -1.711  -1.920   3.067  0.00  0.00    +0.332 A 
ATOM      7  O   UNL     1      -1.481  -2.851   3.813  0.00  0.00    -0.246 OA
ATOM      8  N   UNL     1      -1.997  -2.161   1.774  0.00  0.00    -0.264 N 
ATOM      9  C   UNL     1      -2.265  -1.124   0.917  0.00  0.00    +0.204 A 
ENDROOT
BRANCH   1  19
ATOM     10  C   UNL     1      -4.868   1.283   1.005  0.00  0.00    -0.095 C 
ATOM     11  C   UNL     1      -3.828   3.317   0.197  0.00  0.00    -0.073 C 
ATOM     12  C   UNL     1      -2.674   4.272   0.515  0.00  0.00    +0.017 C 
ATOM     13  C   UNL     1      -1.357   3.554   0.366  0.00  0.00    -0.040 A 
ATOM     14  C   UNL     1      -0.202   4.312   0.247  0.00  0.00    +0.053 A 
ATOM     15  C   UNL     1       1.031   3.697   0.115  0.00  0.00    +0.170 A 
ATOM     16  C   UNL     1       1.112   2.308   0.104  0.00  0.00    +0.208 A 
ATOM     17  C   UNL     1      -0.046   1.553   0.223  0.00  0.00    +0.167 A 
ATOM     18  C   UNL     1      -1.283   2.177   0.348  0.00  0.00    -0.008 A 
ATOM     19  C   UNL     1      -2.513   1.313   0.457  0.00  0.00    +0.007 C 
ATOM     20  O   UNL     1       2.422   1.948  -0.034  0.00  0.00    -0.449 OA
ATOM     21  C   UNL     1       3.095   3.125  -0.517  0.00  0.00    +0.467 C 
ATOM     22  O   UNL     1       2.290   4.209  -0.016  0.00  0.00    -0.452 OA
ATOM     23  N   UNL     1      -3.632   2.097   1.006  0.00  0.00    +0.386 N 
ATOM     24  H   UNL     1      -3.410   2.367   1.972  0.00  0.00    -0.081 HD
BRANCH  17  25
ATOM     25  O   UNL     1       0.029   0.195   0.213  0.00  0.00    -0.491 OA
ATOM     26  C   UNL     1       0.071  -0.443  -1.065  0.00  0.00    +0.277 C 
ENDBRANCH  17  25
ENDBRANCH   1  19
BRANCH   9  27
ATOM     27  O   UNL     1      -2.558  -1.370  -0.378  0.00  0.00    -0.493 OA
ATOM     28  H   UNL     1      -2.559  -2.309  -0.609  0.00  0.00    +0.294 HD
ENDBRANCH   9  27
BRANCH   8  29
ATOM     29  C   UNL     1      -2.030  -3.540   1.281  0.00  0.00    +0.134 C 
BRANCH  29  30
ATOM     30  C   UNL     1      -3.445  -4.103   1.437  0.00  0.00    +0.057 C 
BRANCH  30  31
ATOM     31  C   UNL     1      -3.478  -5.522   0.929  0.00  0.00    -0.046 A 
ATOM     32  C   UNL     1      -3.778  -5.774  -0.396  0.00  0.00    +0.006 A 
ATOM     33  C   UNL     1      -3.804  -7.075  -0.864  0.00  0.00    +0.038 A 
ATOM     34  C   UNL     1      -3.541  -8.125  -0.001  0.00  0.00    +0.123 A 
ATOM     35  C   UNL     1      -3.247  -7.872   1.328  0.00  0.00    +0.038 A 
ATOM     36  C   UNL     1      -3.215  -6.570   1.792  0.00  0.00    +0.006 A 
ATOM     37  F   UNL     1      -3.572  -9.397  -0.456  0.00  0.00    -0.205 F 
ENDBRANCH  30  31
ENDBRANCH  29  30
ENDBRANCH   8  29
TORSDOF 6
