REMARK  Name = ZINC36571091
REMARK  17 active torsions:
REMARK  status: ('A' for Active; 'I' for Inactive)
REMARK    1  A    between atoms: C_1  and  C_2
REMARK    2  A    between atoms: C_2  and  C_3
REMARK    3  A    between atoms: C_3  and  N_4
REMARK    4  A    between atoms: N_4  and  C_5
REMARK    5  A    between atoms: C_5  and  C_7
REMARK    6  A    between atoms: C_5  and  C_15
REMARK    7  A    between atoms: N_17  and  C_18
REMARK    8  A    between atoms: C_18  and  C_19
REMARK    9  A    between atoms: C_18  and  C_20
REMARK   10  A    between atoms: C_18  and  C_21
REMARK   11  A    between atoms: C_21  and  C_22
REMARK   12  A    between atoms: C_22  and  C_23
REMARK   13  A    between atoms: C_22  and  C_24
REMARK   14  A    between atoms: C_22  and  C_25
REMARK   15  A    between atoms: C_26  and  C_28
REMARK   16  A    between atoms: C_29  and  O_35
REMARK   17  A    between atoms: C_33  and  O_34
REMARK                            x       y       z     vdW  Elec       q    Type
REMARK                         _______ _______ _______ _____ _____    ______ ____
ROOT
ATOM      1  C   UNL     1      -0.141  -2.055   1.606  0.00  0.00    +0.195 C 
ENDROOT
BRANCH   1   2
ATOM      2  C   UNL     1      -1.311  -1.402   2.295  0.00  0.00    +0.018 A 
ATOM      3  C   UNL     1      -1.196  -0.112   2.781  0.00  0.00    +0.048 A 
ATOM      4  C   UNL     1      -2.271   0.487   3.413  0.00  0.00    +0.020 A 
ATOM      5  C   UNL     1      -3.459  -0.203   3.560  0.00  0.00    +0.003 A 
ATOM      6  C   UNL     1      -3.575  -1.492   3.074  0.00  0.00    +0.020 A 
ATOM      7  C   UNL     1      -2.503  -2.090   2.436  0.00  0.00    +0.048 A 
ATOM      8 CL   UNL     1      -2.651  -3.706   1.820  0.00  0.00    -0.083 Cl
ATOM      9 CL   UNL     1       0.297   0.755   2.598  0.00  0.00    -0.083 Cl
ENDBRANCH   1   2
BRANCH   1  10
ATOM     10  C   UNL     1       0.916  -2.395   2.625  0.00  0.00    +0.239 C 
ATOM     11  O   UNL     1       2.018  -1.897   2.545  0.00  0.00    -0.273 OA
ATOM     12  N   UNL     1       0.636  -3.253   3.626  0.00  0.00    -0.308 N 
ATOM     13  H   UNL     1      -0.246  -3.652   3.690  0.00  0.00    +0.149 HD
BRANCH  12  14
ATOM     14  C   UNL     1       1.663  -3.584   4.617  0.00  0.00    +0.030 C 
ATOM     15  C   UNL     1       2.789  -4.368   3.941  0.00  0.00    +0.031 C 
ATOM     16  C   UNL     1       2.228  -2.294   5.216  0.00  0.00    +0.031 C 
BRANCH  14  17
ATOM     17  C   UNL     1       1.045  -4.435   5.728  0.00  0.00    +0.031 C 
BRANCH  17  18
ATOM     18  C   UNL     1      -0.372  -3.938   6.022  0.00  0.00    -0.036 C 
ATOM     19  C   UNL     1      -1.357  -4.610   5.064  0.00  0.00    +0.010 C 
ATOM     20  C   UNL     1      -0.746  -4.287   7.464  0.00  0.00    +0.010 C 
ATOM     21  C   UNL     1      -0.430  -2.421   5.832  0.00  0.00    +0.010 C 
ENDBRANCH  17  18
ENDBRANCH  14  17
ENDBRANCH  12  14
ENDBRANCH   1  10
BRANCH   1  22
ATOM     22  N   UNL     1       0.417  -1.135   0.612  0.00  0.00    -0.282 N 
ATOM     23  C   UNL     1      -0.305  -0.799  -0.475  0.00  0.00    +0.255 C 
ATOM     24  O   UNL     1      -1.419  -1.260  -0.632  0.00  0.00    -0.270 OA
BRANCH  23  25
ATOM     25  C   UNL     1       0.256   0.127  -1.474  0.00  0.00    +0.119 A 
ATOM     26  C   UNL     1       0.993  -0.368  -2.560  0.00  0.00    +0.133 A 
ATOM     27  C   UNL     1       1.516   0.512  -3.494  0.00  0.00    +0.046 A 
ATOM     28  C   UNL     1       1.313   1.873  -3.358  0.00  0.00    +0.007 A 
ATOM     29  C   UNL     1       0.589   2.371  -2.292  0.00  0.00    +0.046 A 
ATOM     30  C   UNL     1       0.052   1.509  -1.349  0.00  0.00    +0.133 A 
BRANCH  30  31
ATOM     31  O   UNL     1      -0.664   2.000  -0.307  0.00  0.00    -0.506 OA
ATOM     32  H   UNL     1      -0.131   2.208   0.473  0.00  0.00    +0.292 HD
ENDBRANCH  30  31
BRANCH  26  33
ATOM     33  O   UNL     1       1.194  -1.703  -2.695  0.00  0.00    -0.506 OA
ATOM     34  H   UNL     1       0.510  -2.153  -3.208  0.00  0.00    +0.292 HD
ENDBRANCH  26  33
ENDBRANCH  23  25
BRANCH  22  35
ATOM     35  C   UNL     1       1.760  -0.579   0.801  0.00  0.00    +0.109 C 
BRANCH  35  37
ATOM     36  C   UNL     1       4.194  -0.945   0.372  0.00  0.00    +0.005 C 
ATOM     37  C   UNL     1       2.799  -1.565   0.266  0.00  0.00    +0.016 C 
ENDBRANCH  35  37
ENDBRANCH  22  35
ENDBRANCH   1  22
TORSDOF 11
