REMARK  Name = ZINC64971490
REMARK  9 active torsions:
REMARK  status: ('A' for Active; 'I' for Inactive)
REMARK    1  A    between atoms: C_1  and  C_2
REMARK    2  A    between atoms: C_2  and  O_3
REMARK    3  A    between atoms: O_3  and  C_4
REMARK    4  A    between atoms: C_9  and  C_10
REMARK    5  A    between atoms: C_10  and  N_11
REMARK    6  A    between atoms: C_12  and  C_14
REMARK    7  A    between atoms: C_14  and  N_15
REMARK    8  A    between atoms: N_28  and  C_29
REMARK    9  A    between atoms: C_32  and  C_35
REMARK                            x       y       z     vdW  Elec       q    Type
REMARK                         _______ _______ _______ _____ _____    ______ ____
ROOT
ATOM      1  N   UNL     1       5.759   1.780  -3.722  0.00  0.00    -0.260 N 
ATOM      2  C   UNL     1       6.878   1.106  -4.224  0.00  0.00    +0.058 A 
ATOM      3  C   UNL     1       7.091  -0.232  -3.931  0.00  0.00    +0.025 A 
ATOM      4  C   UNL     1       8.205  -0.878  -4.433  0.00  0.00    +0.002 A 
ATOM      5  C   UNL     1       9.110  -0.197  -5.226  0.00  0.00    +0.002 A 
ATOM      6  C   UNL     1       8.905   1.139  -5.526  0.00  0.00    +0.025 A 
ATOM      7  C   UNL     1       7.790   1.790  -5.029  0.00  0.00    +0.060 A 
ATOM      8  N   UNL     1       7.548   3.141  -5.325  0.00  0.00    -0.245 N 
ATOM      9  C   UNL     1       6.150   3.595  -5.370  0.00  0.00    +0.211 C 
ATOM     10  C   UNL     1       5.392   2.973  -4.225  0.00  0.00    +0.238 C 
ATOM     11  O   UNL     1       4.442   3.558  -3.748  0.00  0.00    -0.273 OA
ATOM     12  C   UNL     1       8.565   3.994  -5.560  0.00  0.00    +0.311 C 
ATOM     13  O   UNL     1       9.714   3.624  -5.420  0.00  0.00    -0.252 OA
ATOM     14  N   UNL     1       8.306   5.258  -5.950  0.00  0.00    -0.269 N 
ATOM     15  H   UNL     1       7.391   5.577  -5.987  0.00  0.00    +0.156 HD
ENDROOT
BRANCH  14  16
ATOM     16  C   UNL     1       9.359   6.111  -6.301  0.00  0.00    +0.035 A 
ATOM     17  C   UNL     1      10.496   5.598  -6.912  0.00  0.00    +0.023 A 
ATOM     18  C   UNL     1      11.533   6.443  -7.257  0.00  0.00    +0.005 A 
ATOM     19  C   UNL     1      11.441   7.797  -6.994  0.00  0.00    -0.050 A 
ATOM     20  C   UNL     1      10.310   8.311  -6.385  0.00  0.00    +0.005 A 
ATOM     21  C   UNL     1       9.267   7.473  -6.043  0.00  0.00    +0.023 A 
ATOM     22  C   UNL     1      12.575   8.715  -7.370  0.00  0.00    +0.044 C 
ENDBRANCH  14  16
BRANCH   1  23
ATOM     23  C   UNL     1       4.975   1.177  -2.642  0.00  0.00    +0.209 C 
BRANCH  23  25
ATOM     24  N   UNL     1       3.038  -0.344  -2.419  0.00  0.00    -0.310 N 
ATOM     25  C   UNL     1       3.889   0.314  -3.230  0.00  0.00    +0.231 C 
ATOM     26  O   UNL     1       3.780   0.213  -4.434  0.00  0.00    -0.274 OA
ATOM     27  H   UNL     1       3.125  -0.264  -1.456  0.00  0.00    +0.149 HD
BRANCH  24  28
ATOM     28  C   UNL     1       1.981  -1.183  -2.991  0.00  0.00    +0.143 C 
BRANCH  28  34
ATOM     29  C   UNL     1       0.192  -1.063  -1.238  0.00  0.00    +0.125 A 
ATOM     30  C   UNL     1      -0.552  -1.638  -0.218  0.00  0.00    +0.046 A 
ATOM     31  C   UNL     1      -0.310  -2.945   0.159  0.00  0.00    +0.004 A 
ATOM     32  C   UNL     1       0.674  -3.679  -0.478  0.00  0.00    +0.001 A 
ATOM     33  C   UNL     1       1.417  -3.107  -1.494  0.00  0.00    +0.009 A 
ATOM     34  C   UNL     1       1.175  -1.803  -1.879  0.00  0.00    +0.011 A 
BRANCH  29  35
ATOM     35  O   UNL     1      -0.045   0.222  -1.612  0.00  0.00    -0.492 OA
BRANCH  35  37
ATOM     36  C   UNL     1      -1.192   2.344  -1.464  0.00  0.00    +0.048 C 
ATOM     37  C   UNL     1      -1.072   0.924  -0.908  0.00  0.00    +0.225 C 
ENDBRANCH  35  37
ENDBRANCH  29  35
ENDBRANCH  28  34
ENDBRANCH  24  28
ENDBRANCH  23  25
ENDBRANCH   1  23
TORSDOF 7
