REMARK  Name = ZINC28049687
REMARK  7 active torsions:
REMARK  status: ('A' for Active; 'I' for Inactive)
REMARK    1  A    between atoms: C_1  and  C_2
REMARK    2  A    between atoms: C_2  and  C_23
REMARK    3  A    between atoms: N_3  and  N_4
REMARK    4  A    between atoms: C_8  and  C_11
REMARK    5  A    between atoms: C_11  and  C_12
REMARK    6  A    between atoms: N_14  and  C_15
REMARK    7  A    between atoms: C_26  and  N_29
REMARK                            x       y       z     vdW  Elec       q    Type
REMARK                         _______ _______ _______ _____ _____    ______ ____
ROOT
ATOM      1  N   UNL     1       0.037   0.018   0.021  0.00  0.00    -0.126 NA
ATOM      2  C   UNL     1       0.009   1.388   0.026  0.00  0.00    +0.183 C 
ATOM      3  N   UNL     1       1.045   2.224   0.023  0.00  0.00    -0.263 N 
ATOM      4  C   UNL     1       0.943   3.512   0.028  0.00  0.00    +0.233 C 
ATOM      5  C   UNL     1      -0.492   4.028   0.038  0.00  0.00    +0.149 C 
ATOM      6  S   UNL     1      -1.386   2.422   0.031  0.00  0.00    -0.075 S 
ATOM      7  O   UNL     1       2.006   4.325   0.025  0.00  0.00    -0.274 OA
ATOM      8  H   UNL     1       2.071   1.828   0.015  0.00  0.00    +0.157 HD
ENDROOT
BRANCH   1  11
ATOM      9  C   UNL     1      -0.095  -2.735   0.012  0.00  0.00    +0.068 C 
ATOM     10  C   UNL     1       1.195  -1.954   0.007  0.00  0.00    +0.068 C 
ATOM     11  N   UNL     1       1.167  -0.604   0.012  0.00  0.00    -0.152 NA
BRANCH  10  12
ATOM     12  C   UNL     1       2.423  -2.631  -0.003  0.00  0.00    -0.002 A 
ATOM     13  C   UNL     1       2.459  -4.045  -0.002  0.00  0.00    +0.012 A 
ATOM     14  C   UNL     1       3.661  -4.690  -0.018  0.00  0.00    +0.033 A 
ATOM     15  C   UNL     1       4.846  -3.965  -0.022  0.00  0.00    +0.126 A 
ATOM     16  C   UNL     1       4.825  -2.575  -0.016  0.00  0.00    +0.033 A 
ATOM     17  C   UNL     1       3.638  -1.905  -0.007  0.00  0.00    +0.012 A 
BRANCH  15  18
ATOM     18  N   UNL     1       6.143  -4.679  -0.033  0.00  0.00    +0.056 N 
ATOM     19  O   UNL     1       7.270  -3.997  -0.037  0.00  0.00    -0.126 OA
ATOM     20  O   UNL     1       6.170  -5.995  -0.038  0.00  0.00    -0.126 OA
ENDBRANCH  15  18
ENDBRANCH  10  12
ENDBRANCH   1  11
BRANCH   5  21
ATOM     21  C   UNL     1      -0.802   4.842  -1.220  0.00  0.00    +0.120 C 
BRANCH  21  22
ATOM     22  C   UNL     1      -2.184   5.431  -1.108  0.00  0.00    +0.219 C 
ATOM     23  O   UNL     1      -2.856   5.221  -0.120  0.00  0.00    -0.275 OA
ATOM     24  N   UNL     1      -2.675   6.192  -2.107  0.00  0.00    -0.285 N 
ATOM     25  H   UNL     1      -2.041   6.444  -2.969  0.00  0.00    +0.155 HD
BRANCH  24  26
ATOM     26  C   UNL     1      -3.993   6.661  -2.046  0.00  0.00    +0.047 A 
ATOM     27  C   UNL     1      -4.553   7.005  -0.823  0.00  0.00    +0.024 A 
ATOM     28  C   UNL     1      -5.853   7.468  -0.767  0.00  0.00    +0.002 A 
ATOM     29  C   UNL     1      -6.597   7.589  -1.926  0.00  0.00    +0.001 A 
ATOM     30  C   UNL     1      -6.042   7.248  -3.146  0.00  0.00    +0.017 A 
ATOM     31  C   UNL     1      -4.740   6.789  -3.210  0.00  0.00    +0.039 A 
ATOM     32 BR   UNL     1      -3.979   6.330  -4.879  0.00  0.00    -0.048 Br
ENDBRANCH  24  26
ENDBRANCH  21  22
ENDBRANCH   5  21
TORSDOF 6
