REMARK  Name = ZINC02061871
REMARK  8 active torsions:
REMARK  status: ('A' for Active; 'I' for Inactive)
REMARK    1  A    between atoms: C_1  and  C_2
REMARK    2  A    between atoms: C_2  and  C_3
REMARK    3  A    between atoms: C_2  and  C_4
REMARK    4  A    between atoms: C_2  and  C_5
REMARK    5  A    between atoms: C_7  and  O_12
REMARK    6  A    between atoms: C_10  and  O_11
REMARK    7  A    between atoms: O_12  and  C_13
REMARK    8  A    between atoms: C_13  and  C_15
REMARK                            x       y       z     vdW  Elec       q    Type
REMARK                         _______ _______ _______ _____ _____    ______ ____
ROOT
ATOM      1  C   UNL     1      -5.167  -2.801  -0.021  0.00  0.00    +0.003 A 
ATOM      2  C   UNL     1      -3.899  -2.254   0.011  0.00  0.00    +0.054 A 
ATOM      3  C   UNL     1      -3.737  -0.877  -0.021  0.00  0.00    +0.132 A 
ATOM      4  C   UNL     1      -4.848  -0.049  -0.079  0.00  0.00    +0.050 A 
ATOM      5  C   UNL     1      -6.116  -0.596  -0.116  0.00  0.00    +0.049 A 
ATOM      6  C   UNL     1      -6.278  -1.973  -0.085  0.00  0.00    +0.121 A 
ENDROOT
BRANCH   1   8
ATOM      7  C   UNL     1      -3.971  -4.971   0.082  0.00  0.00    +0.015 C 
ATOM      8  C   UNL     1      -5.343  -4.297   0.013  0.00  0.00    -0.009 C 
ATOM      9  C   UNL     1      -6.165  -4.686   1.244  0.00  0.00    +0.015 C 
ATOM     10  C   UNL     1      -6.073  -4.754  -1.252  0.00  0.00    +0.015 C 
ENDBRANCH   1   8
BRANCH   6  11
ATOM     11  O   UNL     1      -7.526  -2.512  -0.116  0.00  0.00    -0.506 OA
ATOM     12  H   UNL     1      -7.920  -2.643   0.757  0.00  0.00    +0.292 HD
ENDBRANCH   6  11
BRANCH   3  13
ATOM     13  O   UNL     1      -2.489  -0.338   0.011  0.00  0.00    -0.422 OA
BRANCH  13  14
ATOM     14  C   UNL     1      -1.778  -0.374  -1.133  0.00  0.00    +0.346 C 
ATOM     15  O   UNL     1      -2.222  -0.951  -2.106  0.00  0.00    -0.244 OA
BRANCH  14  16
ATOM     16  C   UNL     1      -0.460   0.286  -1.204  0.00  0.00    +0.073 A 
ATOM     17  C   UNL     1       0.053   0.950  -0.087  0.00  0.00    +0.017 A 
ATOM     18  C   UNL     1       1.287   1.560  -0.158  0.00  0.00    +0.016 A 
ATOM     19  C   UNL     1       2.017   1.521  -1.335  0.00  0.00    +0.019 A 
ATOM     20  C   UNL     1       1.512   0.871  -2.448  0.00  0.00    +0.031 A 
ATOM     21  C   UNL     1       0.278   0.256  -2.391  0.00  0.00    +0.033 A 
ATOM     22 BR   UNL     1      -0.410  -0.633  -3.911  0.00  0.00    -0.049 Br
ATOM     23 BR   UNL     1       3.708   2.361  -1.422  0.00  0.00    -0.050 Br
ENDBRANCH  14  16
ENDBRANCH  13  14
ENDBRANCH   3  13
TORSDOF 5
