REMARK  Name = ZINC40009106
REMARK  18 active torsions:
REMARK  status: ('A' for Active; 'I' for Inactive)
REMARK    1  A    between atoms: C_1  and  C_2
REMARK    2  A    between atoms: C_2  and  C_3
REMARK    3  A    between atoms: C_3  and  C_4
REMARK    4  A    between atoms: C_4  and  N_5
REMARK    5  A    between atoms: N_5  and  C_6
REMARK    6  A    between atoms: N_5  and  C_10
REMARK    7  A    between atoms: C_6  and  C_7
REMARK    8  A    between atoms: C_7  and  C_8
REMARK    9  A    between atoms: C_8  and  C_9
REMARK   10  A    between atoms: C_10  and  C_11
REMARK   11  A    between atoms: C_11  and  C_12
REMARK   12  A    between atoms: C_12  and  N_13
REMARK   13  A    between atoms: C_14  and  C_31
REMARK   14  A    between atoms: C_21  and  C_30
REMARK   15  A    between atoms: C_22  and  C_29
REMARK   16  A    between atoms: C_34  and  C_37
REMARK   17  A    between atoms: C_37  and  O_39
REMARK   18  A    between atoms: O_39  and  C_40
REMARK                            x       y       z     vdW  Elec       q    Type
REMARK                         _______ _______ _______ _____ _____    ______ ____
ROOT
ATOM      1  N   UNL     1      -5.998  -6.418   0.261  0.00  0.00    -0.284 N 
ATOM      2  C   UNL     1      -6.960  -6.473   1.374  0.00  0.00    +0.144 C 
ATOM      3  C   UNL     1      -8.241  -6.962   0.782  0.00  0.00    +0.072 A 
ATOM      4  C   UNL     1      -9.547  -7.229   1.393  0.00  0.00    +0.199 A 
ATOM      5  O   UNL     1      -9.829  -6.906   2.533  0.00  0.00    -0.287 OA
ATOM      6  C   UNL     1     -10.494  -7.929   0.488  0.00  0.00    +0.065 A 
ATOM      7  C   UNL     1     -11.700  -8.429   0.978  0.00  0.00    +0.019 A 
ATOM      8  C   UNL     1     -12.559  -9.075   0.134  0.00  0.00    -0.047 A 
ATOM      9  C   UNL     1     -12.233  -9.236  -1.206  0.00  0.00    -0.044 A 
ATOM     10  C   UNL     1     -11.048  -8.747  -1.707  0.00  0.00    +0.050 A 
ATOM     11  C   UNL     1     -10.156  -8.081  -0.866  0.00  0.00    +0.140 A 
ATOM     12  O   UNL     1      -9.001  -7.601  -1.381  0.00  0.00    -0.450 OA
ATOM     13  C   UNL     1      -8.033  -7.163  -0.552  0.00  0.00    +0.199 A 
ATOM     14  C   UNL     1      -6.634  -6.817  -0.860  0.00  0.00    +0.283 C 
ATOM     15  O   UNL     1      -6.126  -6.884  -1.962  0.00  0.00    -0.267 OA
ATOM     16  C   UNL     1     -13.189  -9.953  -2.124  0.00  0.00    +0.044 C 
ATOM     17  C   UNL     1     -13.864  -9.617   0.659  0.00  0.00    +0.044 C 
ENDROOT
BRANCH   2  18
ATOM     18  C   UNL     1      -7.149  -5.101   1.966  0.00  0.00    -0.022 A 
ATOM     19  C   UNL     1      -7.223  -3.997   1.136  0.00  0.00    +0.006 A 
ATOM     20  C   UNL     1      -7.397  -2.737   1.671  0.00  0.00    +0.015 A 
ATOM     21  C   UNL     1      -7.498  -2.578   3.054  0.00  0.00    +0.059 A 
ATOM     22  C   UNL     1      -7.423  -3.696   3.887  0.00  0.00    +0.015 A 
ATOM     23  C   UNL     1      -7.254  -4.951   3.338  0.00  0.00    +0.006 A 
BRANCH  21  24
ATOM     24  C   UNL     1      -7.684  -1.232   3.635  0.00  0.00    +0.339 C 
ATOM     25  O   UNL     1      -7.748  -0.261   2.908  0.00  0.00    -0.245 OA
BRANCH  24  26
ATOM     26  O   UNL     1      -7.781  -1.082   4.970  0.00  0.00    -0.464 OA
ATOM     27  C   UNL     1      -7.959   0.247   5.462  0.00  0.00    +0.280 C 
ENDBRANCH  24  26
ENDBRANCH  21  24
ENDBRANCH   2  18
BRANCH   1  28
ATOM     28  C   UNL     1      -4.598  -5.996   0.352  0.00  0.00    +0.107 C 
BRANCH  28  29
ATOM     29  C   UNL     1      -4.504  -4.486   0.121  0.00  0.00    +0.000 C 
BRANCH  29  30
ATOM     30  C   UNL     1      -3.042  -4.046   0.216  0.00  0.00    -0.077 C 
BRANCH  30  31
ATOM     31  N   UNL     1      -2.935  -2.623  -0.133  0.00  0.00    +0.380 N 
ATOM     32  H   UNL     1      -3.346  -2.469  -1.042  0.00  0.00    -0.082 HD
BRANCH  31  33
ATOM     33  C   UNL     1      -3.645  -1.818   0.869  0.00  0.00    -0.079 C 
BRANCH  33  34
ATOM     34  C   UNL     1      -3.641  -0.349   0.440  0.00  0.00    -0.019 C 
BRANCH  34  36
ATOM     35  C   UNL     1      -4.376   1.958   1.055  0.00  0.00    +0.004 C 
ATOM     36  C   UNL     1      -4.380   0.489   1.484  0.00  0.00    -0.005 C 
ENDBRANCH  34  36
ENDBRANCH  33  34
ENDBRANCH  31  33
BRANCH  31  37
ATOM     37  C   UNL     1      -1.520  -2.231  -0.164  0.00  0.00    -0.079 C 
BRANCH  37  38
ATOM     38  C   UNL     1      -0.815  -2.954  -1.313  0.00  0.00    -0.019 C 
BRANCH  38  39
ATOM     39  C   UNL     1       0.676  -2.609  -1.295  0.00  0.00    -0.005 C 
ATOM     40  C   UNL     1       1.381  -3.332  -2.444  0.00  0.00    +0.004 C 
ENDBRANCH  38  39
ENDBRANCH  37  38
ENDBRANCH  31  37
ENDBRANCH  30  31
ENDBRANCH  29  30
ENDBRANCH  28  29
ENDBRANCH   1  28
TORSDOF 13
