REMARK  Name = ZINC39682944
REMARK  8 active torsions:
REMARK  status: ('A' for Active; 'I' for Inactive)
REMARK    1  A    between atoms: C_1  and  O_2
REMARK    2  A    between atoms: O_2  and  C_3
REMARK    3  A    between atoms: C_6  and  O_36
REMARK    4  A    between atoms: C_7  and  C_9
REMARK    5  A    between atoms: C_9  and  N_10
REMARK    6  A    between atoms: C_11  and  C_13
REMARK    7  A    between atoms: C_24  and  C_26
REMARK    8  A    between atoms: O_36  and  C_37
REMARK                            x       y       z     vdW  Elec       q    Type
REMARK                         _______ _______ _______ _____ _____    ______ ____
ROOT
ATOM      1  C   UNL     1       4.899  -6.331  -1.185  0.00  0.00    +0.100 C 
ATOM      2  C   UNL     1       4.850  -5.813   0.270  0.00  0.00    +0.121 C 
ATOM      3  N   UNL     1       4.384  -6.973   1.065  0.00  0.00    -0.296 N 
ATOM      4  C   UNL     1       5.075  -8.137   0.459  0.00  0.00    +0.115 C 
ATOM      5  C   UNL     1       5.050  -7.856  -1.057  0.00  0.00    -0.004 C 
ATOM      6  C   UNL     1       6.355  -8.314  -1.701  0.00  0.00    -0.010 C 
ATOM      7  C   UNL     1       6.455  -9.840  -1.612  0.00  0.00    -0.082 C 
ATOM      8  N   UNL     1       5.308 -10.448  -2.297  0.00  0.00    +0.379 N 
ATOM      9  C   UNL     1       4.062 -10.077  -1.615  0.00  0.00    -0.082 C 
ATOM     10  C   UNL     1       3.861  -8.561  -1.704  0.00  0.00    -0.010 C 
ATOM     11  C   UNL     1       3.527  -6.971   2.105  0.00  0.00    +0.247 C 
ATOM     12  O   UNL     1       2.943  -5.949   2.409  0.00  0.00    -0.270 OA
ATOM     13  H   UNL     1       5.277 -10.122  -3.252  0.00  0.00    -0.086 HD
ATOM     14  H   UNL     1       5.407 -11.452  -2.291  0.00  0.00    -0.086 HD
ENDROOT
BRANCH  11  15
ATOM     15  C   UNL     1       3.296  -8.211   2.875  0.00  0.00    +0.037 A 
ATOM     16  C   UNL     1       4.256  -9.238   2.848  0.00  0.00    +0.013 A 
ATOM     17  C   UNL     1       4.068 -10.386   3.546  0.00  0.00    +0.009 A 
ATOM     18  C   UNL     1       2.899 -10.561   4.311  0.00  0.00    -0.018 A 
ATOM     19  C   UNL     1       2.682 -11.740   5.043  0.00  0.00    +0.008 A 
ATOM     20  C   UNL     1       1.542 -11.880   5.774  0.00  0.00    +0.001 A 
ATOM     21  C   UNL     1       0.583 -10.870   5.809  0.00  0.00    +0.001 A 
ATOM     22  C   UNL     1       0.758  -9.714   5.113  0.00  0.00    +0.008 A 
ATOM     23  C   UNL     1       1.924  -9.533   4.347  0.00  0.00    -0.017 A 
ATOM     24  C   UNL     1       2.139  -8.350   3.623  0.00  0.00    +0.021 A 
ENDBRANCH  11  15
BRANCH   1  26
ATOM     25  N   UNL     1       3.610  -5.893  -3.251  0.00  0.00    -0.311 N 
ATOM     26  C   UNL     1       3.620  -5.989  -1.907  0.00  0.00    +0.218 C 
ATOM     27  O   UNL     1       2.600  -5.802  -1.277  0.00  0.00    -0.275 OA
ATOM     28  H   UNL     1       4.426  -6.043  -3.754  0.00  0.00    +0.149 HD
BRANCH  25  29
ATOM     29  C   UNL     1       2.367  -5.560  -3.952  0.00  0.00    +0.143 C 
BRANCH  29  34
ATOM     30  C   UNL     1       3.040  -4.258  -7.435  0.00  0.00    +0.121 A 
ATOM     31  C   UNL     1       3.098  -5.435  -8.165  0.00  0.00    +0.049 A 
ATOM     32  C   UNL     1       2.918  -6.650  -7.533  0.00  0.00    +0.049 A 
ATOM     33  C   UNL     1       2.681  -6.692  -6.167  0.00  0.00    +0.125 A 
ATOM     34  C   UNL     1       2.625  -5.515  -5.436  0.00  0.00    +0.015 A 
ATOM     35  C   UNL     1       2.809  -4.300  -6.068  0.00  0.00    +0.054 A 
BRANCH  30  37
ATOM     36  C   UNL     1       3.450  -3.092  -9.467  0.00  0.00    +0.277 C 
ATOM     37  O   UNL     1       3.217  -3.062  -8.057  0.00  0.00    -0.495 OA
ENDBRANCH  30  37
BRANCH  33  38
ATOM     38  O   UNL     1       2.504  -7.888  -5.544  0.00  0.00    -0.495 OA
ATOM     39  C   UNL     1       2.575  -9.060  -6.358  0.00  0.00    +0.277 C 
ENDBRANCH  33  38
ENDBRANCH  29  34
ENDBRANCH  25  29
ENDBRANCH   1  26
TORSDOF 6
