REMARK  Name = ZINC24092810
REMARK  9 active torsions:
REMARK  status: ('A' for Active; 'I' for Inactive)
REMARK    1  A    between atoms: C_1  and  C_2
REMARK    2  A    between atoms: C_7  and  C_9
REMARK    3  A    between atoms: C_7  and  C_10
REMARK    4  A    between atoms: N_13  and  C_17
REMARK    5  A    between atoms: C_17  and  C_18
REMARK    6  A    between atoms: C_24  and  C_26
REMARK    7  A    between atoms: C_29  and  C_32
REMARK    8  A    between atoms: C_32  and  C_33
REMARK    9  A    between atoms: C_32  and  C_34
REMARK                            x       y       z     vdW  Elec       q    Type
REMARK                         _______ _______ _______ _____ _____    ______ ____
ROOT
ATOM      1  C   UNL     1      -1.431  -5.488  -2.763  0.00  0.00    +0.237 C 
ATOM      2  O   UNL     1      -1.057  -5.765  -1.643  0.00  0.00    -0.274 OA
ATOM      3  N   UNL     1      -1.311  -6.390  -3.757  0.00  0.00    -0.262 N 
ATOM      4  C   UNL     1      -0.758  -7.638  -3.498  0.00  0.00    +0.188 A 
ATOM      5  N   UNL     1      -0.302  -8.126  -2.359  0.00  0.00    -0.125 NA
ATOM      6  N   UNL     1       0.177  -9.292  -2.275  0.00  0.00    -0.140 NA
ATOM      7  C   UNL     1       0.223 -10.046  -3.367  0.00  0.00    +0.134 A 
ATOM      8  S   UNL     1      -0.502  -8.926  -4.556  0.00  0.00    -0.030 S 
ATOM      9  H   UNL     1      -1.611  -6.169  -4.652  0.00  0.00    +0.157 HD
ENDROOT
BRANCH   7  10
ATOM     10  C   UNL     1       0.725 -11.425  -3.547  0.00  0.00    +0.009 A 
ATOM     11  C   UNL     1       0.680 -12.029  -4.804  0.00  0.00    +0.011 A 
ATOM     12  C   UNL     1       1.151 -13.315  -4.965  0.00  0.00    +0.004 A 
ATOM     13  C   UNL     1       1.667 -14.007  -3.883  0.00  0.00    -0.045 A 
ATOM     14  C   UNL     1       1.714 -13.414  -2.634  0.00  0.00    +0.004 A 
ATOM     15  C   UNL     1       1.252 -12.126  -2.461  0.00  0.00    +0.011 A 
BRANCH  13  16
ATOM     16  C   UNL     1       2.179 -15.412  -4.067  0.00  0.00    +0.013 C 
ATOM     17  C   UNL     1       3.659 -15.469  -3.684  0.00  0.00    +0.012 C 
ATOM     18  C   UNL     1       1.384 -16.366  -3.172  0.00  0.00    +0.012 C 
ENDBRANCH  13  16
ENDBRANCH   7  10
BRANCH   1  19
ATOM     19  C   UNL     1      -2.031  -4.134  -3.043  0.00  0.00    +0.214 C 
BRANCH  19  31
ATOM     20  C   UNL     1      -0.019   1.528   0.010  0.00  0.00    +0.007 C 
ATOM     21  C   UNL     1       0.002  -0.004   0.002  0.00  0.00    -0.011 C 
ATOM     22  C   UNL     1      -1.435  -0.529   0.021  0.00  0.00    +0.038 C 
ATOM     23  C   UNL     1      -1.427  -2.050  -0.036  0.00  0.00    +0.113 C 
ATOM     24  C   UNL     1      -0.575  -2.676   1.049  0.00  0.00    +0.041 C 
ATOM     25  C   UNL     1       0.782  -2.031   1.270  0.00  0.00    -0.032 C 
ATOM     26  C   UNL     1       0.719  -0.508   1.253  0.00  0.00    +0.009 C 
ATOM     27  C   UNL     1       1.296  -2.464   2.661  0.00  0.00    +0.011 C 
ATOM     28  C   UNL     1       1.795  -2.526   0.234  0.00  0.00    +0.011 C 
ATOM     29  C   UNL     1      -1.044  -2.534  -1.413  0.00  0.00    +0.247 C 
ATOM     30  O   UNL     1      -0.058  -2.253  -2.060  0.00  0.00    -0.273 OA
ATOM     31  N   UNL     1      -2.050  -3.344  -1.810  0.00  0.00    -0.215 N 
ATOM     32  C   UNL     1      -3.063  -3.331  -0.937  0.00  0.00    +0.310 C 
ATOM     33  O   UNL     1      -4.088  -3.969  -1.082  0.00  0.00    -0.252 OA
ATOM     34  N   UNL     1      -2.817  -2.537   0.119  0.00  0.00    -0.285 N 
ATOM     35  H   UNL     1      -3.418  -2.318   0.845  0.00  0.00    +0.151 HD
ENDBRANCH  19  31
ENDBRANCH   1  19
TORSDOF 4
