REMARK  Name = ZINC08758507
REMARK  7 active torsions:
REMARK  status: ('A' for Active; 'I' for Inactive)
REMARK    1  A    between atoms: C_4  and  N_10
REMARK    2  A    between atoms: C_6  and  N_7
REMARK    3  A    between atoms: C_11  and  C_13
REMARK    4  A    between atoms: C_13  and  O_14
REMARK    5  A    between atoms: O_14  and  C_15
REMARK    6  A    between atoms: C_15  and  C_17
REMARK    7  A    between atoms: C_22  and  N_23
REMARK                            x       y       z     vdW  Elec       q    Type
REMARK                         _______ _______ _______ _____ _____    ______ ____
ROOT
ATOM      1  N   UNL     1       4.572   8.171   0.233  0.00  0.00    -0.281 N 
ATOM      2  C   UNL     1       3.505   7.347   0.227  0.00  0.00    +0.255 C 
ATOM      3  O   UNL     1       2.385   7.803   0.317  0.00  0.00    -0.272 OA
ATOM      4  H   UNL     1       5.461   7.815   0.080  0.00  0.00    +0.155 HD
ENDROOT
BRANCH   1   8
ATOM      5  C   UNL     1       4.048  12.250   0.908  0.00  0.00    +0.034 A 
ATOM      6  C   UNL     1       5.150  11.804   0.202  0.00  0.00    +0.024 A 
ATOM      7  C   UNL     1       5.327  10.452  -0.025  0.00  0.00    +0.062 A 
ATOM      8  C   UNL     1       4.396   9.541   0.460  0.00  0.00    +0.054 A 
ATOM      9  C   UNL     1       3.288   9.993   1.165  0.00  0.00    +0.057 A 
ATOM     10  C   UNL     1       3.121  11.345   1.391  0.00  0.00    +0.128 A 
ATOM     11 CL   UNL     1       6.710   9.893  -0.912  0.00  0.00    -0.082 Cl
BRANCH  10  12
ATOM     12  N   UNL     1       1.943  11.827   2.147  0.00  0.00    +0.056 N 
ATOM     13  O   UNL     1       1.791  13.020   2.343  0.00  0.00    -0.126 OA
ATOM     14  O   UNL     1       1.125  11.031   2.573  0.00  0.00    -0.126 OA
ENDBRANCH  10  12
ENDBRANCH   1   8
BRANCH   2  15
ATOM     15  C   UNL     1       3.704   5.857   0.109  0.00  0.00    +0.328 C 
BRANCH  15  16
ATOM     16  O   UNL     1       2.413   5.194   0.126  0.00  0.00    -0.452 OA
BRANCH  16  17
ATOM     17  C   UNL     1       2.415   3.849   0.028  0.00  0.00    +0.341 C 
ATOM     18  O   UNL     1       3.467   3.249  -0.069  0.00  0.00    -0.245 OA
BRANCH  17  19
ATOM     19  C   UNL     1       1.142   3.108   0.038  0.00  0.00    +0.081 A 
ATOM     20  C   UNL     1      -0.074   3.799   0.038  0.00  0.00    +0.032 A 
ATOM     21  C   UNL     1      -1.261   3.099   0.047  0.00  0.00    +0.019 A 
ATOM     22  C   UNL     1      -1.257   1.712   0.051  0.00  0.00    +0.017 A 
ATOM     23  C   UNL     1      -0.066   1.017   0.058  0.00  0.00    +0.024 A 
ATOM     24  C   UNL     1       1.142   1.705   0.049  0.00  0.00    +0.039 A 
ATOM     25 BR   UNL     1      -2.904   4.035   0.046  0.00  0.00    -0.050 Br
BRANCH  24  26
ATOM     26  N   UNL     1       2.343   1.006   0.049  0.00  0.00    -0.357 N 
ATOM     27  H   UNL     1       2.378   0.102  -0.299  0.00  0.00    +0.142 HD
ATOM     28  H   UNL     1       3.146   1.424   0.397  0.00  0.00    +0.142 HD
ENDBRANCH  24  26
ENDBRANCH  17  19
ENDBRANCH  16  17
ENDBRANCH  15  16
ENDBRANCH   2  15
TORSDOF 7
