REMARK  Name = ZINC39674459
REMARK  10 active torsions:
REMARK  status: ('A' for Active; 'I' for Inactive)
REMARK    1  A    between atoms: C_1  and  C_2
REMARK    2  A    between atoms: C_4  and  C_7
REMARK    3  A    between atoms: C_9  and  C_14
REMARK    4  A    between atoms: C_10  and  C_13
REMARK    5  A    between atoms: C_18  and  C_27
REMARK    6  A    between atoms: N_29  and  C_30
REMARK    7  A    between atoms: C_30  and  C_32
REMARK    8  A    between atoms: C_30  and  C_33
REMARK    9  A    between atoms: C_34  and  C_40
REMARK   10  A    between atoms: C_37  and  C_39
REMARK                            x       y       z     vdW  Elec       q    Type
REMARK                         _______ _______ _______ _____ _____    ______ ____
ROOT
ATOM      1  C   UNL     1      -2.664  -4.450  -3.569  0.00  0.00    +0.247 C 
ATOM      2  O   UNL     1      -2.546  -4.823  -2.416  0.00  0.00    -0.270 OA
ATOM      3  N   UNL     1      -2.953  -3.160  -3.833  0.00  0.00    -0.296 N 
ATOM      4  C   UNL     1      -3.259  -2.081  -2.865  0.00  0.00    +0.121 C 
ATOM      5  C   UNL     1      -2.547  -0.833  -3.434  0.00  0.00    +0.100 C 
ATOM      6  C   UNL     1      -2.405  -1.114  -4.939  0.00  0.00    -0.004 C 
ATOM      7  C   UNL     1      -3.030  -2.499  -5.159  0.00  0.00    +0.115 C 
ATOM      8  C   UNL     1      -3.158  -0.060  -5.746  0.00  0.00    -0.010 C 
ATOM      9  C   UNL     1      -2.954  -0.327  -7.240  0.00  0.00    -0.082 C 
ATOM     10  N   UNL     1      -1.521  -0.283  -7.556  0.00  0.00    +0.379 N 
ATOM     11  C   UNL     1      -0.819  -1.359  -6.847  0.00  0.00    -0.082 C 
ATOM     12  C   UNL     1      -0.932  -1.136  -5.336  0.00  0.00    -0.010 C 
ATOM     13  H   UNL     1      -1.394  -0.398  -8.551  0.00  0.00    -0.086 HD
ATOM     14  H   UNL     1      -1.143   0.608  -7.273  0.00  0.00    -0.086 HD
ENDROOT
BRANCH   1  16
ATOM     15  C   UNL     1      -2.758  -5.106  -6.097  0.00  0.00    +0.237 C 
ATOM     16  C   UNL     1      -2.497  -5.369  -4.631  0.00  0.00    +0.072 C 
ATOM     17  C   UNL     1      -2.077  -6.645  -4.526  0.00  0.00    +0.047 C 
ATOM     18  N   UNL     1      -2.032  -7.244  -5.746  0.00  0.00    -0.269 N 
ATOM     19  O   UNL     1      -2.442  -6.340  -6.758  0.00  0.00    -0.260 OA
ATOM     20  C   UNL     1      -1.705  -7.318  -3.230  0.00  0.00    +0.066 C 
ATOM     21  H   UNL     1      -1.758  -8.161  -5.902  0.00  0.00    +0.194 HD
BRANCH  15  25
ATOM     22  C   UNL     1      -6.954  -2.727  -7.736  0.00  0.00    +0.089 C 
ATOM     23  C   UNL     1      -6.031  -3.696  -7.044  0.00  0.00    +0.135 A 
ATOM     24  C   UNL     1      -4.685  -3.682  -7.096  0.00  0.00    +0.073 A 
ATOM     25  C   UNL     1      -4.206  -4.750  -6.316  0.00  0.00    +0.120 A 
ATOM     26  N   UNL     1      -5.232  -5.377  -5.816  0.00  0.00    -0.080 NA
ATOM     27  O   UNL     1      -6.405  -4.720  -6.262  0.00  0.00    -0.360 OA
ENDBRANCH  15  25
ENDBRANCH   1  16
BRANCH   5  28
ATOM     28  C   UNL     1      -3.384   0.399  -3.204  0.00  0.00    +0.219 C 
ATOM     29  O   UNL     1      -4.593   0.331  -3.267  0.00  0.00    -0.275 OA
ATOM     30  N   UNL     1      -2.789   1.576  -2.927  0.00  0.00    -0.309 N 
ATOM     31  H   UNL     1      -1.822   1.648  -2.952  0.00  0.00    +0.149 HD
BRANCH  30  32
ATOM     32  C   UNL     1      -3.602   2.747  -2.589  0.00  0.00    +0.100 C 
ATOM     33  C   UNL     1      -3.045   3.407  -1.326  0.00  0.00    +0.033 C 
BRANCH  32  34
ATOM     34  C   UNL     1      -3.564   3.731  -3.729  0.00  0.00    -0.001 C 
ATOM     35  C   UNL     1      -4.593   4.237  -4.413  0.00  0.00    +0.063 C 
ATOM     36  N   UNL     1      -4.161   5.093  -5.366  0.00  0.00    -0.159 NA
ATOM     37  N   UNL     1      -2.936   5.232  -5.412  0.00  0.00    -0.180 NA
ATOM     38  C   UNL     1      -2.348   4.384  -4.361  0.00  0.00    +0.154 C 
ATOM     39  C   UNL     1      -1.425   3.329  -4.974  0.00  0.00    +0.039 C 
ATOM     40  C   UNL     1      -6.039   3.899  -4.159  0.00  0.00    +0.067 C 
ENDBRANCH  32  34
ENDBRANCH  30  32
ENDBRANCH   5  28
TORSDOF 5
