REMARK  Name = ZINC04260771
REMARK  8 active torsions:
REMARK  status: ('A' for Active; 'I' for Inactive)
REMARK    1  A    between atoms: C_1  and  S_2
REMARK    2  A    between atoms: S_2  and  N_5
REMARK    3  A    between atoms: C_10  and  C_12
REMARK    4  A    between atoms: N_14  and  C_15
REMARK    5  A    between atoms: C_15  and  C_17
REMARK    6  A    between atoms: C_15  and  C_24
REMARK    7  A    between atoms: C_17  and  C_18
REMARK    8  A    between atoms: C_27  and  C_29
REMARK                            x       y       z     vdW  Elec       q    Type
REMARK                         _______ _______ _______ _____ _____    ______ ____
ROOT
ATOM      1  N   UNL     1       1.191   6.835  -0.380  0.00  0.00    -0.167 NA
ATOM      2  C   UNL     1       2.107   7.960  -0.144  0.00  0.00    +0.129 C 
ATOM      3  C   UNL     1       2.910   8.216  -1.425  0.00  0.00    +0.125 C 
ATOM      4  N   UNL     1       3.464   6.938  -1.894  0.00  0.00    -0.298 N 
ATOM      5  C   UNL     1       2.549   5.813  -2.130  0.00  0.00    +0.137 C 
ATOM      6  C   UNL     1       1.746   5.557  -0.849  0.00  0.00    +0.182 C 
ATOM      7  C   UNL     1       4.788   6.801  -2.105  0.00  0.00    +0.219 C 
ATOM      8  O   UNL     1       5.223   5.777  -2.589  0.00  0.00    -0.275 OA
ENDROOT
BRANCH   7   9
ATOM      9  C   UNL     1       5.729   7.920  -1.739  0.00  0.00    +0.072 C 
ATOM     10  C   UNL     1       5.622   9.039  -2.779  0.00  0.00    -0.007 C 
ATOM     11  C   UNL     1       6.622  10.145  -2.436  0.00  0.00    -0.082 C 
ATOM     12  C   UNL     1       8.123   8.547  -1.403  0.00  0.00    -0.082 C 
ATOM     13  C   UNL     1       7.167   7.393  -1.715  0.00  0.00    -0.007 C 
ATOM     14  N   UNL     1       7.991   9.594  -2.434  0.00  0.00    +0.379 N 
ATOM     15  H   UNL     1       8.659  10.349  -2.237  0.00  0.00    -0.086 HD
ATOM     16  H   UNL     1       8.194   9.190  -3.356  0.00  0.00    -0.086 HD
ENDBRANCH   7   9
BRANCH   1  18
ATOM     17  C   UNL     1      -0.683   6.531   1.613  0.00  0.00    +0.215 C 
ATOM     18  S   UNL     1      -0.436   7.003  -0.121  0.00  0.00    +0.030 S 
ATOM     19  O   UNL     1      -0.688   8.391  -0.292  0.00  0.00    -0.158 OA
ATOM     20  O   UNL     1      -1.040   6.045  -0.980  0.00  0.00    -0.158 OA
ENDBRANCH   1  18
BRANCH   6  21
ATOM     21  C   UNL     1       2.651   4.980   0.208  0.00  0.00    +0.234 C 
ATOM     22  O   UNL     1       2.819   5.573   1.253  0.00  0.00    -0.274 OA
ATOM     23  N   UNL     1       3.274   3.804  -0.006  0.00  0.00    -0.303 N 
ATOM     24  H   UNL     1       3.139   3.329  -0.841  0.00  0.00    +0.149 HD
BRANCH  23  25
ATOM     25  C   UNL     1       4.154   3.243   1.022  0.00  0.00    +0.159 C 
BRANCH  25  26
ATOM     26  C   UNL     1       5.533   3.834   0.880  0.00  0.00    +0.231 C 
ATOM     27  O   UNL     1       5.758   4.644   0.006  0.00  0.00    -0.274 OA
ATOM     28  N   UNL     1       6.515   3.462   1.724  0.00  0.00    -0.328 N 
ATOM     29  H   UNL     1       6.335   2.814   2.423  0.00  0.00    +0.145 HD
ATOM     30  H   UNL     1       7.403   3.842   1.633  0.00  0.00    +0.145 HD
ENDBRANCH  25  26
BRANCH  25  31
ATOM     31  C   UNL     1       4.230   1.724   0.854  0.00  0.00    +0.035 C 
BRANCH  31  32
ATOM     32  C   UNL     1       2.854   1.111   1.123  0.00  0.00    -0.009 C 
ATOM     33  C   UNL     1       2.888  -0.383   0.796  0.00  0.00    +0.003 C 
ATOM     34  C   UNL     1       1.512  -0.996   1.065  0.00  0.00    +0.000 C 
ATOM     35  C   UNL     1       1.147  -0.804   2.538  0.00  0.00    +0.000 C 
ATOM     36  C   UNL     1       1.113   0.691   2.865  0.00  0.00    +0.000 C 
ATOM     37  C   UNL     1       2.489   1.303   2.596  0.00  0.00    +0.003 C 
ENDBRANCH  31  32
ENDBRANCH  25  31
ENDBRANCH  23  25
ENDBRANCH   6  21
TORSDOF 7
