REMARK  Name = ZINC35074946
REMARK  7 active torsions:
REMARK  status: ('A' for Active; 'I' for Inactive)
REMARK    1  A    between atoms: C_1  and  C_2
REMARK    2  A    between atoms: C_2  and  C_3
REMARK    3  A    between atoms: C_3  and  C_4
REMARK    4  A    between atoms: C_4  and  O_5
REMARK    5  A    between atoms: O_5  and  C_6
REMARK    6  A    between atoms: C_12  and  C_29
REMARK    7  A    between atoms: C_23  and  C_28
REMARK                            x       y       z     vdW  Elec       q    Type
REMARK                         _______ _______ _______ _____ _____    ______ ____
ROOT
ATOM      1  C   UNL     1       1.297  -3.934  -2.734  0.00  0.00    +0.159 C 
ATOM      2  C   UNL     1       2.055  -4.424  -1.423  0.00  0.00    +0.107 C 
ATOM      3  C   UNL     1       3.326  -3.700  -1.486  0.00  0.00    +0.024 C 
ATOM      4  C   UNL     1       3.648  -3.662  -3.026  0.00  0.00    +0.004 C 
ATOM      5  C   UNL     1       2.409  -4.285  -3.714  0.00  0.00    +0.020 C 
ATOM      6  C   UNL     1       2.145  -3.857  -5.122  0.00  0.00    +0.012 C 
ATOM      7  C   UNL     1       2.334  -2.358  -5.327  0.00  0.00    +0.005 C 
ATOM      8  C   UNL     1       3.756  -1.984  -4.903  0.00  0.00    -0.001 C 
ATOM      9  C   UNL     1       3.920  -2.213  -3.388  0.00  0.00    -0.004 C 
ATOM     10  C   UNL     1       5.345  -1.842  -2.956  0.00  0.00    +0.004 C 
ATOM     11  C   UNL     1       5.592  -0.359  -3.239  0.00  0.00    +0.004 C 
ATOM     12  C   UNL     1       4.339   0.257  -3.863  0.00  0.00    -0.005 C 
ATOM     13  C   UNL     1       4.000  -0.504  -5.208  0.00  0.00    -0.026 C 
ATOM     14  C   UNL     1       2.744   0.101  -5.836  0.00  0.00    +0.007 C 
ATOM     15  C   UNL     1       2.984   1.582  -6.134  0.00  0.00    +0.001 C 
ATOM     16  C   UNL     1       3.312   2.319  -4.834  0.00  0.00    +0.000 C 
ATOM     17  C   UNL     1       4.586   1.740  -4.149  0.00  0.00    +0.004 C 
ATOM     18  C   UNL     1       5.175  -0.371  -6.180  0.00  0.00    +0.012 C 
ATOM     19  C   UNL     1       2.566  -5.807  -3.719  0.00  0.00    +0.016 C 
ATOM     20  S   UNL     1       0.656  -4.196  -0.326  0.00  0.00    -0.085 S 
ATOM     21  C   UNL     1      -0.581  -4.729  -1.527  0.00  0.00    +0.128 C 
ATOM     22  N   UNL     1       0.020  -4.601  -2.702  0.00  0.00    -0.339 N 
ATOM     23  N   UNL     1      -1.857  -5.178  -1.276  0.00  0.00    -0.339 N 
ATOM     24  H   UNL     1      -2.181  -5.233  -0.364  0.00  0.00    +0.144 HD
ATOM     25  H   UNL     1      -2.433  -5.439  -2.012  0.00  0.00    +0.144 HD
ATOM     26  H   UNL     1      -0.396  -4.932  -3.513  0.00  0.00    +0.164 HD
ENDROOT
BRANCH   1  27
ATOM     27  O   UNL     1       1.111  -2.518  -2.692  0.00  0.00    -0.353 OA
BRANCH  27  28
ATOM     28  C   UNL     1      -0.022  -2.103  -1.926  0.00  0.00    +0.163 C 
BRANCH  28  29
ATOM     29  C   UNL     1      -0.223  -0.595  -2.089  0.00  0.00    +0.028 C 
BRANCH  29  31
ATOM     30  C   UNL     1      -1.637   1.357  -1.432  0.00  0.00    +0.004 C 
ATOM     31  C   UNL     1      -1.436  -0.151  -1.269  0.00  0.00    -0.001 C 
ENDBRANCH  29  31
ENDBRANCH  28  29
ENDBRANCH  27  28
ENDBRANCH   1  27
TORSDOF 4
