REMARK  Name = ZINC38638345
REMARK  10 active torsions:
REMARK  status: ('A' for Active; 'I' for Inactive)
REMARK    1  A    between atoms: C_1  and  C_2
REMARK    2  A    between atoms: C_2  and  C_3
REMARK    3  A    between atoms: C_3  and  N_5
REMARK    4  A    between atoms: C_3  and  N_15
REMARK    5  A    between atoms: N_5  and  C_6
REMARK    6  A    between atoms: C_11  and  C_14
REMARK    7  A    between atoms: C_16  and  C_18
REMARK    8  A    between atoms: C_20  and  N_35
REMARK    9  A    between atoms: C_23  and  N_24
REMARK   10  A    between atoms: N_35  and  C_36
REMARK                            x       y       z     vdW  Elec       q    Type
REMARK                         _______ _______ _______ _____ _____    ______ ____
ROOT
ATOM      1  C   UNL     1       1.903  -4.097  -1.560  0.00  0.00    +0.060 A 
ATOM      2  C   UNL     1       0.782  -4.808  -1.147  0.00  0.00    +0.038 A 
ATOM      3  C   UNL     1       0.781  -6.202  -1.180  0.00  0.00    +0.039 A 
ATOM      4  C   UNL     1       1.911  -6.894  -1.631  0.00  0.00    +0.056 A 
ATOM      5  C   UNL     1       3.050  -6.180  -2.052  0.00  0.00    +0.056 A 
ATOM      6  C   UNL     1       3.044  -4.781  -2.022  0.00  0.00    +0.049 A 
ATOM      7  C   UNL     1       4.240  -6.904  -2.527  0.00  0.00    +0.196 C 
ATOM      8  O   UNL     1       5.223  -6.287  -2.890  0.00  0.00    -0.287 OA
ATOM      9  C   UNL     1       4.240  -8.381  -2.562  0.00  0.00    +0.033 A 
ATOM     10  C   UNL     1       5.362  -9.074  -3.009  0.00  0.00    +0.012 A 
ATOM     11  C   UNL     1       5.353 -10.457  -3.037  0.00  0.00    +0.001 A 
ATOM     12  C   UNL     1       4.234 -11.159  -2.625  0.00  0.00    +0.001 A 
ATOM     13  C   UNL     1       3.111 -10.487  -2.178  0.00  0.00    +0.012 A 
ATOM     14  C   UNL     1       3.104  -9.095  -2.142  0.00  0.00    +0.033 A 
ATOM     15  C   UNL     1       1.909  -8.368  -1.666  0.00  0.00    +0.196 C 
ATOM     16  O   UNL     1       0.926  -8.985  -1.302  0.00  0.00    -0.287 OA
ENDROOT
BRANCH   1  18
ATOM     17  N   UNL     1       0.770  -1.962  -1.174  0.00  0.00    -0.325 N 
ATOM     18  C   UNL     1       1.894  -2.620  -1.521  0.00  0.00    +0.244 C 
ATOM     19  O   UNL     1       2.900  -1.999  -1.802  0.00  0.00    -0.270 OA
ATOM     20  H   UNL     1      -0.033  -2.457  -0.950  0.00  0.00    +0.147 HD
BRANCH  17  21
ATOM     21  C   UNL     1       0.762  -0.497  -1.136  0.00  0.00    +0.016 C 
BRANCH  21  22
ATOM     22  N   UNL     1       0.037   0.019  -2.304  0.00  0.00    +0.393 N 
ATOM     23  H   UNL     1      -0.885  -0.388  -2.335  0.00  0.00    -0.083 HD
ATOM     24  H   UNL     1      -0.040   1.023  -2.236  0.00  0.00    -0.083 HD
BRANCH  22  25
ATOM     25  C   UNL     1       0.769  -0.333  -3.529  0.00  0.00    -0.069 C 
ATOM     26  C   UNL     1       2.120   0.385  -3.540  0.00  0.00    -0.016 C 
ATOM     27  C   UNL     1       2.881   0.018  -4.815  0.00  0.00    -0.001 C 
ATOM     28  C   UNL     1       2.066   0.446  -6.037  0.00  0.00    +0.003 C 
ATOM     29  C   UNL     1       0.715  -0.272  -6.026  0.00  0.00    -0.016 C 
ATOM     30  C   UNL     1      -0.046   0.095  -4.751  0.00  0.00    -0.013 C 
ATOM     31  C   UNL     1      -0.100   0.156  -7.248  0.00  0.00    +0.007 C 
ENDBRANCH  22  25
ENDBRANCH  21  22
BRANCH  21  33
ATOM     32  C   UNL     1       0.060   1.505   0.184  0.00  0.00    +0.004 C 
ATOM     33  C   UNL     1       0.069  -0.025   0.144  0.00  0.00    -0.001 C 
ENDBRANCH  21  33
ENDBRANCH  17  21
ENDBRANCH   1  18
BRANCH   6  34
ATOM     34  N   UNL     1       4.155  -4.074  -2.438  0.00  0.00    -0.357 N 
ATOM     35  H   UNL     1       4.395  -3.244  -1.995  0.00  0.00    +0.142 HD
ATOM     36  H   UNL     1       4.694  -4.406  -3.172  0.00  0.00    +0.142 HD
ENDBRANCH   6  34
BRANCH   3  37
ATOM     37  N   UNL     1      -0.342  -6.904  -0.765  0.00  0.00    -0.346 N 
ATOM     38  C   UNL     1      -1.571  -6.183  -0.425  0.00  0.00    +0.125 C 
ATOM     39  H   UNL     1      -0.312  -7.871  -0.700  0.00  0.00    +0.146 HD
ENDBRANCH   3  37
TORSDOF 7
