REMARK  Name = ZINC08627196
REMARK  13 active torsions:
REMARK  status: ('A' for Active; 'I' for Inactive)
REMARK    1  A    between atoms: C_1  and  N_2
REMARK    2  A    between atoms: N_2  and  C_3
REMARK    3  A    between atoms: N_2  and  C_4
REMARK    4  A    between atoms: C_7  and  C_10
REMARK    5  A    between atoms: N_12  and  C_13
REMARK    6  A    between atoms: C_13  and  C_14
REMARK    7  A    between atoms: C_16  and  O_35
REMARK    8  A    between atoms: C_18  and  O_34
REMARK    9  A    between atoms: C_20  and  C_23
REMARK   10  A    between atoms: C_23  and  C_24
REMARK   11  A    between atoms: N_26  and  C_27
REMARK   12  A    between atoms: C_27  and  C_28
REMARK   13  A    between atoms: C_28  and  N_66
REMARK                            x       y       z     vdW  Elec       q    Type
REMARK                         _______ _______ _______ _____ _____    ______ ____
ROOT
ATOM      1  C   UNL     1      -0.776   1.637  -1.213  0.00  0.00    +0.167 C 
ATOM      2  C   UNL     1       0.024   1.099  -0.006  0.00  0.00    +0.176 C 
ATOM      3  C   UNL     1      -0.739   1.638   1.224  0.00  0.00    +0.175 C 
ATOM      4  C   UNL     1      -1.913   2.438   0.617  0.00  0.00    +0.158 C 
ATOM      5  O   UNL     1      -2.108   1.868  -0.696  0.00  0.00    -0.366 OA
ENDROOT
BRANCH   3   6
ATOM      6  O   UNL     1       0.102   2.494   2.000  0.00  0.00    -0.387 OA
ATOM      7  H   UNL     1       0.887   2.057   2.355  0.00  0.00    +0.210 HD
ENDBRANCH   3   6
BRANCH   2   8
ATOM      8  O   UNL     1       1.361   1.604  -0.027  0.00  0.00    -0.387 OA
ATOM      9  H   UNL     1       1.899   1.321   0.725  0.00  0.00    +0.210 HD
ENDBRANCH   2   8
BRANCH   1  10
ATOM     10  C   UNL     1      -0.810   0.598  -2.336  0.00  0.00    +0.138 C 
BRANCH  10  13
ATOM     11  C   UNL     1      -1.614   0.431  -4.630  0.00  0.00    +0.244 C 
ATOM     12  O   UNL     1      -1.198  -0.711  -4.662  0.00  0.00    -0.270 OA
ATOM     13  N   UNL     1      -1.469   1.171  -3.512  0.00  0.00    -0.309 N 
ATOM     14  H   UNL     1      -1.801   2.082  -3.486  0.00  0.00    +0.149 HD
BRANCH  11  18
ATOM     15  C   UNL     1      -3.524   2.092  -8.040  0.00  0.00    +0.029 A 
ATOM     16  C   UNL     1      -3.049   0.784  -8.078  0.00  0.00    +0.024 A 
ATOM     17  C   UNL     1      -2.429   0.243  -6.974  0.00  0.00    +0.015 A 
ATOM     18  C   UNL     1      -2.278   1.008  -5.814  0.00  0.00    +0.037 A 
ATOM     19  C   UNL     1      -2.761   2.319  -5.777  0.00  0.00    +0.015 A 
ATOM     20  C   UNL     1      -3.375   2.857  -6.886  0.00  0.00    +0.024 A 
BRANCH  15  22
ATOM     21  C   UNL     1      -4.196   1.880 -10.410  0.00  0.00    +0.129 C 
ATOM     22  N   UNL     1      -4.149   2.636  -9.156  0.00  0.00    -0.336 N 
ATOM     23  C   UNL     1      -4.762   3.964  -9.078  0.00  0.00    +0.129 C 
ENDBRANCH  15  22
ENDBRANCH  11  18
ENDBRANCH  10  13
ENDBRANCH   1  10
BRANCH   4  24
ATOM     24  C   UNL     1      -3.174   2.261   1.467  0.00  0.00    +0.130 C 
BRANCH  24  25
ATOM     25  C   UNL     1      -4.270   3.144   0.928  0.00  0.00    +0.216 C 
ATOM     26  O   UNL     1      -4.064   3.845  -0.040  0.00  0.00    -0.276 OA
ATOM     27  N   UNL     1      -5.480   3.154   1.523  0.00  0.00    -0.317 N 
ATOM     28  H   UNL     1      -5.645   2.594   2.297  0.00  0.00    +0.149 HD
BRANCH  27  29
ATOM     29  C   UNL     1      -6.546   4.012   0.999  0.00  0.00    +0.085 C 
BRANCH  29  30
ATOM     30  C   UNL     1      -7.806   3.836   1.849  0.00  0.00    -0.060 C 
BRANCH  30  36
ATOM     31  C   UNL     1      -8.540   6.117   1.497  0.00  0.00    -0.050 C 
ATOM     32  C   UNL     1      -9.649   6.976   0.885  0.00  0.00    +0.141 C 
ATOM     33  O   UNL     1     -10.899   6.636   1.493  0.00  0.00    -0.383 OA
ATOM     34  C   UNL     1     -11.256   5.259   1.343  0.00  0.00    +0.141 C 
ATOM     35  C   UNL     1     -10.163   4.383   1.960  0.00  0.00    -0.050 C 
ATOM     36  N   UNL     1      -8.878   4.693   1.297  0.00  0.00    +0.384 N 
ATOM     37  H   UNL     1      -8.967   4.509   0.291  0.00  0.00    -0.082 HD
ENDBRANCH  30  36
ENDBRANCH  29  30
ENDBRANCH  27  29
ENDBRANCH  24  25
ENDBRANCH   4  24
TORSDOF 11
