REMARK  Name = ZINC04133125
REMARK  3 active torsions:
REMARK  status: ('A' for Active; 'I' for Inactive)
REMARK    1  A    between atoms: C_2  and  C_10
REMARK    2  A    between atoms: C_5  and  O_8
REMARK    3  A    between atoms: N_11  and  N_12
REMARK                            x       y       z     vdW  Elec       q    Type
REMARK                         _______ _______ _______ _____ _____    ______ ____
ROOT
ATOM      1  N   UNL     1      -2.446  -2.777   0.011  0.00  0.00    -0.205 N 
ATOM      2  C   UNL     1      -2.425  -4.158   0.004  0.00  0.00    +0.241 A 
ATOM      3  N   UNL     1      -1.264  -4.805  -0.017  0.00  0.00    -0.180 NA
ATOM      4  C   UNL     1      -1.244  -6.134  -0.020  0.00  0.00    +0.224 A 
ATOM      5  N   UNL     1      -2.385  -6.816  -0.012  0.00  0.00    -0.181 NA
ATOM      6  C   UNL     1      -3.546  -6.169   0.004  0.00  0.00    +0.224 A 
ATOM      7  N   UNL     1      -3.566  -4.840   0.011  0.00  0.00    -0.180 NA
ATOM      8  N   UNL     1      -4.731  -6.878   0.012  0.00  0.00    -0.299 N 
ATOM      9  C   UNL     1      -4.798  -7.803  -1.127  0.00  0.00    +0.108 C 
ATOM     10  C   UNL     1      -6.052  -8.671  -1.006  0.00  0.00    +0.019 C 
ATOM     11  C   UNL     1      -7.290  -7.771  -0.982  0.00  0.00    +0.003 C 
ATOM     12  C   UNL     1      -7.172  -6.785   0.184  0.00  0.00    +0.019 C 
ATOM     13  C   UNL     1      -5.886  -5.971   0.029  0.00  0.00    +0.108 C 
ATOM     14  N   UNL     1      -0.038  -6.806  -0.036  0.00  0.00    -0.299 N 
ATOM     15  C   UNL     1       0.058  -7.742   1.091  0.00  0.00    +0.108 C 
ATOM     16  C   UNL     1       1.338  -8.571   0.960  0.00  0.00    +0.019 C 
ATOM     17  C   UNL     1       2.548  -7.633   0.946  0.00  0.00    +0.003 C 
ATOM     18  C   UNL     1       2.400  -6.637  -0.207  0.00  0.00    +0.019 C 
ATOM     19  C   UNL     1       1.089  -5.865  -0.042  0.00  0.00    +0.108 C 
ATOM     20  H   UNL     1      -3.293  -2.305   0.022  0.00  0.00    +0.177 HD
ENDROOT
BRANCH   1  22
ATOM     21  C   UNL     1      -1.263  -0.761   0.011  0.00  0.00    +0.138 C 
ATOM     22  N   UNL     1      -1.244  -2.058   0.003  0.00  0.00    -0.188 NA
BRANCH  21  24
ATOM     23  C   UNL     1      -0.017   1.393   0.010  0.00  0.00    +0.028 A 
ATOM     24  C   UNL     1       0.002  -0.004   0.002  0.00  0.00    -0.003 A 
ATOM     25  C   UNL     1       1.224  -0.682  -0.013  0.00  0.00    +0.028 A 
ATOM     26  C   UNL     1       2.405   0.029  -0.021  0.00  0.00    +0.061 A 
ATOM     27  C   UNL     1       2.381   1.419  -0.013  0.00  0.00    +0.145 A 
ATOM     28  C   UNL     1       1.169   2.097   0.002  0.00  0.00    +0.061 A 
ATOM     29 BR   UNL     1       1.145   3.988   0.013  0.00  0.00    -0.046 Br
ATOM     30 BR   UNL     1       4.059  -0.887  -0.042  0.00  0.00    -0.046 Br
BRANCH  27  31
ATOM     31  O   UNL     1       3.548   2.116  -0.021  0.00  0.00    -0.505 OA
ATOM     32  H   UNL     1       3.877   2.322  -0.906  0.00  0.00    +0.292 HD
ENDBRANCH  27  31
ENDBRANCH  21  24
ENDBRANCH   1  22
TORSDOF 3
