REMARK  Name = ZINC03830631
REMARK  12 active torsions:
REMARK  status: ('A' for Active; 'I' for Inactive)
REMARK    1  A    between atoms: C_1  and  C_2
REMARK    2  A    between atoms: C_4  and  O_43
REMARK    3  A    between atoms: C_6  and  N_42
REMARK    4  A    between atoms: C_9  and  O_12
REMARK    5  A    between atoms: O_12  and  C_13
REMARK    6  A    between atoms: C_16  and  C_38
REMARK    7  A    between atoms: C_16  and  O_41
REMARK    8  A    between atoms: C_20  and  O_37
REMARK    9  A    between atoms: C_23  and  O_24
REMARK   10  A    between atoms: C_31  and  O_35
REMARK   11  A    between atoms: O_35  and  C_36
REMARK   12  A    between atoms: C_38  and  C_40
REMARK                            x       y       z     vdW  Elec       q    Type
REMARK                         _______ _______ _______ _____ _____    ______ ____
ROOT
ATOM      1  C   UNL     1       3.297  -1.746   1.944  0.00  0.00    +0.158 C 
ATOM      2  C   UNL     1       4.325  -2.803   2.338  0.00  0.00    +0.079 C 
ATOM      3  C   UNL     1       5.700  -2.129   2.426  0.00  0.00    +0.130 C 
ATOM      4  C   UNL     1       5.703  -1.205   3.642  0.00  0.00    +0.082 C 
ATOM      5  C   UNL     1       4.505  -0.291   3.619  0.00  0.00    +0.007 A 
ATOM      6  C   UNL     1       3.401  -0.542   2.845  0.00  0.00    +0.030 A 
ATOM      7  C   UNL     1       2.312   0.339   2.869  0.00  0.00    +0.134 A 
ATOM      8  C   UNL     1       2.339   1.476   3.674  0.00  0.00    +0.078 A 
ATOM      9  C   UNL     1       3.475   1.734   4.468  0.00  0.00    +0.078 A 
ATOM     10  C   UNL     1       4.548   0.849   4.433  0.00  0.00    +0.132 A 
ATOM     11  C   UNL     1       3.519   2.933   5.323  0.00  0.00    +0.198 C 
ATOM     12  O   UNL     1       4.499   3.157   6.008  0.00  0.00    -0.286 OA
ATOM     13  C   UNL     1       2.371   3.863   5.347  0.00  0.00    +0.037 A 
ATOM     14  C   UNL     1       2.404   4.998   6.151  0.00  0.00    +0.012 A 
ATOM     15  C   UNL     1       1.325   5.866   6.170  0.00  0.00    +0.004 A 
ATOM     16  C   UNL     1       0.210   5.617   5.395  0.00  0.00    +0.046 A 
ATOM     17  C   UNL     1       0.156   4.489   4.583  0.00  0.00    +0.132 A 
ATOM     18  C   UNL     1       1.238   3.603   4.554  0.00  0.00    +0.075 A 
ATOM     19  C   UNL     1       1.194   2.403   3.699  0.00  0.00    +0.202 C 
ATOM     20  O   UNL     1       0.214   2.179   3.015  0.00  0.00    -0.286 OA
ENDROOT
BRANCH   3  21
ATOM     21  C   UNL     1       6.771  -3.178   2.582  0.00  0.00    +0.162 C 
ATOM     22  O   UNL     1       6.499  -4.252   3.061  0.00  0.00    -0.295 OA
ATOM     23  C   UNL     1       8.182  -2.885   2.141  0.00  0.00    +0.089 C 
ENDBRANCH   3  21
BRANCH  10  24
ATOM     24  O   UNL     1       5.644   1.090   5.194  0.00  0.00    -0.506 OA
ATOM     25  H   UNL     1       6.321   1.620   4.751  0.00  0.00    +0.292 HD
ENDBRANCH  10  24
BRANCH  17  26
ATOM     26  O   UNL     1      -0.941   4.249   3.822  0.00  0.00    -0.494 OA
ATOM     27  C   UNL     1      -2.006   5.197   3.904  0.00  0.00    +0.277 C 
ENDBRANCH  17  26
BRANCH   7  28
ATOM     28  O   UNL     1       1.223   0.084   2.102  0.00  0.00    -0.506 OA
ATOM     29  H   UNL     1       0.519  -0.391   2.565  0.00  0.00    +0.292 HD
ENDBRANCH   7  28
BRANCH   3  30
ATOM     30  O   UNL     1       5.940  -1.367   1.242  0.00  0.00    -0.381 OA
ATOM     31  H   UNL     1       6.793  -0.913   1.232  0.00  0.00    +0.211 HD
ENDBRANCH   3  30
BRANCH   1  32
ATOM     32  O   UNL     1       1.985  -2.302   2.050  0.00  0.00    -0.343 OA
BRANCH  32  38
ATOM     33  C   UNL     1       0.715  -1.655  -2.474  0.00  0.00    +0.040 C 
ATOM     34  C   UNL     1       0.916  -2.726  -1.400  0.00  0.00    +0.145 C 
ATOM     35  C   UNL     1      -0.398  -3.479  -1.177  0.00  0.00    +0.129 C 
ATOM     36  C   UNL     1      -0.204  -4.508  -0.059  0.00  0.00    -0.039 C 
ATOM     37  C   UNL     1       0.275  -3.787   1.205  0.00  0.00    +0.048 C 
ATOM     38  C   UNL     1       1.563  -3.022   0.890  0.00  0.00    +0.250 C 
ATOM     39  O   UNL     1       1.321  -2.105  -0.178  0.00  0.00    -0.346 OA
BRANCH  36  40
ATOM     40  N   UNL     1      -1.479  -5.185   0.212  0.00  0.00    +0.382 N 
ATOM     41  H   UNL     1      -1.795  -5.654  -0.624  0.00  0.00    -0.090 HD
ATOM     42  H   UNL     1      -1.350  -5.862   0.949  0.00  0.00    -0.090 HD
ATOM     43  H   UNL     1      -2.167  -4.505   0.498  0.00  0.00    -0.090 HD
ENDBRANCH  36  40
BRANCH  35  44
ATOM     44  O   UNL     1      -1.421  -2.554  -0.805  0.00  0.00    -0.391 OA
ATOM     45  H   UNL     1      -1.594  -1.871  -1.467  0.00  0.00    +0.210 HD
ENDBRANCH  35  44
ENDBRANCH  32  38
ENDBRANCH   1  32
TORSDOF 9
