REMARK  Name = ZINC17995255
REMARK  6 active torsions:
REMARK  status: ('A' for Active; 'I' for Inactive)
REMARK    1  A    between atoms: C_1  and  O_2
REMARK    2  A    between atoms: O_2  and  C_3
REMARK    3  A    between atoms: C_7  and  C_10
REMARK    4  A    between atoms: C_8  and  O_9
REMARK    5  A    between atoms: N_18  and  C_21
REMARK    6  A    between atoms: N_30  and  C_31
REMARK                            x       y       z     vdW  Elec       q    Type
REMARK                         _______ _______ _______ _____ _____    ______ ____
ROOT
ATOM      1  C   UNL     1      -2.612  -4.153   0.000  0.00  0.00    +0.161 C 
ATOM      2  C   UNL     1      -2.509  -4.706   1.440  0.00  0.00    +0.146 C 
ATOM      3  C   UNL     1      -3.989  -4.964   1.835  0.00  0.00    +0.249 C 
ATOM      4  C   UNL     1      -4.217  -3.996   2.975  0.00  0.00    +0.259 C 
ATOM      5  O   UNL     1      -5.249  -3.883   3.602  0.00  0.00    -0.272 OA
ATOM      6  N   UNL     1      -3.103  -3.285   3.184  0.00  0.00    -0.208 N 
ATOM      7  C   UNL     1      -2.067  -3.600   2.371  0.00  0.00    +0.235 C 
ATOM      8  O   UNL     1      -0.968  -3.087   2.377  0.00  0.00    -0.274 OA
ATOM      9  O   UNL     1      -4.769  -4.558   0.696  0.00  0.00    -0.257 OA
ATOM     10  N   UNL     1      -3.930  -4.657  -0.455  0.00  0.00    -0.244 N 
ENDROOT
BRANCH   6  11
ATOM     11  C   UNL     1      -3.011  -2.294   4.173  0.00  0.00    +0.045 A 
ATOM     12  C   UNL     1      -2.171  -2.477   5.264  0.00  0.00    +0.025 A 
ATOM     13  C   UNL     1      -2.081  -1.500   6.236  0.00  0.00    +0.023 A 
ATOM     14  C   UNL     1      -2.826  -0.339   6.123  0.00  0.00    +0.059 A 
ATOM     15  C   UNL     1      -3.664  -0.154   5.037  0.00  0.00    +0.061 A 
ATOM     16  C   UNL     1      -3.754  -1.127   4.059  0.00  0.00    +0.045 A 
ATOM     17 CL   UNL     1      -4.598   1.303   4.899  0.00  0.00    -0.082 Cl
ATOM     18 CL   UNL     1      -2.711   0.887   7.347  0.00  0.00    -0.082 Cl
ENDBRANCH   6  11
BRANCH   1  23
ATOM     19  C   UNL     1      -1.360  -0.581  -0.033  0.00  0.00    +0.162 A 
ATOM     20  C   UNL     1      -2.552   0.125   0.011  0.00  0.00    +0.049 A 
ATOM     21  C   UNL     1      -3.755  -0.554   0.050  0.00  0.00    +0.004 A 
ATOM     22  C   UNL     1      -3.773  -1.936   0.046  0.00  0.00    +0.009 A 
ATOM     23  C   UNL     1      -2.588  -2.646   0.003  0.00  0.00    +0.023 A 
ATOM     24  C   UNL     1      -1.378  -1.972  -0.042  0.00  0.00    +0.164 A 
BRANCH  19  26
ATOM     25  C   UNL     1      -0.232   1.513  -0.059  0.00  0.00    +0.277 C 
ATOM     26  O   UNL     1      -0.175   0.086  -0.071  0.00  0.00    -0.491 OA
ENDBRANCH  19  26
BRANCH  24  27
ATOM     27  O   UNL     1      -0.211  -2.669  -0.090  0.00  0.00    -0.503 OA
ATOM     28  H   UNL     1       0.159  -2.877   0.779  0.00  0.00    +0.292 HD
ENDBRANCH  24  27
ENDBRANCH   1  23
BRANCH  10  29
ATOM     29  C   UNL     1      -4.272  -5.135  -1.722  0.00  0.00    +0.065 A 
ATOM     30  C   UNL     1      -3.317  -5.181  -2.729  0.00  0.00    +0.028 A 
ATOM     31  C   UNL     1      -3.658  -5.654  -3.981  0.00  0.00    +0.002 A 
ATOM     32  C   UNL     1      -4.948  -6.083  -4.232  0.00  0.00    +0.000 A 
ATOM     33  C   UNL     1      -5.902  -6.039  -3.231  0.00  0.00    +0.002 A 
ATOM     34  C   UNL     1      -5.566  -5.572  -1.975  0.00  0.00    +0.028 A 
ENDBRANCH  10  29
TORSDOF 5
