REMARK  Name = ZINC09959720
REMARK  8 active torsions:
REMARK  status: ('A' for Active; 'I' for Inactive)
REMARK    1  A    between atoms: C_1  and  C_2
REMARK    2  A    between atoms: C_3  and  C_7
REMARK    3  A    between atoms: C_10  and  S_13
REMARK    4  A    between atoms: N_11  and  N_12
REMARK    5  A    between atoms: S_13  and  C_14
REMARK    6  A    between atoms: C_14  and  C_16
REMARK    7  A    between atoms: C_14  and  C_17
REMARK    8  A    between atoms: C_29  and  C_33
REMARK                            x       y       z     vdW  Elec       q    Type
REMARK                         _______ _______ _______ _____ _____    ______ ____
ROOT
ATOM      1  C   UNL     1       0.969  -5.593  -3.610  0.00  0.00    +0.117 C 
ATOM      2  C   UNL     1       2.083  -6.435  -2.983  0.00  0.00    +0.027 C 
ENDROOT
BRANCH   1   3
ATOM      3  C   UNL     1       0.923  -4.243  -2.941  0.00  0.00    +0.124 A 
ATOM      4  N   UNL     1       0.056  -4.059  -1.916  0.00  0.00    -0.309 N 
ATOM      5  H   UNL     1      -0.507  -4.802  -1.647  0.00  0.00    +0.170 HD
ATOM      6  C   UNL     1      -0.062  -2.886  -1.250  0.00  0.00    +0.260 A 
ATOM      7  O   UNL     1      -0.849  -2.739  -0.330  0.00  0.00    -0.267 OA
ATOM      8  C   UNL     1       0.798  -1.827  -1.696  0.00  0.00    +0.075 A 
ATOM      9  C   UNL     1       0.872  -0.480  -1.159  0.00  0.00    -0.023 A 
ATOM     10  C   UNL     1       1.763   0.357  -1.739  0.00  0.00    -0.004 A 
ATOM     11  S   UNL     1       2.537  -0.601  -3.017  0.00  0.00    -0.073 S 
ATOM     12  C   UNL     1       1.667  -2.117  -2.771  0.00  0.00    +0.116 A 
ATOM     13  N   UNL     1       1.726  -3.299  -3.378  0.00  0.00    -0.225 NA
ATOM     14  C   UNL     1       2.034   1.785  -1.377  0.00  0.00    +0.046 C 
ATOM     15  C   UNL     1       1.415   2.064  -0.000  0.00  0.00    -0.009 C 
ATOM     16  C   UNL     1      -0.019   1.524   0.010  0.00  0.00    +0.008 C 
ATOM     17  C   UNL     1       0.002  -0.004   0.002  0.00  0.00    +0.037 C 
ATOM     18  C   UNL     1       1.398   3.572   0.259  0.00  0.00    +0.008 C 
ENDBRANCH   1   3
BRANCH   1  19
ATOM     19  S   UNL     1       1.296  -5.379  -5.377  0.00  0.00    -0.074 S 
BRANCH  19  23
ATOM     20  C   UNL     1       1.094  -8.861  -7.140  0.00  0.00    +0.185 A 
ATOM     21  N   UNL     1       0.841  -9.156  -5.886  0.00  0.00    -0.127 NA
ATOM     22  N   UNL     1       0.879  -8.091  -5.168  0.00  0.00    -0.121 NA
ATOM     23  C   UNL     1       1.148  -7.049  -5.920  0.00  0.00    +0.209 A 
ATOM     24  N   UNL     1       1.298  -7.502  -7.201  0.00  0.00    -0.224 N 
BRANCH  20  27
ATOM     25  C   UNL     1       0.638 -11.959  -6.992  0.00  0.00    +0.087 C 
ATOM     26  C   UNL     1       0.954 -11.155  -8.228  0.00  0.00    +0.112 A 
ATOM     27  C   UNL     1       1.149  -9.810  -8.273  0.00  0.00    +0.061 A 
ATOM     28  C   UNL     1       1.431  -9.496  -9.680  0.00  0.00    +0.053 A 
ATOM     29  C   UNL     1       1.375 -10.665 -10.339  0.00  0.00    +0.196 A 
ATOM     30  O   UNL     1       1.089 -11.645  -9.469  0.00  0.00    -0.467 OA
ENDBRANCH  20  27
BRANCH  24  31
ATOM     31  N   UNL     1       1.591  -6.760  -8.310  0.00  0.00    -0.295 N 
ATOM     32  H   UNL     1       2.588  -6.695  -8.449  0.00  0.00    +0.163 HD
ATOM     33  H   UNL     1       1.135  -7.137  -9.128  0.00  0.00    +0.163 HD
ENDBRANCH  24  31
ENDBRANCH  19  23
ENDBRANCH   1  19
TORSDOF 5
