REMARK  Name = ZINC38602379
REMARK  14 active torsions:
REMARK  status: ('A' for Active; 'I' for Inactive)
REMARK    1  A    between atoms: C_1  and  C_2
REMARK    2  A    between atoms: C_2  and  C_3
REMARK    3  A    between atoms: C_3  and  O_4
REMARK    4  A    between atoms: O_4  and  C_5
REMARK    5  A    between atoms: C_8  and  S_12
REMARK    6  A    between atoms: C_10  and  C_11
REMARK    7  A    between atoms: S_12  and  N_15
REMARK    8  A    between atoms: N_15  and  C_16
REMARK    9  A    between atoms: C_16  and  C_18
REMARK   10  A    between atoms: C_16  and  C_19
REMARK   11  A    between atoms: C_19  and  C_21
REMARK   12  A    between atoms: C_19  and  N_26
REMARK   13  A    between atoms: N_29  and  C_32
REMARK   14  A    between atoms: C_32  and  C_33
REMARK                            x       y       z     vdW  Elec       q    Type
REMARK                         _______ _______ _______ _____ _____    ______ ____
ROOT
ATOM      1  C   UNL     1       0.777  -6.560   7.942  0.00  0.00    +0.112 C 
ENDROOT
BRANCH   1   2
ATOM      2  N   UNL     1      -0.257  -7.602   7.879  0.00  0.00    -0.297 NA
ATOM      3  C   UNL     1      -0.468  -8.214   9.198  0.00  0.00    +0.066 C 
ATOM      4  C   UNL     1      -1.591  -9.250   9.103  0.00  0.00    -0.063 C 
ATOM      5  N   UNL     1      -1.228 -10.278   8.119  0.00  0.00    +0.384 N 
ATOM      6  C   UNL     1      -1.044  -9.654   6.802  0.00  0.00    -0.063 C 
ATOM      7  C   UNL     1       0.084  -8.623   6.878  0.00  0.00    +0.066 C 
ATOM      8  H   UNL     1      -0.368 -10.725   8.402  0.00  0.00    -0.081 HD
BRANCH   5   9
ATOM      9  C   UNL     1      -2.298 -11.281   8.041  0.00  0.00    -0.043 C 
BRANCH   9  10
ATOM     10  C   UNL     1      -1.872 -12.399   7.125  0.00  0.00    -0.064 A 
ATOM     11  C   UNL     1      -2.149 -12.328   5.772  0.00  0.00    +0.002 A 
ATOM     12  C   UNL     1      -1.759 -13.353   4.931  0.00  0.00    +0.000 A 
ATOM     13  C   UNL     1      -1.091 -14.450   5.443  0.00  0.00    +0.000 A 
ATOM     14  C   UNL     1      -0.814 -14.521   6.795  0.00  0.00    +0.000 A 
ATOM     15  C   UNL     1      -1.200 -13.494   7.635  0.00  0.00    +0.002 A 
ENDBRANCH   9  10
ENDBRANCH   5   9
ENDBRANCH   1   2
BRANCH   1  16
ATOM     16  C   UNL     1       0.390  -5.530   8.971  0.00  0.00    +0.008 A 
ATOM     17  C   UNL     1       1.172  -4.889   9.873  0.00  0.00    +0.013 A 
ATOM     18  C   UNL     1       0.594  -3.970  10.729  0.00  0.00    +0.008 A 
ATOM     19  C   UNL     1      -0.739  -3.738  10.641  0.00  0.00    +0.045 A 
ATOM     20  S   UNL     1      -1.217  -4.830   9.313  0.00  0.00    -0.100 S 
ENDBRANCH   1  16
BRANCH   1  21
ATOM     21  C   UNL     1       0.909  -5.889   6.573  0.00  0.00    +0.095 C 
ATOM     22  C   UNL     1      -0.457  -5.360   6.131  0.00  0.00    +0.027 C 
BRANCH  21  23
ATOM     23  N   UNL     1       1.858  -4.777   6.663  0.00  0.00    -0.185 NA
ATOM     24  H   UNL     1       1.906  -4.245   7.473  0.00  0.00    +0.148 HD
BRANCH  23  25
ATOM     25  S   UNL     1       2.849  -4.428   5.383  0.00  0.00    +0.059 S 
ATOM     26  O   UNL     1       3.441  -5.656   4.982  0.00  0.00    -0.153 OA
ATOM     27  O   UNL     1       3.622  -3.298   5.764  0.00  0.00    -0.153 OA
BRANCH  25  31
ATOM     28  C   UNL     1       0.199  -3.091   1.964  0.00  0.00    +0.123 A 
ATOM     29  C   UNL     1       0.692  -2.160   2.866  0.00  0.00    +0.048 A 
ATOM     30  C   UNL     1       1.500  -2.570   3.908  0.00  0.00    +0.032 A 
ATOM     31  C   UNL     1       1.818  -3.908   4.053  0.00  0.00    +0.106 A 
ATOM     32  C   UNL     1       1.328  -4.838   3.155  0.00  0.00    +0.035 A 
ATOM     33  C   UNL     1       0.514  -4.434   2.114  0.00  0.00    -0.007 A 
ATOM     34  C   UNL     1      -0.025  -5.449   1.140  0.00  0.00    +0.047 C 
BRANCH  28  35
ATOM     35  O   UNL     1      -0.597  -2.690   0.938  0.00  0.00    -0.492 OA
BRANCH  35  36
ATOM     36  C   UNL     1      -0.880  -1.293   0.845  0.00  0.00    +0.229 C 
BRANCH  36  38
ATOM     37  C   UNL     1      -2.087   0.462  -0.463  0.00  0.00    +0.007 C 
ATOM     38  C   UNL     1      -1.784  -1.035  -0.363  0.00  0.00    +0.038 C 
ENDBRANCH  36  38
ENDBRANCH  35  36
ENDBRANCH  28  35
ENDBRANCH  25  31
ENDBRANCH  23  25
ENDBRANCH  21  23
ENDBRANCH   1  21
TORSDOF 11
