REMARK  Name = ZINC09226700
REMARK  10 active torsions:
REMARK  status: ('A' for Active; 'I' for Inactive)
REMARK    1  A    between atoms: C_1  and  C_2
REMARK    2  A    between atoms: C_5  and  C_8
REMARK    3  A    between atoms: C_10  and  C_29
REMARK    4  A    between atoms: C_11  and  C_28
REMARK    5  A    between atoms: C_17  and  C_18
REMARK    6  A    between atoms: N_20  and  C_21
REMARK    7  A    between atoms: C_25  and  C_27
REMARK    8  A    between atoms: N_31  and  C_32
REMARK    9  A    between atoms: C_35  and  C_39
REMARK   10  A    between atoms: C_37  and  C_38
REMARK                            x       y       z     vdW  Elec       q    Type
REMARK                         _______ _______ _______ _____ _____    ______ ____
ROOT
ATOM      1  C   UNL     1      -8.432   0.629   0.588  0.00  0.00    +0.176 C 
ATOM      2  C   UNL     1      -8.737   2.069   0.899  0.00  0.00    +0.060 C 
ATOM      3  C   UNL     1      -7.829   3.051   0.799  0.00  0.00    +0.017 C 
ATOM      4  N   UNL     1      -6.534   2.808   0.410  0.00  0.00    -0.302 N 
ATOM      5  C   UNL     1      -6.117   1.489   0.382  0.00  0.00    +0.134 A 
ATOM      6  N   UNL     1      -6.984   0.450   0.464  0.00  0.00    -0.238 N 
ATOM      7  N   UNL     1      -6.253  -0.734   0.411  0.00  0.00    -0.176 NA
ATOM      8  C   UNL     1      -4.984  -0.448   0.290  0.00  0.00    +0.149 A 
ATOM      9  C   UNL     1      -4.846   0.962   0.263  0.00  0.00    +0.096 A 
ATOM     10  C   UNL     1      -8.242   4.463   1.123  0.00  0.00    +0.061 C 
ATOM     11  H   UNL     1      -5.935   3.532   0.170  0.00  0.00    +0.153 HD
ENDROOT
BRANCH   1  16
ATOM     12  C   UNL     1     -10.986  -0.848  -4.381  0.00  0.00    +0.044 C 
ATOM     13  C   UNL     1     -10.320  -0.463  -3.086  0.00  0.00    -0.050 A 
ATOM     14  C   UNL     1     -10.640  -1.131  -1.919  0.00  0.00    +0.004 A 
ATOM     15  C   UNL     1     -10.029  -0.778  -0.730  0.00  0.00    +0.006 A 
ATOM     16  C   UNL     1      -9.098   0.243  -0.708  0.00  0.00    -0.018 A 
ATOM     17  C   UNL     1      -8.782   0.915  -1.874  0.00  0.00    +0.006 A 
ATOM     18  C   UNL     1      -9.389   0.559  -3.064  0.00  0.00    +0.004 A 
ENDBRANCH   1  16
BRANCH   9  19
ATOM     19  C   UNL     1      -3.593   1.717   0.137  0.00  0.00    +0.253 C 
ATOM     20  O   UNL     1      -3.614   2.934   0.127  0.00  0.00    -0.270 OA
ATOM     21  N   UNL     1      -2.419   1.063   0.034  0.00  0.00    -0.281 N 
ATOM     22  H   UNL     1      -2.409   0.096  -0.044  0.00  0.00    +0.155 HD
BRANCH  21  23
ATOM     23  C   UNL     1      -1.217   1.778   0.038  0.00  0.00    +0.034 A 
ATOM     24  C   UNL     1      -0.093   1.254  -0.588  0.00  0.00    +0.023 A 
ATOM     25  C   UNL     1       1.093   1.960  -0.576  0.00  0.00    +0.002 A 
ATOM     26  C   UNL     1       1.162   3.189   0.053  0.00  0.00    +0.003 A 
ATOM     27  C   UNL     1       0.044   3.716   0.673  0.00  0.00    -0.049 A 
ATOM     28  C   UNL     1      -1.146   3.015   0.665  0.00  0.00    +0.026 A 
ATOM     29  C   UNL     1       0.124   5.056   1.357  0.00  0.00    +0.044 C 
ENDBRANCH  21  23
ENDBRANCH   9  19
BRANCH   2  30
ATOM     30  C   UNL     1     -10.046   2.404   1.318  0.00  0.00    +0.248 C 
ATOM     31  O   UNL     1     -10.357   2.294   2.491  0.00  0.00    -0.270 OA
ATOM     32  N   UNL     1     -10.950   2.844   0.420  0.00  0.00    -0.281 N 
ATOM     33  H   UNL     1     -10.684   2.995  -0.500  0.00  0.00    +0.155 HD
BRANCH  32  34
ATOM     34  C   UNL     1     -12.270   3.083   0.816  0.00  0.00    +0.037 A 
ATOM     35  C   UNL     1     -12.537   3.575   2.087  0.00  0.00    +0.024 A 
ATOM     36  C   UNL     1     -13.841   3.814   2.473  0.00  0.00    +0.005 A 
ATOM     37  C   UNL     1     -14.881   3.554   1.599  0.00  0.00    -0.050 A 
ATOM     38  C   UNL     1     -14.619   3.059   0.335  0.00  0.00    +0.008 A 
ATOM     39  C   UNL     1     -13.316   2.822  -0.059  0.00  0.00    -0.029 A 
ATOM     40  C   UNL     1     -13.031   2.283  -1.437  0.00  0.00    +0.045 C 
ATOM     41  C   UNL     1     -16.304   3.811   2.025  0.00  0.00    +0.044 C 
ENDBRANCH  32  34
ENDBRANCH   2  30
TORSDOF 5
