REMARK  Name = ZINC09833521
REMARK  14 active torsions:
REMARK  status: ('A' for Active; 'I' for Inactive)
REMARK    1  A    between atoms: C_1  and  C_2
REMARK    2  A    between atoms: C_2  and  N_72
REMARK    3  A    between atoms: C_3  and  C_4
REMARK    4  A    between atoms: C_3  and  N_72
REMARK    5  A    between atoms: C_4  and  C_5
REMARK    6  A    between atoms: C_5  and  N_6
REMARK    7  A    between atoms: C_7  and  C_9
REMARK    8  A    between atoms: C_9  and  N_10
REMARK    9  A    between atoms: C_11  and  C_13
REMARK   10  A    between atoms: N_22  and  C_24
REMARK   11  A    between atoms: C_27  and  O_30
REMARK   12  A    between atoms: O_30  and  C_31
REMARK   13  A    between atoms: C_32  and  C_33
REMARK   14  A    between atoms: C_32  and  N_72
REMARK                            x       y       z     vdW  Elec       q    Type
REMARK                         _______ _______ _______ _____ _____    ______ ____
ROOT
ATOM      1  N   UNL     1       4.464   2.532  -0.945  0.00  0.00    -0.301 N 
ATOM      2  C   UNL     1       3.634   3.565  -0.699  0.00  0.00    +0.265 C 
ATOM      3  O   UNL     1       4.010   4.706  -0.891  0.00  0.00    -0.268 OA
ATOM      4  H   UNL     1       4.164   1.622  -0.791  0.00  0.00    +0.150 HD
ENDROOT
BRANCH   2   5
ATOM      5  C   UNL     1       2.269   3.312  -0.197  0.00  0.00    +0.154 A 
ATOM      6  C   UNL     1       1.356   4.434   0.074  0.00  0.00    +0.020 A 
ATOM      7  C   UNL     1       1.716   5.763  -0.121  0.00  0.00    +0.011 A 
ATOM      8  C   UNL     1       0.804   6.759   0.157  0.00  0.00    +0.001 A 
ATOM      9  C   UNL     1      -0.466   6.450   0.627  0.00  0.00    +0.001 A 
ATOM     10  C   UNL     1      -0.841   5.140   0.833  0.00  0.00    +0.014 A 
ATOM     11  C   UNL     1       0.063   4.119   0.554  0.00  0.00    +0.051 A 
ATOM     12  C   UNL     1      -0.256   2.697   0.740  0.00  0.00    +0.280 A 
ATOM     13  O   UNL     1      -1.349   2.353   1.149  0.00  0.00    -0.265 OA
ATOM     14  N   UNL     1       0.691   1.782   0.446  0.00  0.00    -0.196 N 
ATOM     15  N   UNL     1       1.856   2.085   0.013  0.00  0.00    -0.158 NA
BRANCH  14  16
ATOM     16  C   UNL     1       0.381   0.429   0.624  0.00  0.00    +0.069 A 
ATOM     17  C   UNL     1      -0.195  -0.001   1.812  0.00  0.00    +0.031 A 
ATOM     18  C   UNL     1      -0.504  -1.335   1.986  0.00  0.00    +0.048 A 
ATOM     19  C   UNL     1      -0.230  -2.248   0.977  0.00  0.00    +0.120 A 
ATOM     20  C   UNL     1       0.351  -1.820  -0.208  0.00  0.00    +0.048 A 
ATOM     21  C   UNL     1       0.656  -0.485  -0.385  0.00  0.00    +0.031 A 
BRANCH  19  22
ATOM     22  O   UNL     1      -0.530  -3.563   1.150  0.00  0.00    -0.495 OA
ATOM     23  C   UNL     1      -1.126  -3.933   2.395  0.00  0.00    +0.277 C 
ENDBRANCH  19  22
ENDBRANCH  14  16
ENDBRANCH   2   5
BRANCH   1  24
ATOM     24  C   UNL     1       5.819   2.783  -1.443  0.00  0.00    +0.200 C 
BRANCH  24  26
ATOM     25  N   UNL     1       7.804   1.455  -2.087  0.00  0.00    -0.314 N 
ATOM     26  C   UNL     1       6.535   1.471  -1.633  0.00  0.00    +0.230 C 
ATOM     27  O   UNL     1       5.969   0.429  -1.378  0.00  0.00    -0.274 OA
ATOM     28  H   UNL     1       8.256   2.289  -2.291  0.00  0.00    +0.149 HD
BRANCH  25  29
ATOM     29  C   UNL     1       8.500   0.180  -2.272  0.00  0.00    +0.102 C 
BRANCH  29  30
ATOM     30  C   UNL     1       9.915   0.442  -2.793  0.00  0.00    +0.000 C 
BRANCH  30  31
ATOM     31  C   UNL     1      10.642  -0.890  -2.986  0.00  0.00    -0.077 C 
BRANCH  31  32
ATOM     32  N   UNL     1      11.998  -0.622  -3.509  0.00  0.00    +0.382 N 
ATOM     33  H   UNL     1      11.924  -0.012  -4.331  0.00  0.00    -0.081 HD
BRANCH  32  35
ATOM     34  C   UNL     1      14.076   0.612  -3.136  0.00  0.00    -0.017 C 
ATOM     35  C   UNL     1      12.811   0.059  -2.478  0.00  0.00    -0.082 C 
ENDBRANCH  32  35
BRANCH  32  36
ATOM     36  C   UNL     1      12.646  -1.889  -3.908  0.00  0.00    -0.043 C 
BRANCH  36  37
ATOM     37  C   UNL     1      12.097  -2.311  -5.246  0.00  0.00    -0.064 A 
ATOM     38  C   UNL     1      11.056  -3.219  -5.311  0.00  0.00    +0.002 A 
ATOM     39  C   UNL     1      10.549  -3.603  -6.538  0.00  0.00    +0.000 A 
ATOM     40  C   UNL     1      11.089  -3.087  -7.701  0.00  0.00    +0.000 A 
ATOM     41  C   UNL     1      12.134  -2.183  -7.636  0.00  0.00    +0.000 A 
ATOM     42  C   UNL     1      12.637  -1.795  -6.409  0.00  0.00    +0.002 A 
ENDBRANCH  36  37
ENDBRANCH  32  36
ENDBRANCH  31  32
ENDBRANCH  30  31
ENDBRANCH  29  30
ENDBRANCH  25  29
ENDBRANCH  24  26
ENDBRANCH   1  24
TORSDOF 12
