REMARK  Name = ZINC08410498
REMARK  15 active torsions:
REMARK  status: ('A' for Active; 'I' for Inactive)
REMARK    1  A    between atoms: C_1  and  C_2
REMARK    2  A    between atoms: C_5  and  C_9
REMARK    3  A    between atoms: C_6  and  C_8
REMARK    4  A    between atoms: C_16  and  N_37
REMARK    5  A    between atoms: C_17  and  C_35
REMARK    6  A    between atoms: C_18  and  C_20
REMARK    7  A    between atoms: C_22  and  C_31
REMARK    8  A    between atoms: C_23  and  O_30
REMARK    9  A    between atoms: C_24  and  C_26
REMARK   10  A    between atoms: C_26  and  C_27
REMARK   11  A    between atoms: C_26  and  C_28
REMARK   12  A    between atoms: C_26  and  C_29
REMARK   13  A    between atoms: C_31  and  C_32
REMARK   14  A    between atoms: C_31  and  C_33
REMARK   15  A    between atoms: C_31  and  C_34
REMARK                            x       y       z     vdW  Elec       q    Type
REMARK                         _______ _______ _______ _____ _____    ______ ____
ROOT
ATOM      1  C   UNL     1       0.275  -4.604  -0.050  0.00  0.00    +0.101 A 
ATOM      2  C   UNL     1       0.045  -5.265  -1.260  0.00  0.00    +0.054 A 
ATOM      3  C   UNL     1       0.048  -6.607  -1.016  0.00  0.00    +0.223 A 
ATOM      4  N   UNL     1       0.273  -6.785   0.302  0.00  0.00    -0.246 N 
ATOM      5  H   UNL     1       0.330  -7.637   0.761  0.00  0.00    +0.192 HD
ATOM      6  N   UNL     1       0.417  -5.519   0.891  0.00  0.00    -0.171 NA
ATOM      7  O   UNL     1      -0.152  -7.529  -1.991  0.00  0.00    -0.423 OA
ATOM      8  C   UNL     1      -0.629  -7.093  -3.175  0.00  0.00    +0.200 C 
ATOM      9  C   UNL     1      -0.671  -5.791  -3.535  0.00  0.00    +0.098 C 
ATOM     10  C   UNL     1      -0.176  -4.687  -2.635  0.00  0.00    +0.102 C 
ENDROOT
BRANCH   1  15
ATOM     11  C   UNL     1       0.571   1.099   0.697  0.00  0.00    +0.044 C 
ATOM     12  C   UNL     1       0.493  -0.393   0.502  0.00  0.00    -0.050 A 
ATOM     13  C   UNL     1      -0.566  -0.943  -0.197  0.00  0.00    +0.004 A 
ATOM     14  C   UNL     1      -0.642  -2.308  -0.379  0.00  0.00    +0.010 A 
ATOM     15  C   UNL     1       0.351  -3.135   0.142  0.00  0.00    +0.005 A 
ATOM     16  C   UNL     1       1.416  -2.576   0.846  0.00  0.00    -0.041 A 
ATOM     17  C   UNL     1       1.485  -1.208   1.017  0.00  0.00    +0.007 A 
ATOM     18  C   UNL     1       2.494  -3.463   1.413  0.00  0.00    +0.044 C 
ENDBRANCH   1  15
BRANCH  10  19
ATOM     19  C   UNL     1       1.121  -4.137  -3.170  0.00  0.00    -0.034 A 
ATOM     20  C   UNL     1       2.212  -4.972  -3.327  0.00  0.00    +0.012 A 
ATOM     21  C   UNL     1       3.402  -4.470  -3.817  0.00  0.00    -0.000 A 
ATOM     22  C   UNL     1       3.502  -3.127  -4.152  0.00  0.00    +0.124 A 
ATOM     23  C   UNL     1       2.405  -2.292  -3.993  0.00  0.00    -0.000 A 
ATOM     24  C   UNL     1       1.216  -2.800  -3.508  0.00  0.00    +0.012 A 
BRANCH  23  25
ATOM     25  C   UNL     1       2.510  -0.833  -4.356  0.00  0.00    -0.009 C 
ATOM     26  C   UNL     1       1.179  -0.138  -4.064  0.00  0.00    +0.015 C 
ATOM     27  C   UNL     1       3.618  -0.180  -3.527  0.00  0.00    +0.015 C 
ATOM     28  C   UNL     1       2.840  -0.699  -5.844  0.00  0.00    +0.015 C 
ENDBRANCH  23  25
BRANCH  21  29
ATOM     29  C   UNL     1       4.591  -5.380  -3.987  0.00  0.00    -0.009 C 
ATOM     30  C   UNL     1       4.216  -6.797  -3.549  0.00  0.00    +0.015 C 
ATOM     31  C   UNL     1       5.014  -5.396  -5.458  0.00  0.00    +0.015 C 
ATOM     32  C   UNL     1       5.750  -4.870  -3.129  0.00  0.00    +0.015 C 
ENDBRANCH  21  29
BRANCH  22  33
ATOM     33  O   UNL     1       4.671  -2.631  -4.633  0.00  0.00    -0.506 OA
ATOM     34  H   UNL     1       4.750  -2.673  -5.596  0.00  0.00    +0.292 HD
ENDBRANCH  22  33
ENDBRANCH  10  19
BRANCH   8  35
ATOM     35  N   UNL     1      -1.099  -8.026  -4.065  0.00  0.00    -0.328 N 
ATOM     36  H   UNL     1      -1.082  -8.968  -3.835  0.00  0.00    +0.145 HD
ATOM     37  H   UNL     1      -1.449  -7.743  -4.925  0.00  0.00    +0.145 HD
ENDBRANCH   8  35
BRANCH   9  38
ATOM     38  C   UNL     1      -1.205  -5.448  -4.819  0.00  0.00    +0.101 C 
ATOM     39  N   UNL     1      -1.628  -5.175  -5.837  0.00  0.00    -0.191 NA
ENDBRANCH   9  38
TORSDOF 7
