REMARK  Name = ZINC09350731
REMARK  11 active torsions:
REMARK  status: ('A' for Active; 'I' for Inactive)
REMARK    1  A    between atoms: C_1  and  C_2
REMARK    2  A    between atoms: C_2  and  C_3
REMARK    3  A    between atoms: C_3  and  O_4
REMARK    4  A    between atoms: O_4  and  C_5
REMARK    5  A    between atoms: C_8  and  C_11
REMARK    6  A    between atoms: C_18  and  N_35
REMARK    7  A    between atoms: C_19  and  C_33
REMARK    8  A    between atoms: C_20  and  C_22
REMARK    9  A    between atoms: C_25  and  O_28
REMARK   10  A    between atoms: O_28  and  C_29
REMARK   11  A    between atoms: C_29  and  C_30
REMARK                            x       y       z     vdW  Elec       q    Type
REMARK                         _______ _______ _______ _____ _____    ______ ____
ROOT
ATOM      1  C   UNL     1       3.620  -4.716   5.713  0.00  0.00    +0.100 A 
ATOM      2  C   UNL     1       2.982  -5.816   6.295  0.00  0.00    +0.054 A 
ATOM      3  C   UNL     1       3.747  -6.243   7.342  0.00  0.00    +0.223 A 
ATOM      4  N   UNL     1       4.829  -5.439   7.414  0.00  0.00    -0.246 N 
ATOM      5  H   UNL     1       5.547  -5.507   8.063  0.00  0.00    +0.192 HD
ATOM      6  N   UNL     1       4.734  -4.492   6.383  0.00  0.00    -0.171 NA
ATOM      7  O   UNL     1       3.400  -7.298   8.120  0.00  0.00    -0.423 OA
ATOM      8  C   UNL     1       2.138  -7.763   8.017  0.00  0.00    +0.200 C 
ATOM      9  C   UNL     1       1.292  -7.424   7.019  0.00  0.00    +0.098 C 
ATOM     10  C   UNL     1       1.687  -6.482   5.908  0.00  0.00    +0.102 C 
ENDROOT
BRANCH   1  14
ATOM     11  C   UNL     1       2.223  -2.497   2.364  0.00  0.00    +0.121 A 
ATOM     12  C   UNL     1       1.333  -2.893   3.352  0.00  0.00    +0.046 A 
ATOM     13  C   UNL     1       1.783  -3.613   4.439  0.00  0.00    +0.013 A 
ATOM     14  C   UNL     1       3.132  -3.942   4.545  0.00  0.00    +0.003 A 
ATOM     15  C   UNL     1       4.024  -3.543   3.551  0.00  0.00    +0.013 A 
ATOM     16  C   UNL     1       3.568  -2.828   2.463  0.00  0.00    +0.046 A 
BRANCH  11  17
ATOM     17  O   UNL     1       1.777  -1.787   1.294  0.00  0.00    -0.492 OA
BRANCH  17  18
ATOM     18  C   UNL     1       0.382  -1.481   1.255  0.00  0.00    +0.229 C 
BRANCH  18  20
ATOM     19  C   UNL     1      -1.424  -0.356  -0.056  0.00  0.00    +0.007 C 
ATOM     20  C   UNL     1       0.070  -0.684  -0.014  0.00  0.00    +0.038 C 
ENDBRANCH  18  20
ENDBRANCH  17  18
ENDBRANCH  11  17
ENDBRANCH   1  14
BRANCH  10  21
ATOM     21  C   UNL     1       1.875  -7.256   4.629  0.00  0.00    -0.034 A 
ATOM     22  C   UNL     1       2.859  -8.223   4.546  0.00  0.00    +0.008 A 
ATOM     23  C   UNL     1       3.034  -8.934   3.374  0.00  0.00    +0.046 A 
ATOM     24  C   UNL     1       2.221  -8.676   2.280  0.00  0.00    +0.121 A 
ATOM     25  C   UNL     1       1.234  -7.705   2.366  0.00  0.00    +0.046 A 
ATOM     26  C   UNL     1       1.060  -7.001   3.542  0.00  0.00    +0.008 A 
BRANCH  24  27
ATOM     27  O   UNL     1       2.391  -9.373   1.126  0.00  0.00    -0.483 OA
BRANCH  27  28
ATOM     28  C   UNL     1       1.518  -9.054   0.041  0.00  0.00    +0.324 C 
BRANCH  28  29
ATOM     29  C   UNL     1       1.853  -9.921  -1.145  0.00  0.00    +0.248 C 
ATOM     30  O   UNL     1       2.752 -10.733  -1.069  0.00  0.00    -0.272 OA
ATOM     31  N   UNL     1       1.155  -9.796  -2.291  0.00  0.00    -0.327 N 
ATOM     32  H   UNL     1       0.436  -9.147  -2.352  0.00  0.00    +0.145 HD
ATOM     33  H   UNL     1       1.371 -10.354  -3.054  0.00  0.00    +0.145 HD
ENDBRANCH  28  29
ENDBRANCH  27  28
ENDBRANCH  24  27
ENDBRANCH  10  21
BRANCH   8  34
ATOM     34  N   UNL     1       1.687  -8.630   8.980  0.00  0.00    -0.328 N 
ATOM     35  H   UNL     1       2.272  -8.892   9.709  0.00  0.00    +0.145 HD
ATOM     36  H   UNL     1       0.784  -8.981   8.932  0.00  0.00    +0.145 HD
ENDBRANCH   8  34
BRANCH   9  37
ATOM     37  C   UNL     1      -0.028  -7.979   7.016  0.00  0.00    +0.101 C 
ATOM     38  N   UNL     1      -1.075  -8.419   7.013  0.00  0.00    -0.191 NA
ENDBRANCH   9  37
TORSDOF 10
