REMARK  Name = ZINC40700698
REMARK  7 active torsions:
REMARK  status: ('A' for Active; 'I' for Inactive)
REMARK    1  A    between atoms: C_1  and  O_2
REMARK    2  A    between atoms: O_2  and  C_3
REMARK    3  A    between atoms: C_3  and  C_5
REMARK    4  A    between atoms: C_8  and  O_11
REMARK    5  A    between atoms: O_11  and  C_12
REMARK    6  A    between atoms: C_13  and  N_26
REMARK    7  A    between atoms: C_14  and  N_18
REMARK                            x       y       z     vdW  Elec       q    Type
REMARK                         _______ _______ _______ _____ _____    ______ ____
ROOT
ATOM      1  C   UNL     1       1.386  -6.758  -2.427  0.00  0.00    +0.246 A 
ATOM      2  C   UNL     1       1.354  -8.141  -2.610  0.00  0.00    +0.128 A 
ATOM      3  C   UNL     1       1.892  -8.663  -3.788  0.00  0.00    +0.152 A 
ATOM      4  N   UNL     1       2.412  -7.828  -4.684  0.00  0.00    -0.218 NA
ATOM      5  C   UNL     1       2.421  -6.528  -4.472  0.00  0.00    +0.227 A 
ATOM      6  N   UNL     1       1.919  -5.995  -3.376  0.00  0.00    -0.199 NA
ENDROOT
BRANCH   3   7
ATOM      7  N   UNL     1       1.886 -10.034  -4.020  0.00  0.00    -0.283 N 
ATOM      8  C   UNL     1       2.532 -10.554  -5.138  0.00  0.00    +0.124 A 
ATOM      9  C   UNL     1       2.625 -11.932  -5.302  0.00  0.00    +0.045 A 
ATOM     10  C   UNL     1       3.269 -12.435  -6.418  0.00  0.00    +0.020 A 
ATOM     11  C   UNL     1       3.801 -11.539  -7.337  0.00  0.00    +0.036 A 
ATOM     12  C   UNL     1       3.671 -10.182  -7.111  0.00  0.00    +0.128 A 
ATOM     13  N   UNL     1       3.047  -9.732  -6.039  0.00  0.00    -0.239 NA
ATOM     14 BR   UNL     1       4.693 -12.169  -8.881  0.00  0.00    -0.049 Br
ATOM     15  H   UNL     1       1.432 -10.629  -3.403  0.00  0.00    +0.155 HD
ENDBRANCH   3   7
BRANCH   2  16
ATOM     16  N   UNL     1       0.796  -8.983  -1.636  0.00  0.00    -0.351 N 
ATOM     17  H   UNL     1       0.426  -8.606  -0.823  0.00  0.00    +0.143 HD
ATOM     18  H   UNL     1       0.781  -9.943  -1.777  0.00  0.00    +0.143 HD
ENDBRANCH   2  16
BRANCH   1  19
ATOM     19  O   UNL     1       0.876  -6.201  -1.300  0.00  0.00    -0.436 OA
BRANCH  19  23
ATOM     20  C   UNL     1       0.764  -2.082  -1.057  0.00  0.00    +0.059 A 
ATOM     21  C   UNL     1      -0.105  -2.756  -1.919  0.00  0.00    +0.018 A 
ATOM     22  C   UNL     1      -0.065  -4.130  -1.997  0.00  0.00    +0.047 A 
ATOM     23  C   UNL     1       0.839  -4.847  -1.220  0.00  0.00    +0.130 A 
ATOM     24  C   UNL     1       1.705  -4.179  -0.362  0.00  0.00    +0.047 A 
ATOM     25  C   UNL     1       1.676  -2.805  -0.282  0.00  0.00    +0.018 A 
BRANCH  20  26
ATOM     26  C   UNL     1       0.725  -0.610  -0.970  0.00  0.00    +0.339 C 
ATOM     27  O   UNL     1       1.484  -0.025  -0.224  0.00  0.00    -0.245 OA
BRANCH  26  29
ATOM     28  C   UNL     1      -0.138   1.508  -1.583  0.00  0.00    +0.280 C 
ATOM     29  O   UNL     1      -0.154   0.086  -1.718  0.00  0.00    -0.464 OA
ENDBRANCH  26  29
ENDBRANCH  20  26
ENDBRANCH  19  23
ENDBRANCH   1  19
TORSDOF 6
