REMARK  Name = ZINC39678245
REMARK  5 active torsions:
REMARK  status: ('A' for Active; 'I' for Inactive)
REMARK    1  A    between atoms: C_6  and  C_11
REMARK    2  A    between atoms: C_15  and  C_24
REMARK    3  A    between atoms: N_26  and  C_27
REMARK    4  A    between atoms: C_27  and  C_28
REMARK    5  A    between atoms: C_33  and  N_34
REMARK                            x       y       z     vdW  Elec       q    Type
REMARK                         _______ _______ _______ _____ _____    ______ ____
ROOT
ATOM      1  C   UNL     1       4.773  -2.608  -0.086  0.00  0.00    +0.247 C 
ATOM      2  O   UNL     1       5.852  -2.049  -0.126  0.00  0.00    -0.270 OA
ATOM      3  N   UNL     1       4.713  -3.945   0.070  0.00  0.00    -0.296 N 
ATOM      4  C   UNL     1       3.513  -4.813   0.015  0.00  0.00    +0.121 C 
ATOM      5  C   UNL     1       3.982  -6.082  -0.730  0.00  0.00    +0.100 C 
ATOM      6  C   UNL     1       5.505  -6.122  -0.517  0.00  0.00    -0.004 C 
ATOM      7  C   UNL     1       5.834  -4.882   0.326  0.00  0.00    +0.115 C 
ATOM      8  C   UNL     1       5.900  -7.391   0.233  0.00  0.00    -0.010 C 
ATOM      9  C   UNL     1       7.424  -7.437   0.381  0.00  0.00    -0.082 C 
ATOM     10  N   UNL     1       8.048  -7.414  -0.947  0.00  0.00    +0.379 N 
ATOM     11  C   UNL     1       7.738  -6.149  -1.624  0.00  0.00    -0.082 C 
ATOM     12  C   UNL     1       6.228  -6.049  -1.858  0.00  0.00    -0.010 C 
ATOM     13  H   UNL     1       9.048  -7.505  -0.849  0.00  0.00    -0.086 HD
ATOM     14  H   UNL     1       7.695  -8.183  -1.496  0.00  0.00    -0.086 HD
ENDROOT
BRANCH   1  20
ATOM     15  C   UNL     1       0.019   1.631  -1.051  0.00  0.00    +0.001 A 
ATOM     16  C   UNL     1       1.223   2.195  -1.470  0.00  0.00    +0.001 A 
ATOM     17  C   UNL     1       2.391   1.503  -1.374  0.00  0.00    +0.008 A 
ATOM     18  C   UNL     1       2.386   0.200  -0.846  0.00  0.00    -0.017 A 
ATOM     19  C   UNL     1       3.572  -0.541  -0.733  0.00  0.00    +0.021 A 
ATOM     20  C   UNL     1       3.528  -1.821  -0.207  0.00  0.00    +0.037 A 
ATOM     21  C   UNL     1       2.307  -2.379   0.212  0.00  0.00    +0.013 A 
ATOM     22  C   UNL     1       1.149  -1.677   0.110  0.00  0.00    +0.009 A 
ATOM     23  C   UNL     1       1.161  -0.374  -0.420  0.00  0.00    -0.018 A 
ATOM     24  C   UNL     1      -0.023   0.372  -0.534  0.00  0.00    +0.008 A 
ENDBRANCH   1  20
BRANCH   5  25
ATOM     25  C   UNL     1       3.658  -5.979  -2.198  0.00  0.00    +0.218 C 
ATOM     26  O   UNL     1       3.693  -4.901  -2.752  0.00  0.00    -0.275 OA
ATOM     27  N   UNL     1       3.330  -7.084  -2.895  0.00  0.00    -0.311 N 
ATOM     28  H   UNL     1       3.371  -7.956  -2.471  0.00  0.00    +0.149 HD
BRANCH  27  29
ATOM     29  C   UNL     1       2.910  -6.970  -4.294  0.00  0.00    +0.141 C 
BRANCH  29  30
ATOM     30  C   UNL     1       2.485  -8.324  -4.803  0.00  0.00    -0.009 A 
ATOM     31  C   UNL     1       3.340  -9.064  -5.596  0.00  0.00    +0.007 A 
ATOM     32  C   UNL     1       2.950 -10.306  -6.063  0.00  0.00    +0.000 A 
ATOM     33  C   UNL     1       1.704 -10.810  -5.739  0.00  0.00    +0.002 A 
ATOM     34  C   UNL     1       0.845 -10.075  -4.947  0.00  0.00    +0.023 A 
ATOM     35  C   UNL     1       1.235  -8.830  -4.471  0.00  0.00    +0.034 A 
BRANCH  35  36
ATOM     36  N   UNL     1       0.370  -8.086  -3.665  0.00  0.00    -0.330 N 
ATOM     37  C   UNL     1      -0.655  -7.221  -4.266  0.00  0.00    +0.105 C 
ATOM     38  C   UNL     1      -2.019  -7.588  -3.672  0.00  0.00    +0.019 C 
ATOM     39  C   UNL     1      -1.945  -7.508  -2.146  0.00  0.00    +0.003 C 
ATOM     40  C   UNL     1      -0.909  -8.510  -1.631  0.00  0.00    +0.019 C 
ATOM     41  C   UNL     1       0.464  -8.158  -2.200  0.00  0.00    +0.105 C 
ENDBRANCH  35  36
ENDBRANCH  29  30
ENDBRANCH  27  29
ENDBRANCH   5  25
TORSDOF 5
