REMARK  Name = ZINC39652992
REMARK  10 active torsions:
REMARK  status: ('A' for Active; 'I' for Inactive)
REMARK    1  A    between atoms: C_1  and  C_2
REMARK    2  A    between atoms: C_6  and  C_8
REMARK    3  A    between atoms: C_12  and  C_21
REMARK    4  A    between atoms: N_23  and  C_24
REMARK    5  A    between atoms: C_24  and  C_25
REMARK    6  A    between atoms: C_25  and  C_26
REMARK    7  A    between atoms: C_28  and  O_34
REMARK    8  A    between atoms: C_30  and  O_32
REMARK    9  A    between atoms: O_32  and  C_33
REMARK   10  A    between atoms: O_34  and  C_35
REMARK                            x       y       z     vdW  Elec       q    Type
REMARK                         _______ _______ _______ _____ _____    ______ ____
ROOT
ATOM      1  C   UNL     1       0.053  -2.845   2.455  0.00  0.00    +0.247 C 
ATOM      2  O   UNL     1       0.158  -2.250   3.510  0.00  0.00    -0.270 OA
ATOM      3  N   UNL     1      -0.032  -4.190   2.446  0.00  0.00    -0.296 N 
ATOM      4  C   UNL     1      -0.035  -5.091   1.270  0.00  0.00    +0.121 C 
ATOM      5  C   UNL     1       0.819  -6.303   1.705  0.00  0.00    +0.100 C 
ATOM      6  C   UNL     1       0.743  -6.306   3.241  0.00  0.00    -0.004 C 
ATOM      7  C   UNL     1      -0.135  -5.102   3.610  0.00  0.00    +0.115 C 
ATOM      8  C   UNL     1       0.105  -7.599   3.736  0.00  0.00    -0.010 C 
ATOM      9  C   UNL     1       0.094  -7.604   5.268  0.00  0.00    -0.082 C 
ATOM     10  N   UNL     1       1.469  -7.490   5.769  0.00  0.00    +0.379 N 
ATOM     11  C   UNL     1       2.044  -6.201   5.365  0.00  0.00    -0.082 C 
ATOM     12  C   UNL     1       2.137  -6.138   3.838  0.00  0.00    -0.010 C 
ATOM     13  H   UNL     1       1.465  -7.554   6.776  0.00  0.00    -0.086 HD
ATOM     14  H   UNL     1       2.027  -8.240   5.389  0.00  0.00    -0.086 HD
ENDROOT
BRANCH   1  20
ATOM     15  C   UNL     1      -1.279  -2.541  -2.344  0.00  0.00    +0.044 C 
ATOM     16  C   UNL     1      -0.621  -1.943  -1.128  0.00  0.00    -0.050 A 
ATOM     17  C   UNL     1      -0.047  -0.685  -1.201  0.00  0.00    +0.003 A 
ATOM     18  C   UNL     1       0.558  -0.129  -0.089  0.00  0.00    +0.001 A 
ATOM     19  C   UNL     1       0.594  -0.825   1.102  0.00  0.00    +0.013 A 
ATOM     20  C   UNL     1       0.018  -2.093   1.183  0.00  0.00    +0.037 A 
ATOM     21  C   UNL     1      -0.597  -2.647   0.058  0.00  0.00    +0.016 A 
ENDBRANCH   1  20
BRANCH   5  22
ATOM     22  C   UNL     1       0.242  -7.579   1.147  0.00  0.00    +0.218 C 
ATOM     23  O   UNL     1      -0.938  -7.641   0.871  0.00  0.00    -0.275 OA
ATOM     24  N   UNL     1       1.036  -8.651   0.955  0.00  0.00    -0.315 N 
ATOM     25  H   UNL     1       1.980  -8.601   1.175  0.00  0.00    +0.149 HD
BRANCH  24  26
ATOM     26  C   UNL     1       0.476  -9.891   0.412  0.00  0.00    +0.109 C 
BRANCH  26  27
ATOM     27  C   UNL     1       1.581 -10.942   0.294  0.00  0.00    +0.054 C 
BRANCH  27  28
ATOM     28  C   UNL     1       1.004 -12.217  -0.264  0.00  0.00    -0.039 A 
ATOM     29  C   UNL     1       0.495 -13.176   0.592  0.00  0.00    +0.049 A 
ATOM     30  C   UNL     1      -0.037 -14.351   0.080  0.00  0.00    +0.124 A 
ATOM     31  C   UNL     1      -0.057 -14.563  -1.290  0.00  0.00    +0.091 A 
ATOM     32  C   UNL     1       0.455 -13.600  -2.145  0.00  0.00    +0.124 A 
ATOM     33  C   UNL     1       0.980 -12.424  -1.629  0.00  0.00    +0.049 A 
BRANCH  32  34
ATOM     34  O   UNL     1       0.437 -13.805  -3.489  0.00  0.00    -0.495 OA
ATOM     35  C   UNL     1      -0.124 -15.036  -3.950  0.00  0.00    +0.277 C 
ENDBRANCH  32  34
BRANCH  30  36
ATOM     36  O   UNL     1      -0.537 -15.294   0.922  0.00  0.00    -0.495 OA
ATOM     37  C   UNL     1      -1.069 -16.479   0.326  0.00  0.00    +0.277 C 
ENDBRANCH  30  36
ENDBRANCH  27  28
ENDBRANCH  26  27
ENDBRANCH  24  26
ENDBRANCH   5  22
TORSDOF 7
