REMARK  Name = ZINC36207093
REMARK  14 active torsions:
REMARK  status: ('A' for Active; 'I' for Inactive)
REMARK    1  A    between atoms: C_1  and  C_2
REMARK    2  A    between atoms: C_5  and  C_36
REMARK    3  A    between atoms: C_6  and  C_8
REMARK    4  A    between atoms: C_17  and  C_19
REMARK    5  A    between atoms: C_19  and  N_20
REMARK    6  A    between atoms: N_20  and  C_21
REMARK    7  A    between atoms: N_20  and  C_33
REMARK    8  A    between atoms: C_21  and  C_22
REMARK    9  A    between atoms: C_22  and  C_24
REMARK   10  A    between atoms: C_22  and  O_32
REMARK   11  A    between atoms: C_24  and  O_25
REMARK   12  A    between atoms: O_25  and  C_26
REMARK   13  A    between atoms: C_33  and  C_34
REMARK   14  A    between atoms: C_33  and  C_35
REMARK                            x       y       z     vdW  Elec       q    Type
REMARK                         _______ _______ _______ _____ _____    ______ ____
ROOT
ATOM      1  C   UNL     1       0.343  -2.007   3.529  0.00  0.00    +0.004 A 
ATOM      2  C   UNL     1      -0.540  -1.896   4.551  0.00  0.00    +0.056 A 
ATOM      3  S   UNL     1       0.021  -3.124   5.715  0.00  0.00    -0.076 S 
ATOM      4  C   UNL     1       1.413  -3.751   4.812  0.00  0.00    +0.116 A 
ATOM      5  C   UNL     1       1.407  -2.998   3.626  0.00  0.00    +0.080 A 
ATOM      6  C   UNL     1       2.446  -3.307   2.691  0.00  0.00    +0.260 A 
ATOM      7  O   UNL     1       2.526  -2.704   1.634  0.00  0.00    -0.267 OA
ATOM      8  N   UNL     1       3.331  -4.274   2.995  0.00  0.00    -0.312 N 
ATOM      9  H   UNL     1       4.037  -4.487   2.365  0.00  0.00    +0.170 HD
ATOM     10  C   UNL     1       3.257  -4.956   4.167  0.00  0.00    +0.094 A 
ATOM     11  N   UNL     1       2.327  -4.690   5.044  0.00  0.00    -0.229 NA
ENDROOT
BRANCH   1  17
ATOM     12  C   UNL     1       0.492   2.527   1.445  0.00  0.00    +0.044 C 
ATOM     13  C   UNL     1       0.295   1.038   1.325  0.00  0.00    -0.050 A 
ATOM     14  C   UNL     1       0.002   0.476   0.095  0.00  0.00    +0.003 A 
ATOM     15  C   UNL     1      -0.181  -0.890  -0.022  0.00  0.00    +0.004 A 
ATOM     16  C   UNL     1      -0.071  -1.701   1.090  0.00  0.00    -0.043 A 
ATOM     17  C   UNL     1       0.224  -1.141   2.332  0.00  0.00    -0.013 A 
ATOM     18  C   UNL     1       0.413   0.236   2.442  0.00  0.00    +0.012 A 
ATOM     19  C   UNL     1      -0.271  -3.189   0.961  0.00  0.00    +0.044 C 
ENDBRANCH   1  17
BRANCH  10  20
ATOM     20  C   UNL     1       4.271  -6.030   4.464  0.00  0.00    -0.003 C 
BRANCH  20  21
ATOM     21  N   UNL     1       3.889  -6.736   5.695  0.00  0.00    +0.388 N 
ATOM     22  H   UNL     1       3.483  -6.081   6.346  0.00  0.00    -0.081 HD
BRANCH  21  23
ATOM     23  C   UNL     1       2.909  -7.782   5.376  0.00  0.00    -0.074 C 
ATOM     24  C   UNL     1       1.710  -7.156   4.659  0.00  0.00    -0.014 C 
ATOM     25  C   UNL     1       3.557  -8.828   4.467  0.00  0.00    -0.014 C 
ENDBRANCH  21  23
BRANCH  21  26
ATOM     26  C   UNL     1       5.081  -7.349   6.297  0.00  0.00    -0.043 C 
BRANCH  26  27
ATOM     27  C   UNL     1       4.718  -7.934   7.663  0.00  0.00    +0.135 C 
BRANCH  27  28
ATOM     28  O   UNL     1       3.841  -9.048   7.487  0.00  0.00    -0.390 OA
ATOM     29  H   UNL     1       4.246  -9.798   7.030  0.00  0.00    +0.210 HD
ENDBRANCH  27  28
BRANCH  27  30
ATOM     30  C   UNL     1       5.992  -8.395   8.375  0.00  0.00    +0.258 C 
BRANCH  30  31
ATOM     31  O   UNL     1       5.667  -8.833   9.696  0.00  0.00    -0.489 OA
BRANCH  31  32
ATOM     32  C   UNL     1       6.693  -9.278  10.468  0.00  0.00    +0.121 A 
ATOM     33  C   UNL     1       7.987  -9.287   9.967  0.00  0.00    +0.045 A 
ATOM     34  C   UNL     1       9.028  -9.739  10.754  0.00  0.00    +0.004 A 
ATOM     35  C   UNL     1       8.782 -10.183  12.040  0.00  0.00    +0.000 A 
ATOM     36  C   UNL     1       7.494 -10.176  12.541  0.00  0.00    +0.004 A 
ATOM     37  C   UNL     1       6.450  -9.719  11.761  0.00  0.00    +0.045 A 
ENDBRANCH  31  32
ENDBRANCH  30  31
ENDBRANCH  27  30
ENDBRANCH  26  27
ENDBRANCH  21  26
ENDBRANCH  20  21
ENDBRANCH  10  20
TORSDOF 10
