REMARK  Name = ZINC09281118
REMARK  2 active torsions:
REMARK  status: ('A' for Active; 'I' for Inactive)
REMARK    1  A    between atoms: C_15  and  C_17
REMARK    2  A    between atoms: N_22  and  C_25
REMARK                            x       y       z     vdW  Elec       q    Type
REMARK                         _______ _______ _______ _____ _____    ______ ____
ROOT
ATOM      1  C   UNL     1      -2.272  -2.294  -2.962  0.00  0.00    +0.001 A 
ATOM      2  C   UNL     1      -1.089  -2.867  -2.528  0.00  0.00    +0.000 A 
ATOM      3  C   UNL     1      -0.327  -2.241  -1.555  0.00  0.00    +0.006 A 
ATOM      4  C   UNL     1      -0.746  -1.047  -1.017  0.00  0.00    -0.021 A 
ATOM      5  C   UNL     1      -1.943  -0.461  -1.446  0.00  0.00    -0.019 A 
ATOM      6  C   UNL     1      -2.704  -1.098  -2.428  0.00  0.00    +0.008 A 
ATOM      7  C   UNL     1      -2.398   0.817  -0.864  0.00  0.00    +0.022 C 
ATOM      8  C   UNL     1      -1.518   1.592  -0.199  0.00  0.00    +0.054 C 
ATOM      9  C   UNL     1       0.064  -0.339   0.038  0.00  0.00    +0.100 C 
ATOM     10  C   UNL     1       1.567  -0.530  -0.157  0.00  0.00    +0.113 C 
ATOM     11  C   UNL     1       2.176   0.869   0.164  0.00  0.00    +0.118 C 
ATOM     12  C   UNL     1       1.028   1.847  -0.171  0.00  0.00    +0.155 C 
ATOM     13  C   UNL     1       3.222   1.000  -0.932  0.00  0.00    +0.232 C 
ATOM     14  O   UNL     1       4.177   1.746  -0.915  0.00  0.00    -0.274 OA
ATOM     15  N   UNL     1       2.907   0.149  -1.921  0.00  0.00    -0.210 N 
ATOM     16  C   UNL     1       1.902  -0.690  -1.625  0.00  0.00    +0.232 C 
ATOM     17  O   UNL     1       1.356  -1.446  -2.399  0.00  0.00    -0.274 OA
ATOM     18  N   UNL     1      -0.175   1.068   0.253  0.00  0.00    -0.383 NA
ATOM     19  H   UNL     1      -0.207   1.171   1.274  0.00  0.00    +0.127 HD
ENDROOT
BRANCH  15  20
ATOM     20  C   UNL     1       3.570   0.138  -3.156  0.00  0.00    +0.044 A 
ATOM     21  C   UNL     1       2.894   0.504  -4.312  0.00  0.00    +0.025 A 
ATOM     22  C   UNL     1       3.551   0.497  -5.527  0.00  0.00    +0.017 A 
ATOM     23  C   UNL     1       4.879   0.116  -5.594  0.00  0.00    +0.018 A 
ATOM     24  C   UNL     1       5.554  -0.255  -4.444  0.00  0.00    +0.017 A 
ATOM     25  C   UNL     1       4.903  -0.244  -3.226  0.00  0.00    +0.025 A 
ATOM     26 BR   UNL     1       5.774   0.102  -7.260  0.00  0.00    -0.050 Br
ENDBRANCH  15  20
BRANCH  12  27
ATOM     27  C   UNL     1       1.198   2.423  -1.553  0.00  0.00    +0.230 C 
ATOM     28  O   UNL     1       0.558   1.973  -2.480  0.00  0.00    -0.274 OA
ATOM     29  N   UNL     1       2.060   3.438  -1.759  0.00  0.00    -0.328 N 
ATOM     30  H   UNL     1       2.571   3.797  -1.017  0.00  0.00    +0.145 HD
ATOM     31  H   UNL     1       2.169   3.808  -2.648  0.00  0.00    +0.145 HD
ENDBRANCH  12  27
TORSDOF 2
