REMARK  Name = ZINC62064457
REMARK  8 active torsions:
REMARK  status: ('A' for Active; 'I' for Inactive)
REMARK    1  A    between atoms: C_1  and  N_2
REMARK    2  A    between atoms: N_2  and  C_3
REMARK    3  A    between atoms: N_2  and  C_4
REMARK    4  A    between atoms: C_7  and  N_10
REMARK    5  A    between atoms: C_11  and  C_13
REMARK    6  A    between atoms: C_13  and  N_14
REMARK    7  A    between atoms: N_14  and  S_15
REMARK    8  A    between atoms: S_15  and  C_18
REMARK                            x       y       z     vdW  Elec       q    Type
REMARK                         _______ _______ _______ _____ _____    ______ ____
ROOT
ATOM      1  N   UNL     1      -8.367  -2.043   0.369  0.00  0.00    -0.181 NA
ATOM      2  H   UNL     1      -8.205  -1.108   0.572  0.00  0.00    +0.149 HD
ENDROOT
BRANCH   1   3
ATOM      3  S   UNL     1      -9.916  -2.584   0.142  0.00  0.00    +0.059 S 
ATOM      4  O   UNL     1     -10.769  -1.464   0.334  0.00  0.00    -0.153 OA
ATOM      5  O   UNL     1      -9.910  -3.339  -1.062  0.00  0.00    -0.153 OA
BRANCH   3   6
ATOM      6  C   UNL     1     -10.269  -3.715   1.445  0.00  0.00    +0.109 A 
ATOM      7  C   UNL     1      -9.987  -5.061   1.284  0.00  0.00    +0.031 A 
ATOM      8  C   UNL     1     -10.261  -5.954   2.302  0.00  0.00    +0.031 A 
ATOM      9  C   UNL     1     -10.819  -5.500   3.486  0.00  0.00    +0.087 A 
ATOM     10  C   UNL     1     -11.103  -4.144   3.650  0.00  0.00    +0.159 A 
ATOM     11  C   UNL     1     -10.820  -3.255   2.625  0.00  0.00    +0.077 A 
ATOM     12  O   UNL     1     -11.635  -3.990   4.887  0.00  0.00    -0.408 OA
ATOM     13  C   UNL     1     -11.692  -5.186   5.494  0.00  0.00    +0.419 A 
ATOM     14  O   UNL     1     -12.120  -5.385   6.615  0.00  0.00    -0.223 OA
ATOM     15  N   UNL     1     -11.203  -6.133   4.669  0.00  0.00    -0.288 N 
ATOM     16  H   UNL     1     -11.130  -7.080   4.862  0.00  0.00    +0.172 HD
ENDBRANCH   3   6
ENDBRANCH   1   3
BRANCH   1  17
ATOM     17  C   UNL     1      -7.243  -2.976   0.263  0.00  0.00    +0.201 C 
BRANCH  17  19
ATOM     18  N   UNL     1      -4.783  -2.854   0.031  0.00  0.00    -0.284 N 
ATOM     19  C   UNL     1      -5.956  -2.200   0.142  0.00  0.00    +0.233 C 
ATOM     20  O   UNL     1      -5.977  -0.988   0.144  0.00  0.00    -0.274 OA
ATOM     21  H   UNL     1      -4.772  -3.822  -0.038  0.00  0.00    +0.155 HD
BRANCH  18  25
ATOM     22  C   UNL     1      -1.201  -0.718  -0.013  0.00  0.00    +0.029 A 
ATOM     23  C   UNL     1      -2.337  -0.183  -0.608  0.00  0.00    +0.025 A 
ATOM     24  C   UNL     1      -3.522  -0.890  -0.593  0.00  0.00    +0.025 A 
ATOM     25  C   UNL     1      -3.579  -2.136   0.016  0.00  0.00    +0.034 A 
ATOM     26  C   UNL     1      -2.445  -2.672   0.611  0.00  0.00    +0.025 A 
ATOM     27  C   UNL     1      -1.257  -1.968   0.591  0.00  0.00    +0.025 A 
BRANCH  22  29
ATOM     28  C   UNL     1       1.199  -0.569   0.594  0.00  0.00    +0.129 C 
ATOM     29  N   UNL     1       0.000  -0.001  -0.028  0.00  0.00    -0.336 N 
ATOM     30  C   UNL     1       0.059   1.317  -0.665  0.00  0.00    +0.129 C 
ENDBRANCH  22  29
ENDBRANCH  18  25
ENDBRANCH  17  19
ENDBRANCH   1  17
TORSDOF 6
