REMARK  Name = ZINC04708245
REMARK  13 active torsions:
REMARK  status: ('A' for Active; 'I' for Inactive)
REMARK    1  A    between atoms: C_1  and  C_2
REMARK    2  A    between atoms: C_2  and  C_3
REMARK    3  A    between atoms: C_3  and  C_5
REMARK    4  A    between atoms: C_3  and  N_6
REMARK    5  A    between atoms: C_7  and  C_9
REMARK    6  A    between atoms: C_19  and  C_21
REMARK    7  A    between atoms: C_21  and  C_22
REMARK    8  A    between atoms: C_22  and  C_24
REMARK    9  A    between atoms: C_22  and  C_25
REMARK   10  A    between atoms: C_25  and  C_26
REMARK   11  A    between atoms: C_26  and  C_27
REMARK   12  A    between atoms: C_26  and  C_28
REMARK   13  A    between atoms: C_26  and  C_29
REMARK                            x       y       z     vdW  Elec       q    Type
REMARK                         _______ _______ _______ _____ _____    ______ ____
ROOT
ATOM      1  C   UNL     1      -0.381   0.876   1.593  0.00  0.00    +0.028 C 
ATOM      2  C   UNL     1       0.276   0.858   3.005  0.00  0.00    +0.061 C 
ATOM      3  S   UNL     1      -0.993   1.853   3.912  0.00  0.00    -0.174 S 
ATOM      4  C   UNL     1      -1.518   2.898   2.493  0.00  0.00    -0.016 C 
ATOM      5  C   UNL     1      -3.037   2.979   2.452  0.00  0.00    +0.017 C 
ATOM      6  C   UNL     1      -3.471   3.835   1.256  0.00  0.00    +0.107 C 
ATOM      7  N   UNL     1      -2.777   5.128   1.326  0.00  0.00    -0.302 N 
ATOM      8  C   UNL     1      -1.311   5.142   1.423  0.00  0.00    +0.107 C 
ATOM      9  C   UNL     1      -0.890   4.279   2.618  0.00  0.00    +0.017 C 
ATOM     10  C   UNL     1      -3.474   6.282   1.301  0.00  0.00    +0.216 C 
ATOM     11  O   UNL     1      -2.890   7.344   1.360  0.00  0.00    -0.276 OA
ATOM     12  N   UNL     1      -0.995   2.198   1.278  0.00  0.00    +0.397 N 
ATOM     13  H   UNL     1      -1.772   2.051   0.624  0.00  0.00    -0.083 HD
ATOM     14  H   UNL     1      -0.284   2.793   0.837  0.00  0.00    -0.083 HD
ENDROOT
BRANCH   1  16
ATOM     15  N   UNL     1       1.334  -0.580   0.565  0.00  0.00    -0.314 N 
ATOM     16  C   UNL     1       0.672   0.594   0.552  0.00  0.00    +0.200 C 
ATOM     17  O   UNL     1       0.923   1.423  -0.297  0.00  0.00    -0.278 OA
ATOM     18  H   UNL     1       1.133  -1.243   1.244  0.00  0.00    +0.149 HD
BRANCH  15  19
ATOM     19  C   UNL     1       2.357  -0.854  -0.447  0.00  0.00    +0.070 C 
ATOM     20  C   UNL     1       3.694  -0.263   0.006  0.00  0.00    +0.028 C 
BRANCH  19  22
ATOM     21  C   UNL     1       1.206  -2.940  -1.199  0.00  0.00    +0.005 C 
ATOM     22  C   UNL     1       2.504  -2.366  -0.627  0.00  0.00    +0.018 C 
ENDBRANCH  19  22
ENDBRANCH  15  19
ENDBRANCH   1  16
BRANCH  10  23
ATOM     23  C   UNL     1      -4.977   6.253   1.201  0.00  0.00    +0.099 C 
BRANCH  23  24
ATOM     24  C   UNL     1      -5.515   7.685   1.192  0.00  0.00    -0.005 C 
ATOM     25  C   UNL     1      -5.039   8.401  -0.073  0.00  0.00    +0.008 C 
BRANCH  24  26
ATOM     26  C   UNL     1      -7.045   7.655   1.216  0.00  0.00    +0.010 C 
BRANCH  26  27
ATOM     27  C   UNL     1      -7.580   9.077   1.391  0.00  0.00    -0.037 C 
ATOM     28  C   UNL     1      -7.248   9.904   0.147  0.00  0.00    +0.010 C 
ATOM     29  C   UNL     1      -9.098   9.031   1.582  0.00  0.00    +0.010 C 
ATOM     30  C   UNL     1      -6.931   9.720   2.618  0.00  0.00    +0.010 C 
ENDBRANCH  26  27
ENDBRANCH  24  26
ENDBRANCH  23  24
ENDBRANCH  10  23
TORSDOF 7
