REMARK  Name = ZINC08791742
REMARK  6 active torsions:
REMARK  status: ('A' for Active; 'I' for Inactive)
REMARK    1  A    between atoms: C_1  and  N_2
REMARK    2  A    between atoms: C_3  and  O_33
REMARK    3  A    between atoms: C_4  and  C_17
REMARK    4  A    between atoms: N_7  and  C_10
REMARK    5  A    between atoms: C_23  and  O_29
REMARK    6  A    between atoms: O_29  and  C_30
REMARK                            x       y       z     vdW  Elec       q    Type
REMARK                         _______ _______ _______ _____ _____    ______ ____
ROOT
ATOM      1  C   UNL     1       6.408   3.501  -0.876  0.00  0.00    +0.157 C 
ATOM      2  N   UNL     1       5.047   3.625  -1.403  0.00  0.00    -0.267 N 
ATOM      3  C   UNL     1       4.013   3.929  -0.554  0.00  0.00    +0.204 A 
ATOM      4  C   UNL     1       2.747   4.038  -1.051  0.00  0.00    +0.069 A 
ATOM      5  C   UNL     1       2.535   3.845  -2.427  0.00  0.00    +0.267 A 
ATOM      6  O   UNL     1       1.413   3.943  -2.894  0.00  0.00    -0.267 OA
ATOM      7  N   UNL     1       3.579   3.553  -3.227  0.00  0.00    -0.229 N 
ATOM      8  C   UNL     1       4.820   3.445  -2.717  0.00  0.00    +0.339 A 
ATOM      9  O   UNL     1       5.750   3.180  -3.454  0.00  0.00    -0.246 OA
ENDROOT
BRANCH   4  10
ATOM     10  C   UNL     1       1.594   4.367  -0.138  0.00  0.00    +0.018 C 
ATOM     11  C   UNL     1       0.634   3.202  -0.093  0.00  0.00    +0.011 A 
ATOM     12  C   UNL     1      -0.709   3.350  -0.154  0.00  0.00    -0.022 A 
ATOM     13  C   UNL     1      -1.289   2.027  -0.089  0.00  0.00    +0.006 A 
ATOM     14  C   UNL     1      -2.609   1.567  -0.110  0.00  0.00    +0.056 A 
ATOM     15  C   UNL     1      -2.794   0.195  -0.026  0.00  0.00    +0.121 A 
ATOM     16  C   UNL     1      -1.723  -0.684   0.074  0.00  0.00    +0.047 A 
ATOM     17  C   UNL     1      -0.410  -0.247   0.096  0.00  0.00    +0.030 A 
ATOM     18  C   UNL     1      -0.197   1.127   0.013  0.00  0.00    +0.047 A 
ATOM     19  N   UNL     1       0.949   1.874   0.009  0.00  0.00    -0.359 N 
ATOM     20  H   UNL     1       1.849   1.517   0.068  0.00  0.00    +0.166 HD
ATOM     21  C   UNL     1      -1.393   4.689  -0.263  0.00  0.00    +0.018 C 
ATOM     22  C   UNL     1      -0.372   5.776   0.096  0.00  0.00    -0.076 C 
ATOM     23  N   UNL     1       0.878   5.552  -0.659  0.00  0.00    +0.388 N 
ATOM     24  H   UNL     1       0.652   5.402  -1.649  0.00  0.00    -0.084 HD
ATOM     25  H   UNL     1       1.481   6.378  -0.567  0.00  0.00    -0.084 HD
BRANCH  15  26
ATOM     26  O   UNL     1      -4.059  -0.304  -0.043  0.00  0.00    -0.495 OA
ATOM     27  C   UNL     1      -4.198  -1.724   0.046  0.00  0.00    +0.277 C 
ENDBRANCH  15  26
ENDBRANCH   4  10
BRANCH   7  28
ATOM     28  C   UNL     1       3.372   3.360  -4.599  0.00  0.00    +0.054 A 
ATOM     29  C   UNL     1       3.091   2.091  -5.088  0.00  0.00    +0.028 A 
ATOM     30  C   UNL     1       2.883   1.904  -6.441  0.00  0.00    +0.022 A 
ATOM     31  C   UNL     1       2.964   2.978  -7.310  0.00  0.00    +0.041 A 
ATOM     32  C   UNL     1       3.249   4.242  -6.825  0.00  0.00    +0.022 A 
ATOM     33  C   UNL     1       3.453   4.436  -5.473  0.00  0.00    +0.028 A 
ATOM     34 CL   UNL     1       2.708   2.739  -9.010  0.00  0.00    -0.084 Cl
ENDBRANCH   7  28
BRANCH   3  35
ATOM     35  O   UNL     1       4.245   4.115   0.762  0.00  0.00    -0.493 OA
ATOM     36  H   UNL     1       5.173   4.016   1.016  0.00  0.00    +0.294 HD
ENDBRANCH   3  35
TORSDOF 4
