REMARK  Name = ZINC27912072
REMARK  9 active torsions:
REMARK  status: ('A' for Active; 'I' for Inactive)
REMARK    1  A    between atoms: C_1  and  C_2
REMARK    2  A    between atoms: C_5  and  C_8
REMARK    3  A    between atoms: C_9  and  C_18
REMARK    4  A    between atoms: N_28  and  C_29
REMARK    5  A    between atoms: C_29  and  C_31
REMARK    6  A    between atoms: C_29  and  C_32
REMARK    7  A    between atoms: N_34  and  C_35
REMARK    8  A    between atoms: C_35  and  C_36
REMARK    9  A    between atoms: C_36  and  N_37
REMARK                            x       y       z     vdW  Elec       q    Type
REMARK                         _______ _______ _______ _____ _____    ______ ____
ROOT
ATOM      1  C   UNL     1       3.676   3.960  -0.011  0.00  0.00    +0.141 C 
ATOM      2  C   UNL     1       4.111   3.472  -1.370  0.00  0.00    -0.010 A 
ATOM      3  C   UNL     1       4.047   4.016  -2.632  0.00  0.00    +0.006 A 
ATOM      4  C   UNL     1       4.542   3.311  -3.716  0.00  0.00    +0.000 A 
ATOM      5  C   UNL     1       5.101   2.058  -3.534  0.00  0.00    +0.001 A 
ATOM      6  C   UNL     1       5.170   1.500  -2.270  0.00  0.00    +0.013 A 
ATOM      7  C   UNL     1       4.673   2.207  -1.173  0.00  0.00    +0.042 A 
ATOM      8  C   UNL     1       4.606   1.889   0.266  0.00  0.00    +0.248 C 
ATOM      9  O   UNL     1       5.012   0.861   0.770  0.00  0.00    -0.270 OA
ATOM     10  N   UNL     1       4.030   2.900   0.940  0.00  0.00    -0.275 N 
ENDROOT
BRANCH   1  12
ATOM     11  C   UNL     1       1.559   5.395   0.016  0.00  0.00    +0.053 A 
ATOM     12  C   UNL     1       2.188   4.193   0.004  0.00  0.00    +0.010 A 
ATOM     13  C   UNL     1       1.146   3.167   0.008  0.00  0.00    +0.006 A 
ATOM     14  C   UNL     1       1.164   1.769   0.000  0.00  0.00    +0.010 A 
ATOM     15  C   UNL     1      -0.013   1.076   0.008  0.00  0.00    +0.001 A 
ATOM     16  C   UNL     1      -1.227   1.748   0.017  0.00  0.00    +0.002 A 
ATOM     17  C   UNL     1      -1.269   3.125   0.031  0.00  0.00    +0.026 A 
ATOM     18  C   UNL     1      -0.084   3.853   0.024  0.00  0.00    +0.047 A 
ATOM     19  N   UNL     1       0.197   5.202   0.028  0.00  0.00    -0.354 N 
ATOM     20  H   UNL     1      -0.481   6.068   0.039  0.00  0.00    +0.166 HD
BRANCH  11  25
ATOM     21  C   UNL     1       4.186  10.515   0.019  0.00  0.00    +0.044 C 
ATOM     22  C   UNL     1       3.498   9.174   0.018  0.00  0.00    -0.050 A 
ATOM     23  C   UNL     1       2.436   8.944   0.875  0.00  0.00    +0.004 A 
ATOM     24  C   UNL     1       1.802   7.719   0.879  0.00  0.00    +0.010 A 
ATOM     25  C   UNL     1       2.234   6.710   0.017  0.00  0.00    -0.001 A 
ATOM     26  C   UNL     1       3.309   6.947  -0.841  0.00  0.00    +0.010 A 
ATOM     27  C   UNL     1       3.930   8.179  -0.840  0.00  0.00    +0.004 A 
ENDBRANCH  11  25
ENDBRANCH   1  12
BRANCH  10  28
ATOM     28  C   UNL     1       3.795   2.937   2.385  0.00  0.00    +0.160 C 
ATOM     29  C   UNL     1       5.131   2.821   3.122  0.00  0.00    +0.038 C 
BRANCH  28  30
ATOM     30  C   UNL     1       2.903   1.788   2.779  0.00  0.00    +0.233 C 
ATOM     31  O   UNL     1       2.503   1.014   1.935  0.00  0.00    -0.274 OA
ATOM     32  N   UNL     1       2.550   1.620   4.069  0.00  0.00    -0.316 N 
ATOM     33  H   UNL     1       2.913   2.322   4.834  0.00  0.00    +0.149 HD
BRANCH  32  34
ATOM     34  C   UNL     1       1.683   0.503   4.452  0.00  0.00    +0.086 C 
BRANCH  34  35
ATOM     35  C   UNL     1       1.437   0.542   5.961  0.00  0.00    -0.060 C 
BRANCH  35  36
ATOM     36  N   UNL     1       0.567  -0.578   6.345  0.00  0.00    +0.381 N 
ATOM     37  C   UNL     1       1.106  -1.867   5.841  0.00  0.00    -0.079 C 
ATOM     38  C   UNL     1       0.412  -2.918   6.743  0.00  0.00    -0.020 C 
ATOM     39  C   UNL     1       0.378  -2.221   8.122  0.00  0.00    -0.020 C 
ATOM     40  C   UNL     1       0.500  -0.717   7.816  0.00  0.00    -0.079 C 
ATOM     41  H   UNL     1      -0.420  -0.351   5.916  0.00  0.00    -0.082 HD
ENDBRANCH  35  36
ENDBRANCH  34  35
ENDBRANCH  32  34
ENDBRANCH  28  30
ENDBRANCH  10  28
TORSDOF 7
