REMARK  Name = ZINC06193113
REMARK  16 active torsions:
REMARK  status: ('A' for Active; 'I' for Inactive)
REMARK    1  A    between atoms: C_1  and  C_2
REMARK    2  A    between atoms: C_2  and  N_75
REMARK    3  A    between atoms: C_3  and  C_4
REMARK    4  A    between atoms: C_3  and  N_75
REMARK    5  A    between atoms: C_5  and  C_6
REMARK    6  A    between atoms: C_5  and  N_75
REMARK    7  A    between atoms: C_6  and  C_7
REMARK    8  A    between atoms: C_7  and  N_8
REMARK    9  A    between atoms: N_8  and  C_9
REMARK   10  A    between atoms: C_9  and  N_11
REMARK   11  A    between atoms: N_11  and  C_12
REMARK   12  A    between atoms: N_11  and  C_21
REMARK   13  A    between atoms: C_12  and  C_13
REMARK   14  A    between atoms: C_13  and  C_14
REMARK   15  A    between atoms: C_19  and  C_20
REMARK   16  A    between atoms: C_21  and  C_22
REMARK                            x       y       z     vdW  Elec       q    Type
REMARK                         _______ _______ _______ _____ _____    ______ ____
ROOT
ATOM      1  N   UNL     1      -4.261   2.799  -2.391  0.00  0.00    -0.308 N 
ENDROOT
BRANCH   1   2
ATOM      2  C   UNL     1      -4.061   4.001  -2.966  0.00  0.00    +0.133 C 
ATOM      3  S   UNL     1      -2.909   5.083  -2.309  0.00  0.00    -0.019 S 
BRANCH   2   4
ATOM      4  N   UNL     1      -4.768   4.351  -4.059  0.00  0.00    -0.326 N 
ATOM      5  H   UNL     1      -5.421   3.738  -4.431  0.00  0.00    +0.148 HD
BRANCH   4   6
ATOM      6  C   UNL     1      -4.550   5.657  -4.685  0.00  0.00    +0.101 C 
BRANCH   6   7
ATOM      7  C   UNL     1      -5.471   5.802  -5.897  0.00  0.00    +0.000 C 
BRANCH   7   8
ATOM      8  C   UNL     1      -5.244   7.167  -6.551  0.00  0.00    -0.077 C 
BRANCH   8   9
ATOM      9  N   UNL     1      -6.125   7.283  -7.732  0.00  0.00    +0.379 N 
ATOM     10  H   UNL     1      -5.994   6.457  -8.328  0.00  0.00    -0.082 HD
BRANCH   9  12
ATOM     11  C   UNL     1      -7.769   8.552  -6.391  0.00  0.00    -0.017 C 
ATOM     12  C   UNL     1      -7.538   7.346  -7.304  0.00  0.00    -0.082 C 
ENDBRANCH   9  12
BRANCH   9  13
ATOM     13  C   UNL     1      -5.777   8.493  -8.505  0.00  0.00    -0.082 C 
ATOM     14  C   UNL     1      -6.431   8.400  -9.885  0.00  0.00    -0.017 C 
ENDBRANCH   9  13
ENDBRANCH   8   9
ENDBRANCH   7   8
ENDBRANCH   6   7
ENDBRANCH   4   6
ENDBRANCH   2   4
ENDBRANCH   1   2
BRANCH   1  15
ATOM     15  C   UNL     1      -5.247   1.873  -2.953  0.00  0.00    +0.112 C 
BRANCH  15  16
ATOM     16  C   UNL     1      -6.611   2.124  -2.305  0.00  0.00    +0.054 C 
BRANCH  16  17
ATOM     17  C   UNL     1      -7.625   1.171  -2.884  0.00  0.00    -0.043 A 
ATOM     18  C   UNL     1      -8.427   1.571  -3.937  0.00  0.00    +0.004 A 
ATOM     19  C   UNL     1      -9.354   0.696  -4.470  0.00  0.00    +0.000 A 
ATOM     20  C   UNL     1      -9.487  -0.576  -3.944  0.00  0.00    +0.000 A 
ATOM     21  C   UNL     1      -8.689  -0.974  -2.888  0.00  0.00    +0.003 A 
ATOM     22  C   UNL     1      -7.758  -0.100  -2.358  0.00  0.00    -0.047 A 
ATOM     23  C   UNL     1      -6.888  -0.533  -1.206  0.00  0.00    +0.044 C 
ENDBRANCH  16  17
ENDBRANCH  15  16
ENDBRANCH   1  15
BRANCH   1  24
ATOM     24  C   UNL     1      -3.493   2.418  -1.203  0.00  0.00    +0.147 C 
BRANCH  24  25
ATOM     25  C   UNL     1      -2.225   1.722  -1.626  0.00  0.00    +0.035 A 
ATOM     26  C   UNL     1      -1.071   2.428  -1.737  0.00  0.00    +0.020 A 
ATOM     27  C   UNL     1       0.141   1.726  -2.154  0.00  0.00    +0.003 A 
ATOM     28  C   UNL     1       1.357   2.405  -2.301  0.00  0.00    +0.059 A 
ATOM     29  C   UNL     1       2.483   1.716  -2.698  0.00  0.00    +0.163 A 
ATOM     30  C   UNL     1       2.416   0.343  -2.951  0.00  0.00    +0.164 A 
ATOM     31  C   UNL     1       1.219  -0.337  -2.808  0.00  0.00    +0.075 A 
ATOM     32  C   UNL     1       0.073   0.343  -2.416  0.00  0.00    +0.053 A 
ATOM     33  N   UNL     1      -1.130  -0.318  -2.274  0.00  0.00    -0.322 N 
ATOM     34  H   UNL     1      -1.176  -1.300  -2.456  0.00  0.00    +0.169 HD
ATOM     35  C   UNL     1      -2.240   0.339  -1.895  0.00  0.00    +0.254 A 
ATOM     36  O   UNL     1      -3.285  -0.278  -1.781  0.00  0.00    -0.268 OA
ATOM     37  O   UNL     1       3.523  -0.345  -3.339  0.00  0.00    -0.485 OA
ATOM     38  C   UNL     1       4.621   0.428  -3.837  0.00  0.00    +0.270 C 
ATOM     39  C   UNL     1       4.852   1.605  -2.880  0.00  0.00    +0.270 C 
ATOM     40  O   UNL     1       3.657   2.393  -2.840  0.00  0.00    -0.485 OA
ENDBRANCH  24  25
ENDBRANCH   1  24
TORSDOF 13
