REMARK  Name = ZINC39659810
REMARK  6 active torsions:
REMARK  status: ('A' for Active; 'I' for Inactive)
REMARK    1  A    between atoms: C_1  and  C_2
REMARK    2  A    between atoms: C_2  and  C_4
REMARK    3  A    between atoms: C_2  and  O_28
REMARK    4  A    between atoms: C_8  and  C_17
REMARK    5  A    between atoms: N_19  and  C_20
REMARK    6  A    between atoms: O_28  and  C_29
REMARK                            x       y       z     vdW  Elec       q    Type
REMARK                         _______ _______ _______ _____ _____    ______ ____
ROOT
ATOM      1  C   UNL     1       0.735  -0.385   1.124  0.00  0.00    +0.256 C 
ATOM      2  O   UNL     1       1.857  -0.796   0.917  0.00  0.00    -0.272 OA
ATOM      3  N   UNL     1       0.346  -0.089   2.380  0.00  0.00    -0.297 N 
ATOM      4  C   UNL     1      -0.973   0.415   2.828  0.00  0.00    +0.121 C 
ATOM      5  C   UNL     1      -1.244  -0.327   4.156  0.00  0.00    +0.100 C 
ATOM      6  C   UNL     1       0.148  -0.722   4.676  0.00  0.00    -0.004 C 
ATOM      7  C   UNL     1       1.141  -0.200   3.627  0.00  0.00    +0.115 C 
ATOM      8  C   UNL     1       0.414  -0.067   6.028  0.00  0.00    -0.010 C 
ATOM      9  C   UNL     1       1.779  -0.521   6.551  0.00  0.00    -0.082 C 
ATOM     10  N   UNL     1       1.794  -1.983   6.682  0.00  0.00    +0.379 N 
ATOM     11  C   UNL     1       1.631  -2.606   5.362  0.00  0.00    -0.082 C 
ATOM     12  C   UNL     1       0.259  -2.240   4.789  0.00  0.00    -0.010 C 
ATOM     13  H   UNL     1       2.673  -2.275   7.083  0.00  0.00    -0.086 HD
ATOM     14  H   UNL     1       1.039  -2.273   7.285  0.00  0.00    -0.086 HD
ENDROOT
BRANCH   5  15
ATOM     15  C   UNL     1      -1.933   0.587   5.137  0.00  0.00    +0.218 C 
ATOM     16  O   UNL     1      -1.714   1.779   5.111  0.00  0.00    -0.275 OA
ATOM     17  N   UNL     1      -2.792   0.079   6.043  0.00  0.00    -0.312 N 
ATOM     18  H   UNL     1      -2.967  -0.875   6.063  0.00  0.00    +0.149 HD
BRANCH  17  19
ATOM     19  C   UNL     1      -3.461   0.967   6.996  0.00  0.00    +0.073 C 
ATOM     20  C   UNL     1      -2.552   1.196   8.205  0.00  0.00    +0.022 C 
ATOM     21  C   UNL     1      -3.052   2.406   8.997  0.00  0.00    +0.002 C 
ATOM     22  C   UNL     1      -3.411   3.536   8.031  0.00  0.00    +0.000 C 
ATOM     23  C   UNL     1      -4.922   3.775   8.064  0.00  0.00    +0.000 C 
ATOM     24  C   UNL     1      -5.630   2.666   7.284  0.00  0.00    +0.000 C 
ATOM     25  C   UNL     1      -5.652   1.386   8.122  0.00  0.00    +0.002 C 
ATOM     26  C   UNL     1      -4.771   0.326   7.458  0.00  0.00    +0.022 C 
ENDBRANCH  17  19
ENDBRANCH   5  15
BRANCH   1  28
ATOM     27  C   UNL     1      -0.556   1.281  -0.183  0.00  0.00    +0.062 C 
ATOM     28  C   UNL     1      -0.225  -0.204  -0.024  0.00  0.00    +0.256 C 
BRANCH  28  29
ATOM     29  O   UNL     1       0.373  -0.690  -1.226  0.00  0.00    -0.480 OA
BRANCH  29  30
ATOM     30  C   UNL     1      -0.467  -1.093  -2.215  0.00  0.00    +0.122 A 
ATOM     31  C   UNL     1       0.042  -1.682  -3.364  0.00  0.00    +0.045 A 
ATOM     32  C   UNL     1      -0.815  -2.091  -4.367  0.00  0.00    +0.004 A 
ATOM     33  C   UNL     1      -2.179  -1.914  -4.227  0.00  0.00    +0.000 A 
ATOM     34  C   UNL     1      -2.689  -1.327  -3.084  0.00  0.00    +0.004 A 
ATOM     35  C   UNL     1      -1.837  -0.922  -2.075  0.00  0.00    +0.045 A 
ENDBRANCH  29  30
ENDBRANCH  28  29
ENDBRANCH   1  28
TORSDOF 5
