REMARK  Name = ZINC40915987
REMARK  12 active torsions:
REMARK  status: ('A' for Active; 'I' for Inactive)
REMARK    1  A    between atoms: C_1  and  C_2
REMARK    2  A    between atoms: C_5  and  N_9
REMARK    3  A    between atoms: C_6  and  C_8
REMARK    4  A    between atoms: C_10  and  C_12
REMARK    5  A    between atoms: C_13  and  C_39
REMARK    6  A    between atoms: C_20  and  C_22
REMARK    7  A    between atoms: C_25  and  O_28
REMARK    8  A    between atoms: O_28  and  C_29
REMARK    9  A    between atoms: C_29  and  C_30
REMARK   10  A    between atoms: C_32  and  C_38
REMARK   11  A    between atoms: C_33  and  C_37
REMARK   12  A    between atoms: C_35  and  C_36
REMARK                            x       y       z     vdW  Elec       q    Type
REMARK                         _______ _______ _______ _____ _____    ______ ____
ROOT
ATOM      1  C   UNL     1       0.106  -6.246  -1.407  0.00  0.00    +0.060 C 
ATOM      2  C   UNL     1       0.168  -6.786  -2.632  0.00  0.00    +0.018 C 
ATOM      3  N   UNL     1       0.211  -8.145  -2.832  0.00  0.00    -0.287 N 
ATOM      4  C   UNL     1       0.453  -8.945  -1.724  0.00  0.00    +0.218 A 
ATOM      5  N   UNL     1       0.758 -10.212  -1.651  0.00  0.00    -0.201 NA
ATOM      6  C   UNL     1       0.906 -10.563  -0.370  0.00  0.00    +0.247 A 
ATOM      7  N   UNL     1       0.693  -9.518   0.391  0.00  0.00    -0.156 NA
ATOM      8  N   UNL     1       0.394  -8.456  -0.461  0.00  0.00    -0.221 N 
ATOM      9  C   UNL     1       0.072  -7.068  -0.146  0.00  0.00    +0.177 C 
ATOM     10  C   UNL     1       0.190  -5.873  -3.831  0.00  0.00    +0.061 C 
ATOM     11  H   UNL     1       0.078  -8.529  -3.712  0.00  0.00    +0.155 HD
ENDROOT
BRANCH   9  12
ATOM     12  C   UNL     1      -1.306  -7.002   0.460  0.00  0.00    -0.018 A 
ATOM     13  C   UNL     1      -2.398  -7.453  -0.258  0.00  0.00    +0.009 A 
ATOM     14  C   UNL     1      -3.663  -7.393   0.295  0.00  0.00    +0.046 A 
ATOM     15  C   UNL     1      -3.836  -6.880   1.572  0.00  0.00    +0.121 A 
ATOM     16  C   UNL     1      -2.739  -6.428   2.291  0.00  0.00    +0.046 A 
ATOM     17  C   UNL     1      -1.476  -6.495   1.735  0.00  0.00    +0.009 A 
BRANCH  15  18
ATOM     18  O   UNL     1      -5.079  -6.819   2.118  0.00  0.00    -0.487 OA
BRANCH  18  19
ATOM     19  C   UNL     1      -5.183  -6.279   3.437  0.00  0.00    +0.264 C 
BRANCH  19  20
ATOM     20  C   UNL     1      -6.625  -6.292   3.874  0.00  0.00    -0.007 A 
ATOM     21  C   UNL     1      -7.599  -6.787   3.026  0.00  0.00    +0.010 A 
ATOM     22  C   UNL     1      -8.922  -6.798   3.427  0.00  0.00    -0.047 A 
ATOM     23  C   UNL     1      -9.271  -6.316   4.674  0.00  0.00    -0.047 A 
ATOM     24  C   UNL     1      -8.297  -5.822   5.521  0.00  0.00    +0.007 A 
ATOM     25  C   UNL     1      -6.973  -5.814   5.123  0.00  0.00    -0.044 A 
ATOM     26  C   UNL     1      -5.911  -5.280   6.049  0.00  0.00    +0.044 C 
ATOM     27  C   UNL     1     -10.714  -6.328   5.110  0.00  0.00    +0.044 C 
ATOM     28  C   UNL     1      -9.984  -7.337   2.503  0.00  0.00    +0.044 C 
ENDBRANCH  19  20
ENDBRANCH  18  19
ENDBRANCH  15  18
ENDBRANCH   9  12
BRANCH   1  30
ATOM     29  N   UNL     1      -1.093  -4.175  -1.396  0.00  0.00    -0.281 N 
ATOM     30  C   UNL     1       0.077  -4.836  -1.293  0.00  0.00    +0.248 C 
ATOM     31  O   UNL     1       1.110  -4.219  -1.101  0.00  0.00    -0.270 OA
ATOM     32  H   UNL     1      -1.925  -4.670  -1.467  0.00  0.00    +0.155 HD
BRANCH  29  37
ATOM     33  C   UNL     1      -1.157   1.497  -1.417  0.00  0.00    +0.044 C 
ATOM     34  C   UNL     1      -1.140  -0.010  -1.412  0.00  0.00    -0.050 A 
ATOM     35  C   UNL     1      -0.005  -0.689  -1.816  0.00  0.00    +0.005 A 
ATOM     36  C   UNL     1       0.014  -2.070  -1.812  0.00  0.00    +0.024 A 
ATOM     37  C   UNL     1      -1.109  -2.777  -1.401  0.00  0.00    +0.037 A 
ATOM     38  C   UNL     1      -2.247  -2.092  -0.995  0.00  0.00    -0.029 A 
ATOM     39  C   UNL     1      -2.257  -0.711  -0.997  0.00  0.00    +0.008 A 
ATOM     40  C   UNL     1      -3.467  -2.855  -0.548  0.00  0.00    +0.045 C 
ENDBRANCH  29  37
ENDBRANCH   1  30
TORSDOF 6
