REMARK  Name = ZINC08846708
REMARK  4 active torsions:
REMARK  status: ('A' for Active; 'I' for Inactive)
REMARK    1  A    between atoms: C_3  and  C_7
REMARK    2  A    between atoms: C_8  and  C_26
REMARK    3  A    between atoms: C_8  and  C_30
REMARK    4  A    between atoms: N_16  and  C_19
REMARK                            x       y       z     vdW  Elec       q    Type
REMARK                         _______ _______ _______ _____ _____    ______ ____
ROOT
ATOM      1  C   UNL     1       0.913   5.378  -1.807  0.00  0.00    +0.107 C 
ATOM      2  C   UNL     1       1.882   3.236  -1.231  0.00  0.00    +0.264 C 
ATOM      3  C   UNL     1       0.764   3.127  -0.234  0.00  0.00    +0.098 A 
ATOM      4  C   UNL     1       0.754   2.086   0.710  0.00  0.00    +0.262 A 
ATOM      5  O   UNL     1       1.658   1.268   0.732  0.00  0.00    -0.267 OA
ATOM      6  N   UNL     1      -0.263   1.998   1.590  0.00  0.00    -0.274 N 
ATOM      7  H   UNL     1      -0.271   1.260   2.264  0.00  0.00    +0.173 HD
ATOM      8  C   UNL     1      -1.267   2.893   1.570  0.00  0.00    +0.335 A 
ATOM      9  O   UNL     1      -2.178   2.789   2.369  0.00  0.00    -0.246 OA
ATOM     10  N   UNL     1      -1.275   3.905   0.682  0.00  0.00    -0.250 N 
ATOM     11  C   UNL     1      -0.257   4.032  -0.231  0.00  0.00    +0.124 A 
ATOM     12  N   UNL     1      -0.255   5.061  -1.141  0.00  0.00    -0.286 N 
ATOM     13  H   UNL     1      -1.068   5.562  -1.315  0.00  0.00    +0.155 HD
ATOM     14  N   UNL     1       1.983   4.581  -1.901  0.00  0.00    -0.348 N 
ATOM     15  H   UNL     1       2.829   4.872  -2.404  0.00  0.00    +0.162 HD
ENDROOT
BRANCH  10  16
ATOM     16  C   UNL     1      -2.330   4.829   0.685  0.00  0.00    +0.053 A 
ATOM     17  C   UNL     1      -3.465   4.591  -0.079  0.00  0.00    +0.029 A 
ATOM     18  C   UNL     1      -4.505   5.500  -0.070  0.00  0.00    +0.040 A 
ATOM     19  C   UNL     1      -4.411   6.653   0.691  0.00  0.00    +0.124 A 
ATOM     20  C   UNL     1      -3.278   6.895   1.449  0.00  0.00    +0.040 A 
ATOM     21  C   UNL     1      -2.238   5.986   1.447  0.00  0.00    +0.029 A 
ATOM     22  F   UNL     1      -5.428   7.543   0.695  0.00  0.00    -0.205 F 
ENDBRANCH  10  16
BRANCH   1  25
ATOM     23  C   UNL     1       2.257   8.280  -3.774  0.00  0.00    +0.020 A 
ATOM     24  C   UNL     1       2.199   7.040  -3.161  0.00  0.00    +0.014 A 
ATOM     25  C   UNL     1       1.029   6.691  -2.479  0.00  0.00    +0.031 A 
ATOM     26  C   UNL     1      -0.030   7.599  -2.449  0.00  0.00    +0.122 A 
ATOM     27  N   UNL     1       0.074   8.770  -3.043  0.00  0.00    -0.263 NA
ATOM     28  C   UNL     1       1.166   9.126  -3.693  0.00  0.00    +0.111 A 
ENDBRANCH   1  25
BRANCH   2  29
ATOM     29  C   UNL     1       3.214   2.993  -0.520  0.00  0.00    +0.426 C 
ATOM     30  F   UNL     1       3.365   1.626  -0.267  0.00  0.00    -0.167 F 
ATOM     31  F   UNL     1       4.264   3.436  -1.332  0.00  0.00    -0.167 F 
ATOM     32  F   UNL     1       3.232   3.696   0.690  0.00  0.00    -0.167 F 
ENDBRANCH   2  29
BRANCH   2  33
ATOM     33  C   UNL     1       1.692   2.172  -2.314  0.00  0.00    +0.426 C 
ATOM     34  F   UNL     1       0.466   2.374  -2.957  0.00  0.00    -0.167 F 
ATOM     35  F   UNL     1       2.729   2.267  -3.248  0.00  0.00    -0.167 F 
ATOM     36  F   UNL     1       1.708   0.902  -1.727  0.00  0.00    -0.167 F 
ENDBRANCH   2  33
TORSDOF 4
