REMARK  Name = ZINC06428119
REMARK  7 active torsions:
REMARK  status: ('A' for Active; 'I' for Inactive)
REMARK    1  A    between atoms: C_1  and  C_2
REMARK    2  A    between atoms: C_5  and  N_9
REMARK    3  A    between atoms: C_7  and  C_8
REMARK    4  A    between atoms: C_12  and  C_13
REMARK    5  A    between atoms: N_14  and  C_15
REMARK    6  A    between atoms: C_21  and  N_50
REMARK    7  A    between atoms: C_23  and  O_27
REMARK                            x       y       z     vdW  Elec       q    Type
REMARK                         _______ _______ _______ _____ _____    ______ ____
ROOT
ATOM      1  N   UNL     1       0.045  -4.175  -0.016  0.00  0.00    -0.192 N 
ATOM      2  C   UNL     1      -0.085  -4.833  -1.188  0.00  0.00    +0.245 C 
ATOM      3  O   UNL     1      -0.256  -4.231  -2.231  0.00  0.00    -0.274 OA
ATOM      4  C   UNL     1      -0.007  -6.305  -1.161  0.00  0.00    +0.199 C 
ATOM      5  C   UNL     1       0.196  -6.939   0.148  0.00  0.00    +0.198 C 
ATOM      6  N   UNL     1       0.301  -6.164   1.215  0.00  0.00    -0.131 NA
ATOM      7  C   UNL     1       0.228  -4.839   1.135  0.00  0.00    +0.339 C 
ATOM      8  O   UNL     1       0.333  -4.192   2.162  0.00  0.00    -0.250 OA
ENDROOT
BRANCH   1  13
ATOM      9  C   UNL     1      -0.216   1.494   0.043  0.00  0.00    +0.044 C 
ATOM     10  C   UNL     1      -0.147  -0.011   0.027  0.00  0.00    -0.047 A 
ATOM     11  C   UNL     1       0.901  -0.647  -0.612  0.00  0.00    +0.005 A 
ATOM     12  C   UNL     1       0.971  -2.027  -0.624  0.00  0.00    +0.024 A 
ATOM     13  C   UNL     1      -0.020  -2.775  -0.001  0.00  0.00    +0.046 A 
ATOM     14  C   UNL     1      -1.074  -2.134   0.635  0.00  0.00    +0.027 A 
ATOM     15  C   UNL     1      -1.135  -0.754   0.647  0.00  0.00    -0.046 A 
ATOM     16  C   UNL     1      -2.279  -0.057   1.338  0.00  0.00    +0.044 C 
ENDBRANCH   1  13
BRANCH   4  17
ATOM     17  C   UNL     1      -0.124  -7.057  -2.320  0.00  0.00    +0.100 C 
ATOM     18  N   UNL     1      -0.200  -8.399  -2.247  0.00  0.00    -0.293 NA
BRANCH  18  19
ATOM     19  C   UNL     1      -0.198  -9.201  -3.473  0.00  0.00    +0.090 C 
ATOM     20  C   UNL     1      -1.622  -9.297  -4.022  0.00  0.00    +0.025 C 
ATOM     21  C   UNL     1      -2.527  -9.960  -2.982  0.00  0.00    +0.002 C 
ATOM     22  C   UNL     1      -2.004 -11.364  -2.671  0.00  0.00    -0.001 C 
ATOM     23  C   UNL     1      -0.580 -11.268  -2.121  0.00  0.00    -0.014 C 
ATOM     24  C   UNL     1       0.325 -10.605  -3.162  0.00  0.00    -0.050 C 
BRANCH  24  27
ATOM     25  H   UNL     1       2.061 -11.428  -2.421  0.00  0.00    -0.090 HD
ATOM     26  H   UNL     1       2.296 -10.022  -3.277  0.00  0.00    -0.090 HD
ATOM     27  N   UNL     1       1.688 -10.500  -2.613  0.00  0.00    +0.381 N 
ATOM     28  H   UNL     1       1.659  -9.963  -1.738  0.00  0.00    -0.090 HD
ENDBRANCH  24  27
ENDBRANCH  18  19
ENDBRANCH   4  17
BRANCH   5  29
ATOM     29  O   UNL     1       0.274  -8.282   0.260  0.00  0.00    -0.496 OA
ATOM     30  H   UNL     1       0.408  -8.594   1.165  0.00  0.00    +0.293 HD
ENDBRANCH   5  29
TORSDOF 5
