REMARK  Name = ZINC14675648
REMARK  8 active torsions:
REMARK  status: ('A' for Active; 'I' for Inactive)
REMARK    1  A    between atoms: C_1  and  C_2
REMARK    2  A    between atoms: C_2  and  O_3
REMARK    3  A    between atoms: O_3  and  C_4
REMARK    4  A    between atoms: C_4  and  C_6
REMARK    5  A    between atoms: C_7  and  C_29
REMARK    6  A    between atoms: C_10  and  N_11
REMARK    7  A    between atoms: C_12  and  C_14
REMARK    8  A    between atoms: C_14  and  N_15
REMARK                            x       y       z     vdW  Elec       q    Type
REMARK                         _______ _______ _______ _____ _____    ______ ____
ROOT
ATOM      1  N   UNL     1      -1.222  -2.360   2.485  0.00  0.00    -0.278 N 
ATOM      2  C   UNL     1      -1.241  -3.230   3.514  0.00  0.00    +0.236 C 
ATOM      3  O   UNL     1      -1.290  -4.423   3.300  0.00  0.00    -0.274 OA
ATOM      4  H   UNL     1      -1.183  -1.406   2.656  0.00  0.00    +0.155 HD
ENDROOT
BRANCH   1   9
ATOM      5  C   UNL     1      -1.248  -2.095   0.003  0.00  0.00    +0.095 A 
ATOM      6  C   UNL     1      -1.290  -2.848  -1.236  0.00  0.00    +0.005 A 
ATOM      7  C   UNL     1      -1.340  -4.200  -1.127  0.00  0.00    +0.056 A 
ATOM      8  S   UNL     1      -1.333  -4.469   0.633  0.00  0.00    -0.080 S 
ATOM      9  C   UNL     1      -1.259  -2.829   1.181  0.00  0.00    +0.086 A 
BRANCH   6  10
ATOM     10  C   UNL     1      -1.277  -2.175  -2.557  0.00  0.00    -0.017 A 
ATOM     11  C   UNL     1      -2.168  -1.136  -2.821  0.00  0.00    +0.008 A 
ATOM     12  C   UNL     1      -2.149  -0.509  -4.050  0.00  0.00    +0.001 A 
ATOM     13  C   UNL     1      -1.255  -0.918  -5.023  0.00  0.00    +0.000 A 
ATOM     14  C   UNL     1      -0.372  -1.952  -4.769  0.00  0.00    +0.001 A 
ATOM     15  C   UNL     1      -0.378  -2.582  -3.542  0.00  0.00    +0.008 A 
ENDBRANCH   6  10
BRANCH   5  16
ATOM     16  C   UNL     1      -1.191  -0.633   0.010  0.00  0.00    +0.342 C 
ATOM     17  O   UNL     1      -2.220   0.016   0.023  0.00  0.00    -0.245 OA
BRANCH  16  18
ATOM     18  O   UNL     1       0.002  -0.004   0.002  0.00  0.00    -0.461 OA
BRANCH  18  20
ATOM     19  C   UNL     1       1.418   1.977  -0.001  0.00  0.00    +0.048 C 
ATOM     20  C   UNL     1      -0.018   1.448   0.010  0.00  0.00    +0.229 C 
ENDBRANCH  18  20
ENDBRANCH  16  18
ENDBRANCH   5  16
ENDBRANCH   1   9
BRANCH   2  21
ATOM     21  C   UNL     1      -1.200  -2.720   4.932  0.00  0.00    +0.214 C 
BRANCH  21  22
ATOM     22  N   UNL     1      -1.230  -3.854   5.859  0.00  0.00    -0.215 N 
ATOM     23  C   UNL     1      -2.363  -4.394   6.359  0.00  0.00    +0.247 C 
ATOM     24  O   UNL     1      -3.501  -4.027   6.155  0.00  0.00    -0.273 OA
ATOM     25  C   UNL     1      -1.907  -5.542   7.220  0.00  0.00    +0.113 C 
ATOM     26  C   UNL     1      -2.341  -5.343   8.679  0.00  0.00    +0.035 C 
ATOM     27  C   UNL     1      -2.124  -6.650   9.449  0.00  0.00    +0.003 C 
ATOM     28  C   UNL     1      -0.644  -6.954   9.596  0.00  0.00    +0.000 C 
ATOM     29  C   UNL     1      -0.117  -8.062   8.704  0.00  0.00    +0.000 C 
ATOM     30  C   UNL     1      -1.142  -8.701   7.785  0.00  0.00    +0.000 C 
ATOM     31  C   UNL     1      -1.341  -7.879   6.512  0.00  0.00    +0.003 C 
ATOM     32  C   UNL     1      -2.459  -6.869   6.732  0.00  0.00    +0.035 C 
ATOM     33  N   UNL     1      -0.442  -5.492   7.163  0.00  0.00    -0.285 N 
ATOM     34  C   UNL     1      -0.141  -4.479   6.321  0.00  0.00    +0.310 C 
ATOM     35  O   UNL     1       0.995  -4.174   6.018  0.00  0.00    -0.252 OA
ATOM     36  H   UNL     1       0.197  -6.050   7.622  0.00  0.00    +0.151 HD
ENDBRANCH  21  22
ENDBRANCH   2  21
TORSDOF 7
