REMARK  Name = ZINC01429930
REMARK  7 active torsions:
REMARK  status: ('A' for Active; 'I' for Inactive)
REMARK    1  A    between atoms: C_3  and  O_21
REMARK    2  A    between atoms: C_6  and  N_7
REMARK    3  A    between atoms: C_8  and  C_10
REMARK    4  A    between atoms: C_10  and  S_11
REMARK    5  A    between atoms: S_11  and  C_12
REMARK    6  A    between atoms: C_18  and  N_20
REMARK    7  A    between atoms: O_21  and  C_22
REMARK                            x       y       z     vdW  Elec       q    Type
REMARK                         _______ _______ _______ _____ _____    ______ ____
ROOT
ATOM      1  N   UNL     1       1.234  -2.083  -0.020  0.00  0.00    -0.285 N 
ATOM      2  C   UNL     1       2.405  -2.739  -0.137  0.00  0.00    +0.227 C 
ATOM      3  O   UNL     1       3.449  -2.122  -0.144  0.00  0.00    -0.275 OA
ATOM      4  H   UNL     1       0.405  -2.580   0.062  0.00  0.00    +0.155 HD
ENDROOT
BRANCH   1  10
ATOM      5  C   UNL     1       2.138   0.027  -0.775  0.00  0.00    +0.027 A 
ATOM      6  C   UNL     1       2.117   1.408  -0.773  0.00  0.00    +0.048 A 
ATOM      7  C   UNL     1       1.173   2.087  -0.017  0.00  0.00    +0.129 A 
ATOM      8  C   UNL     1       0.249   1.379   0.739  0.00  0.00    +0.048 A 
ATOM      9  C   UNL     1       0.269  -0.001   0.738  0.00  0.00    +0.027 A 
ATOM     10  C   UNL     1       1.213  -0.681  -0.019  0.00  0.00    +0.034 A 
BRANCH   7  11
ATOM     11  O   UNL     1       1.153   3.446  -0.015  0.00  0.00    -0.420 OA
BRANCH  11  12
ATOM     12  C   UNL     1       0.154   4.080   0.786  0.00  0.00    +0.489 C 
ATOM     13  F   UNL     1      -1.115   3.686   0.347  0.00  0.00    -0.149 F 
ATOM     14  F   UNL     1       0.322   3.705   2.123  0.00  0.00    -0.149 F 
ATOM     15 CL   UNL     1       0.311   5.870   0.639  0.00  0.00    +0.000 Cl
ENDBRANCH  11  12
ENDBRANCH   7  11
ENDBRANCH   1  10
BRANCH   2  16
ATOM     16  C   UNL     1       2.417  -4.241  -0.258  0.00  0.00    +0.173 C 
BRANCH  16  17
ATOM     17  S   UNL     1       4.126  -4.821  -0.398  0.00  0.00    -0.078 S 
BRANCH  17  18
ATOM     18  C   UNL     1       3.851  -6.557  -0.522  0.00  0.00    +0.171 A 
ATOM     19  N   UNL     1       4.919  -7.394  -0.647  0.00  0.00    -0.302 N 
ATOM     20  H   UNL     1       5.846  -7.021  -0.668  0.00  0.00    +0.171 HD
ATOM     21  C   UNL     1       4.727  -8.727  -0.743  0.00  0.00    +0.254 A 
ATOM     22  O   UNL     1       5.678  -9.484  -0.856  0.00  0.00    -0.268 OA
ATOM     23  C   UNL     1       3.421  -9.225  -0.712  0.00  0.00    +0.113 A 
ATOM     24  C   UNL     1       2.368  -8.330  -0.584  0.00  0.00    +0.124 A 
ATOM     25  N   UNL     1       2.619  -7.019  -0.486  0.00  0.00    -0.209 NA
BRANCH  24  26
ATOM     26  N   UNL     1       1.067  -8.790  -0.550  0.00  0.00    -0.343 N 
ATOM     27  H   UNL     1       0.887  -9.741  -0.616  0.00  0.00    +0.144 HD
ATOM     28  H   UNL     1       0.332  -8.163  -0.460  0.00  0.00    +0.144 HD
ENDBRANCH  24  26
ENDBRANCH  17  18
ENDBRANCH  16  17
ENDBRANCH   2  16
TORSDOF 7
