REMARK  Name = ZINC36640082
REMARK  7 active torsions:
REMARK  status: ('A' for Active; 'I' for Inactive)
REMARK    1  A    between atoms: C_1  and  C_2
REMARK    2  A    between atoms: C_3  and  C_14
REMARK    3  A    between atoms: N_6  and  C_7
REMARK    4  A    between atoms: C_20  and  C_22
REMARK    5  A    between atoms: C_22  and  C_23
REMARK    6  A    between atoms: C_26  and  S_29
REMARK    7  A    between atoms: S_29  and  N_32
REMARK                            x       y       z     vdW  Elec       q    Type
REMARK                         _______ _______ _______ _____ _____    ______ ____
ROOT
ATOM      1  C   UNL     1      -0.426  -0.377  -2.468  0.00  0.00    +0.272 C 
ATOM      2  O   UNL     1      -0.637   0.798  -2.701  0.00  0.00    -0.268 OA
ATOM      3  N   UNL     1      -0.423  -1.273  -3.475  0.00  0.00    -0.259 N 
ATOM      4  C   UNL     1      -0.660  -0.855  -4.778  0.00  0.00    +0.165 A 
ATOM      5  N   UNL     1      -0.899   0.362  -5.215  0.00  0.00    -0.233 NA
ATOM      6  C   UNL     1      -1.107   0.598  -6.498  0.00  0.00    +0.124 A 
ATOM      7  C   UNL     1      -1.062  -0.467  -7.335  0.00  0.00    +0.015 A 
ATOM      8  S   UNL     1      -0.705  -1.782  -6.182  0.00  0.00    -0.057 S 
ATOM      9  H   UNL     1      -0.255  -2.210  -3.289  0.00  0.00    +0.157 HD
ENDROOT
BRANCH   1  12
ATOM     10  C   UNL     1      -0.374   1.473   0.052  0.00  0.00    +0.068 C 
ATOM     11  C   UNL     1      -0.150  -0.017   0.020  0.00  0.00    +0.074 A 
ATOM     12  C   UNL     1      -0.174  -0.821  -1.085  0.00  0.00    +0.170 A 
ATOM     13  N   UNL     1       0.071  -2.084  -0.697  0.00  0.00    -0.124 NA
ATOM     14  N   UNL     1       0.245  -2.118   0.578  0.00  0.00    -0.060 NA
ATOM     15  N   UNL     1       0.118  -0.814   1.077  0.00  0.00    -0.215 N 
BRANCH  15  16
ATOM     16  C   UNL     1       0.242  -0.415   2.416  0.00  0.00    +0.086 A 
ATOM     17  C   UNL     1       1.030   0.680   2.744  0.00  0.00    +0.029 A 
ATOM     18  C   UNL     1       1.151   1.071   4.064  0.00  0.00    +0.002 A 
ATOM     19  C   UNL     1       0.488   0.374   5.057  0.00  0.00    +0.002 A 
ATOM     20  C   UNL     1      -0.298  -0.717   4.734  0.00  0.00    +0.022 A 
ATOM     21  C   UNL     1      -0.427  -1.110   3.414  0.00  0.00    +0.066 A 
ATOM     22 CL   UNL     1      -1.420  -2.475   3.008  0.00  0.00    -0.081 Cl
ENDBRANCH  15  16
ENDBRANCH   1  12
BRANCH   7  23
ATOM     23  C   UNL     1      -1.255  -0.524  -8.829  0.00  0.00    +0.079 C 
BRANCH  23  24
ATOM     24  C   UNL     1       0.074  -0.338  -9.514  0.00  0.00    -0.042 A 
ATOM     25  C   UNL     1       0.508   0.932  -9.846  0.00  0.00    +0.006 A 
ATOM     26  C   UNL     1       1.727   1.103 -10.475  0.00  0.00    +0.029 A 
ATOM     27  C   UNL     1       2.512   0.004 -10.772  0.00  0.00    +0.105 A 
ATOM     28  C   UNL     1       2.078  -1.265 -10.439  0.00  0.00    +0.029 A 
ATOM     29  C   UNL     1       0.861  -1.436  -9.806  0.00  0.00    +0.006 A 
BRANCH  27  30
ATOM     30  S   UNL     1       4.065   0.222 -11.575  0.00  0.00    +0.056 S 
ATOM     31  O   UNL     1       4.359  -1.003 -12.231  0.00  0.00    -0.153 OA
ATOM     32  O   UNL     1       3.994   1.460 -12.269  0.00  0.00    -0.153 OA
BRANCH  30  33
ATOM     33  N   UNL     1       5.207   0.410 -10.389  0.00  0.00    -0.204 NA
ATOM     34  H   UNL     1       4.945   0.385  -9.456  0.00  0.00    +0.144 HD
ATOM     35  H   UNL     1       6.137   0.544 -10.629  0.00  0.00    +0.144 HD
ENDBRANCH  30  33
ENDBRANCH  27  30
ENDBRANCH  23  24
ENDBRANCH   7  23
TORSDOF 6
