REMARK  Name = ZINC39656032
REMARK  9 active torsions:
REMARK  status: ('A' for Active; 'I' for Inactive)
REMARK    1  A    between atoms: C_1  and  C_2
REMARK    2  A    between atoms: C_8  and  C_11
REMARK    3  A    between atoms: C_11  and  C_12
REMARK    4  A    between atoms: C_12  and  N_13
REMARK    5  A    between atoms: C_14  and  C_16
REMARK    6  A    between atoms: C_27  and  C_29
REMARK    7  A    between atoms: C_29  and  C_30
REMARK    8  A    between atoms: C_30  and  S_31
REMARK    9  A    between atoms: S_31  and  C_32
REMARK                            x       y       z     vdW  Elec       q    Type
REMARK                         _______ _______ _______ _____ _____    ______ ____
ROOT
ATOM      1  C   UNL     1       4.623  -0.116  -7.496  0.00  0.00    +0.100 C 
ATOM      2  C   UNL     1       5.647   0.305  -6.418  0.00  0.00    +0.121 C 
ATOM      3  N   UNL     1       6.099  -0.970  -5.812  0.00  0.00    -0.300 N 
ATOM      4  C   UNL     1       6.207  -1.905  -6.958  0.00  0.00    +0.115 C 
ATOM      5  C   UNL     1       4.996  -1.566  -7.850  0.00  0.00    -0.004 C 
ATOM      6  C   UNL     1       5.381  -1.668  -9.323  0.00  0.00    -0.010 C 
ATOM      7  C   UNL     1       5.691  -3.128  -9.665  0.00  0.00    -0.082 C 
ATOM      8  N   UNL     1       4.513  -3.958  -9.387  0.00  0.00    +0.379 N 
ATOM      9  C   UNL     1       4.206  -3.928  -7.952  0.00  0.00    -0.082 C 
ATOM     10  C   UNL     1       3.833  -2.502  -7.538  0.00  0.00    -0.010 C 
ATOM     11  C   UNL     1       6.354  -1.222  -4.513  0.00  0.00    +0.216 C 
ATOM     12  O   UNL     1       6.720  -2.326  -4.170  0.00  0.00    -0.276 OA
ATOM     13  H   UNL     1       3.723  -3.604  -9.906  0.00  0.00    -0.086 HD
ATOM     14  H   UNL     1       4.699  -4.909  -9.671  0.00  0.00    -0.086 HD
ENDROOT
BRANCH   1  16
ATOM     15  N   UNL     1       2.183   0.182  -7.765  0.00  0.00    -0.315 N 
ATOM     16  C   UNL     1       3.223  -0.055  -6.942  0.00  0.00    +0.218 C 
ATOM     17  O   UNL     1       3.033  -0.220  -5.756  0.00  0.00    -0.275 OA
ATOM     18  H   UNL     1       2.335   0.314  -8.714  0.00  0.00    +0.149 HD
BRANCH  15  19
ATOM     19  C   UNL     1       0.821   0.242  -7.226  0.00  0.00    +0.109 C 
BRANCH  19  20
ATOM     20  C   UNL     1      -0.165   0.522  -8.362  0.00  0.00    +0.056 C 
BRANCH  20  28
ATOM     21  C   UNL     1      -2.256   5.367  -6.134  0.00  0.00    +0.044 C 
ATOM     22  C   UNL     1      -2.687   3.945  -6.388  0.00  0.00    -0.050 A 
ATOM     23  C   UNL     1      -3.961   3.535  -6.021  0.00  0.00    +0.005 A 
ATOM     24  C   UNL     1      -4.374   2.240  -6.244  0.00  0.00    +0.026 A 
ATOM     25  C   UNL     1      -3.507   1.332  -6.844  0.00  0.00    +0.047 A 
ATOM     26  N   UNL     1      -3.617   0.005  -7.192  0.00  0.00    -0.360 N 
ATOM     27  C   UNL     1      -2.451  -0.424  -7.765  0.00  0.00    +0.087 A 
ATOM     28  C   UNL     1      -1.565   0.583  -7.808  0.00  0.00    -0.021 A 
ATOM     29  C   UNL     1      -2.217   1.753  -7.214  0.00  0.00    +0.003 A 
ATOM     30  C   UNL     1      -1.821   3.071  -6.984  0.00  0.00    +0.013 A 
ATOM     31  H   UNL     1      -4.404  -0.545  -7.051  0.00  0.00    +0.165 HD
ENDBRANCH  20  28
ENDBRANCH  19  20
ENDBRANCH  15  19
ENDBRANCH   1  16
BRANCH  11  32
ATOM     32  C   UNL     1       6.184  -0.132  -3.486  0.00  0.00    +0.106 C 
BRANCH  32  33
ATOM     33  C   UNL     1       6.536  -0.677  -2.101  0.00  0.00    +0.078 C 
BRANCH  33  34
ATOM     34  S   UNL     1       6.332   0.635  -0.865  0.00  0.00    -0.164 S 
ATOM     35  C   UNL     1       6.781  -0.163   0.701  0.00  0.00    +0.084 C 
ENDBRANCH  33  34
ENDBRANCH  32  33
ENDBRANCH  11  32
TORSDOF 7
