REMARK  Name = ZINC13639568
REMARK  6 active torsions:
REMARK  status: ('A' for Active; 'I' for Inactive)
REMARK    1  A    between atoms: C_4  and  N_7
REMARK    2  A    between atoms: N_7  and  S_8
REMARK    3  A    between atoms: S_8  and  C_11
REMARK    4  A    between atoms: C_24  and  C_27
REMARK    5  A    between atoms: C_30  and  O_34
REMARK    6  A    between atoms: C_32  and  O_33
REMARK                            x       y       z     vdW  Elec       q    Type
REMARK                         _______ _______ _______ _____ _____    ______ ____
ROOT
ATOM      1  C   UNL     1       3.376   3.209   0.403  0.00  0.00    +0.109 A 
ATOM      2  C   UNL     1       2.198   3.850   0.065  0.00  0.00    +0.030 A 
ATOM      3  C   UNL     1       1.004   3.159   0.115  0.00  0.00    +0.025 A 
ATOM      4  C   UNL     1       0.989   1.825   0.504  0.00  0.00    +0.031 A 
ATOM      5  C   UNL     1       2.177   1.167   0.826  0.00  0.00    -0.018 A 
ATOM      6  C   UNL     1       3.377   1.862   0.762  0.00  0.00    +0.034 A 
ATOM      7  C   UNL     1       2.216  -0.272   1.269  0.00  0.00    +0.049 C 
ATOM      8  C   UNL     1       2.812  -0.294   2.678  0.00  0.00    -0.023 C 
ATOM      9  C   UNL     1       1.863  -0.329   3.580  0.00  0.00    -0.030 C 
ATOM     10  C   UNL     1       0.498  -0.329   2.915  0.00  0.00    +0.033 C 
ATOM     11  C   UNL     1       0.808  -0.853   1.492  0.00  0.00    +0.029 C 
ATOM     12  C   UNL     1      -0.196  -0.325   0.485  0.00  0.00    +0.108 C 
ATOM     13  N   UNL     1      -0.231   1.141   0.547  0.00  0.00    -0.336 N 
ATOM     14  H   UNL     1      -1.072   1.620   0.612  0.00  0.00    +0.147 HD
ENDROOT
BRANCH  12  15
ATOM     15  C   UNL     1       0.208  -0.759  -0.900  0.00  0.00    +0.015 A 
ATOM     16  C   UNL     1       0.826   0.137  -1.752  0.00  0.00    +0.012 A 
ATOM     17  C   UNL     1       1.199  -0.258  -3.022  0.00  0.00    +0.046 A 
ATOM     18  C   UNL     1       0.953  -1.556  -3.446  0.00  0.00    +0.120 A 
ATOM     19  C   UNL     1       0.333  -2.457  -2.594  0.00  0.00    +0.091 A 
ATOM     20  C   UNL     1      -0.035  -2.060  -1.318  0.00  0.00    +0.125 A 
BRANCH  20  21
ATOM     21  O   UNL     1      -0.638  -2.942  -0.478  0.00  0.00    -0.506 OA
ATOM     22  H   UNL     1      -1.603  -2.950  -0.543  0.00  0.00    +0.292 HD
ENDBRANCH  20  21
BRANCH  18  23
ATOM     23  O   UNL     1       1.319  -1.944  -4.696  0.00  0.00    -0.507 OA
ATOM     24  H   UNL     1       2.214  -2.307  -4.749  0.00  0.00    +0.292 HD
ENDBRANCH  18  23
ENDBRANCH  12  15
BRANCH   1  25
ATOM     25  S   UNL     1       4.902   4.087   0.339  0.00  0.00    +0.072 S 
ATOM     26  O   UNL     1       5.912   3.127   0.064  0.00  0.00    -0.150 OA
ATOM     27  O   UNL     1       4.684   5.222  -0.488  0.00  0.00    -0.150 OA
BRANCH  25  28
ATOM     28  N   UNL     1       5.199   4.663   1.863  0.00  0.00    -0.216 N 
ATOM     29  H   UNL     1       5.224   5.619   2.025  0.00  0.00    +0.174 HD
BRANCH  28  33
ATOM     30  C   UNL     1       5.841   2.006   5.004  0.00  0.00    +0.000 A 
ATOM     31  C   UNL     1       6.835   2.218   4.066  0.00  0.00    +0.002 A 
ATOM     32  C   UNL     1       6.625   3.098   3.023  0.00  0.00    +0.024 A 
ATOM     33  C   UNL     1       5.415   3.771   2.917  0.00  0.00    +0.048 A 
ATOM     34  C   UNL     1       4.421   3.560   3.864  0.00  0.00    +0.024 A 
ATOM     35  C   UNL     1       4.635   2.674   4.902  0.00  0.00    +0.002 A 
ENDBRANCH  28  33
ENDBRANCH  25  28
ENDBRANCH   1  25
TORSDOF 6
