REMARK  Name = ZINC00708955
REMARK  7 active torsions:
REMARK  status: ('A' for Active; 'I' for Inactive)
REMARK    1  A    between atoms: C_1  and  C_2
REMARK    2  A    between atoms: C_2  and  O_3
REMARK    3  A    between atoms: O_3  and  C_4
REMARK    4  A    between atoms: C_7  and  N_10
REMARK    5  A    between atoms: C_11  and  C_13
REMARK    6  A    between atoms: C_14  and  C_28
REMARK    7  A    between atoms: C_19  and  C_21
REMARK                            x       y       z     vdW  Elec       q    Type
REMARK                         _______ _______ _______ _____ _____    ______ ____
ROOT
ATOM      1  C   UNL     1      -0.635   2.407   1.588  0.00  0.00    +0.056 C 
ATOM      2  C   UNL     1       0.034   3.576   1.681  0.00  0.00    +0.017 C 
ATOM      3  N   UNL     1       1.358   3.659   1.355  0.00  0.00    -0.300 N 
ATOM      4  C   UNL     1       2.084   2.618   0.927  0.00  0.00    +0.135 C 
ATOM      5  S   UNL     1       3.736   2.860   0.550  0.00  0.00    -0.019 S 
ATOM      6  N   UNL     1       1.556   1.387   0.782  0.00  0.00    -0.315 N 
ATOM      7  C   UNL     1       0.133   1.191   1.109  0.00  0.00    +0.141 C 
ATOM      8  C   UNL     1      -0.692   4.809   2.153  0.00  0.00    +0.061 C 
ATOM      9  H   UNL     1       1.796   4.520   1.438  0.00  0.00    +0.154 HD
ATOM     10  H   UNL     1       2.100   0.646   0.470  0.00  0.00    +0.149 HD
ENDROOT
BRANCH   7  11
ATOM     11  C   UNL     1      -0.557   0.662  -0.121  0.00  0.00    -0.004 A 
ATOM     12  C   UNL     1      -0.278   1.208  -1.360  0.00  0.00    +0.007 A 
ATOM     13  C   UNL     1      -0.911   0.722  -2.489  0.00  0.00    +0.000 A 
ATOM     14  C   UNL     1      -1.824  -0.311  -2.380  0.00  0.00    +0.001 A 
ATOM     15  C   UNL     1      -2.104  -0.857  -1.142  0.00  0.00    +0.020 A 
ATOM     16  C   UNL     1      -1.467  -0.375  -0.012  0.00  0.00    +0.046 A 
ATOM     17 CL   UNL     1      -1.812  -1.067   1.542  0.00  0.00    -0.083 Cl
ENDBRANCH   7  11
BRANCH   1  19
ATOM     18  N   UNL     1      -2.937   2.856   1.110  0.00  0.00    -0.282 N 
ATOM     19  C   UNL     1      -2.007   2.320   1.925  0.00  0.00    +0.248 C 
ATOM     20  O   UNL     1      -2.347   1.760   2.952  0.00  0.00    -0.270 OA
ATOM     21  H   UNL     1      -2.678   3.209   0.245  0.00  0.00    +0.155 HD
BRANCH  18  25
ATOM     22  C   UNL     1      -6.929   2.994   2.307  0.00  0.00    +0.121 A 
ATOM     23  C   UNL     1      -6.405   4.010   1.522  0.00  0.00    +0.047 A 
ATOM     24  C   UNL     1      -5.083   3.966   1.125  0.00  0.00    +0.027 A 
ATOM     25  C   UNL     1      -4.278   2.902   1.512  0.00  0.00    +0.034 A 
ATOM     26  C   UNL     1      -4.804   1.882   2.294  0.00  0.00    +0.027 A 
ATOM     27  C   UNL     1      -6.125   1.931   2.693  0.00  0.00    +0.047 A 
BRANCH  22  28
ATOM     28  O   UNL     1      -8.230   3.039   2.697  0.00  0.00    -0.492 OA
BRANCH  28  30
ATOM     29  C   UNL     1     -10.179   2.182   3.841  0.00  0.00    +0.048 C 
ATOM     30  C   UNL     1      -8.704   1.958   3.504  0.00  0.00    +0.225 C 
ENDBRANCH  28  30
ENDBRANCH  22  28
ENDBRANCH  18  25
ENDBRANCH   1  19
TORSDOF 5
