REMARK  Name = ZINC11790037
REMARK  11 active torsions:
REMARK  status: ('A' for Active; 'I' for Inactive)
REMARK    1  A    between atoms: C_1  and  C_2
REMARK    2  A    between atoms: C_2  and  N_67
REMARK    3  A    between atoms: C_7  and  C_9
REMARK    4  A    between atoms: N_11  and  C_12
REMARK    5  A    between atoms: C_12  and  C_13
REMARK    6  A    between atoms: C_14  and  C_35
REMARK    7  A    between atoms: C_16  and  C_18
REMARK    8  A    between atoms: C_23  and  N_24
REMARK    9  A    between atoms: N_24  and  S_25
REMARK   10  A    between atoms: S_25  and  C_28
REMARK   11  A    between atoms: C_28  and  C_29
REMARK                            x       y       z     vdW  Elec       q    Type
REMARK                         _______ _______ _______ _____ _____    ______ ____
ROOT
ATOM      1  C   UNL     1       6.882  -0.921   4.198  0.00  0.00    +0.100 A 
ATOM      2  C   UNL     1       7.347   0.221   4.735  0.00  0.00    +0.127 A 
ATOM      3  O   UNL     1       8.613   0.382   4.301  0.00  0.00    -0.440 OA
ATOM      4  C   UNL     1       8.908  -0.660   3.504  0.00  0.00    +0.230 A 
ATOM      5  N   UNL     1       7.861  -1.451   3.447  0.00  0.00    -0.212 NA
ATOM      6  C   UNL     1       6.593   1.148   5.653  0.00  0.00    +0.088 C 
ENDROOT
BRANCH   4   7
ATOM      7  C   UNL     1      10.194  -0.882   2.814  0.00  0.00    +0.059 A 
ATOM      8  C   UNL     1      10.377  -2.012   2.016  0.00  0.00    +0.015 A 
ATOM      9  C   UNL     1      11.579  -2.211   1.371  0.00  0.00    +0.001 A 
ATOM     10  C   UNL     1      12.611  -1.300   1.518  0.00  0.00    +0.002 A 
ATOM     11  C   UNL     1      12.446  -0.179   2.308  0.00  0.00    +0.025 A 
ATOM     12  C   UNL     1      11.241   0.039   2.962  0.00  0.00    +0.060 A 
BRANCH  12  13
ATOM     13  N   UNL     1      11.073   1.168   3.760  0.00  0.00    -0.220 N 
ATOM     14  H   UNL     1      10.493   1.131   4.537  0.00  0.00    +0.173 HD
BRANCH  13  15
ATOM     15  S   UNL     1      11.863   2.574   3.384  0.00  0.00    +0.047 S 
ATOM     16  O   UNL     1      11.392   3.520   4.334  0.00  0.00    -0.155 OA
ATOM     17  O   UNL     1      13.238   2.216   3.339  0.00  0.00    -0.155 OA
BRANCH  15  18
ATOM     18  C   UNL     1      11.276   3.009   1.724  0.00  0.00    +0.223 C 
BRANCH  18  19
ATOM     19  C   UNL     1      11.937   4.287   1.276  0.00  0.00    -0.025 A 
ATOM     20  C   UNL     1      11.343   5.505   1.548  0.00  0.00    +0.005 A 
ATOM     21  C   UNL     1      11.952   6.677   1.142  0.00  0.00    +0.000 A 
ATOM     22  C   UNL     1      13.150   6.631   0.454  0.00  0.00    +0.000 A 
ATOM     23  C   UNL     1      13.742   5.413   0.177  0.00  0.00    +0.000 A 
ATOM     24  C   UNL     1      13.135   4.241   0.588  0.00  0.00    +0.005 A 
ENDBRANCH  18  19
ENDBRANCH  15  18
ENDBRANCH  13  15
ENDBRANCH  12  13
ENDBRANCH   4   7
BRANCH   1  25
ATOM     25  C   UNL     1       5.509  -1.506   4.406  0.00  0.00    +0.163 C 
BRANCH  25  28
ATOM     26  C   UNL     1       3.308  -1.379   3.369  0.00  0.00    +0.200 C 
ATOM     27  O   UNL     1       2.900  -2.155   4.208  0.00  0.00    -0.278 OA
ATOM     28  N   UNL     1       4.598  -0.991   3.381  0.00  0.00    -0.311 N 
ATOM     29  H   UNL     1       4.924  -0.370   2.710  0.00  0.00    +0.149 HD
BRANCH  26  34
ATOM     30  C   UNL     1       0.382  -1.362   1.029  0.00  0.00    -0.078 C 
ATOM     31  C   UNL     1      -0.280  -0.052   1.463  0.00  0.00    -0.019 C 
ATOM     32  C   UNL     1       0.802   1.000   1.721  0.00  0.00    -0.003 C 
ATOM     33  C   UNL     1       1.768   0.476   2.787  0.00  0.00    -0.006 C 
ATOM     34  C   UNL     1       2.371  -0.850   2.315  0.00  0.00    +0.019 C 
ATOM     35  N   UNL     1       1.280  -1.826   2.108  0.00  0.00    +0.387 N 
ATOM     36  H   UNL     1       0.740  -1.911   2.977  0.00  0.00    -0.081 HD
BRANCH  35  38
ATOM     37  C   UNL     1       0.765  -4.211   1.974  0.00  0.00    -0.017 C 
ATOM     38  C   UNL     1       1.844  -3.147   1.762  0.00  0.00    -0.081 C 
ENDBRANCH  35  38
ENDBRANCH  26  34
ENDBRANCH  25  28
ENDBRANCH   1  25
TORSDOF 9
