REMARK  Name = ZINC34953587
REMARK  9 active torsions:
REMARK  status: ('A' for Active; 'I' for Inactive)
REMARK    1  A    between atoms: C_1  and  O_2
REMARK    2  A    between atoms: O_2  and  C_3
REMARK    3  A    between atoms: C_6  and  C_9
REMARK    4  A    between atoms: N_14  and  C_29
REMARK    5  A    between atoms: C_18  and  C_27
REMARK    6  A    between atoms: C_19  and  N_26
REMARK    7  A    between atoms: C_21  and  C_22
REMARK    8  A    between atoms: C_21  and  C_24
REMARK    9  A    between atoms: C_29  and  C_30
REMARK                            x       y       z     vdW  Elec       q    Type
REMARK                         _______ _______ _______ _____ _____    ______ ____
ROOT
ATOM      1  C   UNL     1      -4.981  -2.629   0.035  0.00  0.00    +0.064 C 
ATOM      2  C   UNL     1      -5.157  -3.365  -1.272  0.00  0.00    +0.046 C 
ATOM      3  C   UNL     1      -3.824  -3.604  -1.985  0.00  0.00    +0.093 C 
ATOM      4  N   UNL     1      -4.087  -4.160  -3.316  0.00  0.00    -0.395 NA
ATOM      5  C   UNL     1      -4.912  -5.272  -3.295  0.00  0.00    +0.053 C 
ATOM      6  C   UNL     1      -5.765  -5.578  -2.324  0.00  0.00    +0.018 C 
ATOM      7  C   UNL     1      -5.827  -4.703  -1.145  0.00  0.00    -0.026 C 
ATOM      8  C   UNL     1      -6.430  -5.133  -0.026  0.00  0.00    +0.052 C 
ATOM      9  C   UNL     1      -6.361  -4.311   1.238  0.00  0.00    +0.127 C 
ATOM     10  C   UNL     1      -5.037  -3.571   1.235  0.00  0.00    +0.170 C 
ATOM     11  H   UNL     1      -4.520  -3.448  -3.884  0.00  0.00    +0.126 HD
ENDROOT
BRANCH   1  15
ATOM     12  C   UNL     1      -1.200  -0.637   0.010  0.00  0.00    +0.120 A 
ATOM     13  C   UNL     1      -2.374   0.101   0.034  0.00  0.00    +0.046 A 
ATOM     14  C   UNL     1      -3.595  -0.545   0.042  0.00  0.00    +0.007 A 
ATOM     15  C   UNL     1      -3.648  -1.927   0.026  0.00  0.00    -0.041 A 
ATOM     16  C   UNL     1      -2.479  -2.665   0.002  0.00  0.00    +0.007 A 
ATOM     17  C   UNL     1      -1.256  -2.023  -0.012  0.00  0.00    +0.046 A 
BRANCH  12  19
ATOM     18  C   UNL     1      -0.017   1.425   0.026  0.00  0.00    +0.277 C 
ATOM     19  O   UNL     1       0.002  -0.004   0.002  0.00  0.00    -0.495 OA
ENDBRANCH  12  19
ENDBRANCH   1  15
BRANCH   9  20
ATOM     20  N   UNL     1      -7.464  -3.340   1.262  0.00  0.00    -0.321 NA
ATOM     21  H   UNL     1      -8.357  -3.807   1.232  0.00  0.00    +0.119 HD
ATOM     22  H   UNL     1      -7.397  -2.738   2.068  0.00  0.00    +0.119 HD
ENDBRANCH   9  20
BRANCH  10  23
ATOM     23  C   UNL     1      -3.953  -4.562   1.137  0.00  0.00    +0.087 C 
ATOM     24  N   UNL     1      -3.116  -5.326   1.062  0.00  0.00    -0.195 NA
ENDBRANCH  10  23
BRANCH  10  25
ATOM     25  C   UNL     1      -4.894  -2.797   2.479  0.00  0.00    +0.087 C 
ATOM     26  N   UNL     1      -4.784  -2.200   3.439  0.00  0.00    -0.195 NA
ENDBRANCH  10  25
BRANCH   8  27
ATOM     27  C   UNL     1      -7.140  -6.376  -0.031  0.00  0.00    +0.097 C 
ATOM     28  N   UNL     1      -7.703  -7.363  -0.035  0.00  0.00    -0.191 NA
ENDBRANCH   8  27
BRANCH   4  29
ATOM     29  C   UNL     1      -2.807  -4.535  -3.931  0.00  0.00    +0.120 C 
BRANCH  29  30
ATOM     30  C   UNL     1      -3.065  -5.221  -5.248  0.00  0.00    -0.032 A 
ATOM     31  C   UNL     1      -3.229  -6.593  -5.292  0.00  0.00    +0.005 A 
ATOM     32  C   UNL     1      -3.465  -7.223  -6.499  0.00  0.00    +0.000 A 
ATOM     33  C   UNL     1      -3.538  -6.481  -7.663  0.00  0.00    +0.000 A 
ATOM     34  C   UNL     1      -3.374  -5.109  -7.619  0.00  0.00    +0.000 A 
ATOM     35  C   UNL     1      -3.142  -4.479  -6.411  0.00  0.00    +0.005 A 
ENDBRANCH  29  30
ENDBRANCH   4  29
TORSDOF 8
