REMARK  Name = ZINC36637600
REMARK  12 active torsions:
REMARK  status: ('A' for Active; 'I' for Inactive)
REMARK    1  A    between atoms: C_1  and  C_2
REMARK    2  A    between atoms: C_2  and  C_3
REMARK    3  A    between atoms: N_9  and  S_10
REMARK    4  A    between atoms: S_10  and  C_13
REMARK    5  A    between atoms: C_16  and  C_19
REMARK    6  A    between atoms: N_21  and  C_22
REMARK    7  A    between atoms: C_22  and  C_23
REMARK    8  A    between atoms: C_23  and  N_24
REMARK    9  A    between atoms: N_24  and  C_25
REMARK   10  A    between atoms: N_24  and  C_26
REMARK   11  A    between atoms: C_30  and  C_37
REMARK   12  A    between atoms: C_31  and  C_36
REMARK                            x       y       z     vdW  Elec       q    Type
REMARK                         _______ _______ _______ _____ _____    ______ ____
ROOT
ATOM      1  C   UNL     1       2.156  -2.615  -6.695  0.00  0.00    +0.252 C 
ATOM      2  O   UNL     1       3.312  -2.986  -6.651  0.00  0.00    -0.270 OA
ATOM      3  N   UNL     1       1.249  -3.318  -7.403  0.00  0.00    -0.248 N 
ATOM      4  C   UNL     1       1.581  -4.563  -7.909  0.00  0.00    +0.168 A 
ATOM      5  N   UNL     1       2.712  -5.221  -7.801  0.00  0.00    -0.224 NA
ATOM      6  C   UNL     1       2.897  -6.441  -8.351  0.00  0.00    +0.083 A 
ATOM      7  C   UNL     1       4.057  -7.250  -8.310  0.00  0.00    -0.021 A 
ATOM      8  C   UNL     1       4.079  -8.474  -8.927  0.00  0.00    -0.045 A 
ATOM      9  C   UNL     1       2.973  -8.962  -9.608  0.00  0.00    +0.005 A 
ATOM     10  C   UNL     1       1.823  -8.197  -9.668  0.00  0.00    +0.017 A 
ATOM     11  C   UNL     1       1.791  -6.970  -9.054  0.00  0.00    +0.041 A 
ATOM     12  S   UNL     1       0.576  -5.688  -8.868  0.00  0.00    -0.052 S 
ATOM     13  C   UNL     1       5.332  -9.308  -8.863  0.00  0.00    +0.044 C 
ATOM     14  C   UNL     1       5.282  -6.761  -7.582  0.00  0.00    +0.046 C 
ENDROOT
BRANCH   1  18
ATOM     15  C   UNL     1       0.971   0.898  -4.624  0.00  0.00    +0.106 A 
ATOM     16  C   UNL     1       2.124   0.232  -4.247  0.00  0.00    +0.029 A 
ATOM     17  C   UNL     1       2.514  -0.910  -4.915  0.00  0.00    +0.015 A 
ATOM     18  C   UNL     1       1.743  -1.393  -5.974  0.00  0.00    +0.037 A 
ATOM     19  C   UNL     1       0.582  -0.716  -6.350  0.00  0.00    +0.015 A 
ATOM     20  C   UNL     1       0.200   0.422  -5.669  0.00  0.00    +0.029 A 
BRANCH  15  21
ATOM     21  S   UNL     1       0.480   2.356  -3.764  0.00  0.00    +0.061 S 
ATOM     22  O   UNL     1      -0.187   3.180  -4.711  0.00  0.00    -0.153 OA
ATOM     23  O   UNL     1       1.616   2.800  -3.035  0.00  0.00    -0.153 OA
BRANCH  21  29
ATOM     24  C   UNL     1      -0.247   1.359  -1.344  0.00  0.00    +0.080 C 
ATOM     25  C   UNL     1      -0.952   0.016  -1.128  0.00  0.00    +0.021 C 
ATOM     26  C   UNL     1      -2.462   0.205  -1.285  0.00  0.00    +0.003 C 
ATOM     27  C   UNL     1      -2.773   0.691  -2.703  0.00  0.00    +0.017 C 
ATOM     28  C   UNL     1      -2.089   2.042  -2.937  0.00  0.00    +0.110 C 
ATOM     29  N   UNL     1      -0.655   1.906  -2.646  0.00  0.00    -0.174 NA
BRANCH  24  31
ATOM     30  C   UNL     1       1.675   0.466  -0.021  0.00  0.00    +0.005 C 
ATOM     31  C   UNL     1       1.268   1.152  -1.327  0.00  0.00    +0.017 C 
ENDBRANCH  24  31
ENDBRANCH  21  29
ENDBRANCH  15  21
ENDBRANCH   1  18
BRANCH   3  32
ATOM     32  C   UNL     1      -0.087  -2.765  -7.636  0.00  0.00    +0.097 C 
BRANCH  32  33
ATOM     33  C   UNL     1      -0.004  -1.659  -8.690  0.00  0.00    -0.060 C 
BRANCH  33  34
ATOM     34  N   UNL     1      -1.353  -1.151  -8.974  0.00  0.00    +0.377 N 
ATOM     35  C   UNL     1      -1.895  -0.503  -7.772  0.00  0.00    -0.097 C 
ATOM     36  C   UNL     1      -1.288  -0.175 -10.070  0.00  0.00    -0.097 C 
ATOM     37  H   UNL     1      -1.952  -1.918  -9.242  0.00  0.00    -0.083 HD
ENDBRANCH  33  34
ENDBRANCH  32  33
ENDBRANCH   3  32
TORSDOF 7
