REMARK  Name = ZINC11774949
REMARK  8 active torsions:
REMARK  status: ('A' for Active; 'I' for Inactive)
REMARK    1  A    between atoms: C_4  and  C_7
REMARK    2  A    between atoms: C_7  and  C_8
REMARK    3  A    between atoms: C_8  and  C_9
REMARK    4  A    between atoms: C_9  and  N_68
REMARK    5  A    between atoms: C_15  and  C_17
REMARK    6  A    between atoms: C_17  and  C_18
REMARK    7  A    between atoms: N_20  and  C_21
REMARK    8  A    between atoms: C_21  and  C_22
REMARK                            x       y       z     vdW  Elec       q    Type
REMARK                         _______ _______ _______ _____ _____    ______ ____
ROOT
ATOM      1  C   UNL     1      -1.644  -1.071   4.317  0.00  0.00    -0.059 C 
ATOM      2  C   UNL     1      -1.942  -0.627   2.884  0.00  0.00    +0.085 C 
ATOM      3  N   UNL     1      -1.583   0.777   2.709  0.00  0.00    -0.318 N 
ATOM      4  C   UNL     1      -0.764   1.427   3.543  0.00  0.00    +0.200 C 
ATOM      5  O   UNL     1      -0.494   2.586   3.307  0.00  0.00    -0.278 OA
ATOM      6  C   UNL     1      -0.165   0.782   4.761  0.00  0.00    +0.028 C 
ATOM      7  H   UNL     1      -1.956   1.261   1.955  0.00  0.00    +0.149 HD
ATOM      8  N   UNL     1      -0.254  -0.684   4.635  0.00  0.00    +0.389 N 
ATOM      9  H   UNL     1       0.362  -0.995   3.875  0.00  0.00    -0.081 HD
ENDROOT
BRANCH   8  10
ATOM     10  C   UNL     1       0.176  -1.328   5.897  0.00  0.00    -0.077 C 
BRANCH  10  11
ATOM     11  C   UNL     1      -0.786  -0.967   7.031  0.00  0.00    -0.014 C 
BRANCH  11  12
ATOM     12  C   UNL     1      -0.343  -1.667   8.318  0.00  0.00    +0.033 C 
BRANCH  12  16
ATOM     13  C   UNL     1      -3.028  -0.660  11.484  0.00  0.00    +0.000 A 
ATOM     14  C   UNL     1      -3.276  -1.766  10.693  0.00  0.00    +0.000 A 
ATOM     15  C   UNL     1      -2.407  -2.092   9.668  0.00  0.00    +0.003 A 
ATOM     16  C   UNL     1      -1.290  -1.312   9.434  0.00  0.00    -0.047 A 
ATOM     17  C   UNL     1      -1.040  -0.208  10.229  0.00  0.00    +0.003 A 
ATOM     18  C   UNL     1      -1.911   0.121  11.250  0.00  0.00    +0.000 A 
ENDBRANCH  12  16
ENDBRANCH  11  12
ENDBRANCH  10  11
ENDBRANCH   8  10
BRANCH   6  19
ATOM     19  C   UNL     1       1.307   1.183   4.875  0.00  0.00    +0.089 C 
BRANCH  19  20
ATOM     20  C   UNL     1       2.063   0.667   3.678  0.00  0.00    +0.212 C 
ATOM     21  O   UNL     1       1.505  -0.044   2.869  0.00  0.00    -0.276 OA
ATOM     22  N   UNL     1       3.359   0.995   3.506  0.00  0.00    -0.315 N 
ATOM     23  H   UNL     1       3.805   1.564   4.153  0.00  0.00    +0.149 HD
BRANCH  22  24
ATOM     24  C   UNL     1       4.093   0.493   2.343  0.00  0.00    +0.108 C 
BRANCH  24  25
ATOM     25  C   UNL     1       5.533   1.010   2.387  0.00  0.00    +0.012 C 
ATOM     26  C   UNL     1       5.533   2.533   2.239  0.00  0.00    -0.006 C 
ATOM     27  C   UNL     1       6.973   3.050   2.283  0.00  0.00    +0.007 C 
ATOM     28  C   UNL     1       7.773   2.426   1.138  0.00  0.00    -0.010 C 
ATOM     29  C   UNL     1       7.135   2.809  -0.198  0.00  0.00    +0.007 C 
ATOM     30  C   UNL     1       5.695   2.293  -0.242  0.00  0.00    -0.010 C 
ATOM     31  C   UNL     1       4.894   2.916   0.903  0.00  0.00    +0.007 C 
ATOM     32  C   UNL     1       5.695   0.770  -0.095  0.00  0.00    +0.007 C 
ATOM     33  C   UNL     1       6.334   0.387   1.242  0.00  0.00    -0.006 C 
ATOM     34  C   UNL     1       7.773   0.903   1.286  0.00  0.00    +0.007 C 
ENDBRANCH  24  25
ENDBRANCH  22  24
ENDBRANCH  19  20
ENDBRANCH   6  19
TORSDOF 8
