REMARK  Name = ZINC10272228
REMARK  7 active torsions:
REMARK  status: ('A' for Active; 'I' for Inactive)
REMARK    1  A    between atoms: C_1  and  C_2
REMARK    2  A    between atoms: C_2  and  C_3
REMARK    3  A    between atoms: C_2  and  C_4
REMARK    4  A    between atoms: C_7  and  C_10
REMARK    5  A    between atoms: C_22  and  O_36
REMARK    6  A    between atoms: C_26  and  C_35
REMARK    7  A    between atoms: C_31  and  C_34
REMARK                            x       y       z     vdW  Elec       q    Type
REMARK                         _______ _______ _______ _____ _____    ______ ____
ROOT
ATOM      1  C   UNL     1      -4.882   2.798   2.063  0.00  0.00    +0.015 C 
ATOM      2  C   UNL     1      -4.718   1.561   1.538  0.00  0.00    -0.004 C 
ATOM      3  C   UNL     1      -4.456   0.290   2.328  0.00  0.00    +0.043 C 
ATOM      4  C   UNL     1      -3.761  -0.644   1.289  0.00  0.00    +0.010 C 
ATOM      5  C   UNL     1      -2.303  -0.185   1.206  0.00  0.00    -0.003 C 
ATOM      6  C   UNL     1      -1.541  -0.723   2.420  0.00  0.00    +0.004 C 
ATOM      7  C   UNL     1      -0.087  -0.251   2.365  0.00  0.00    +0.004 C 
ATOM      8  C   UNL     1       0.563  -0.759   1.092  0.00  0.00    -0.002 C 
ATOM      9  C   UNL     1       2.020  -0.295   1.039  0.00  0.00    +0.035 C 
ATOM     10  C   UNL     1       2.068   1.234   1.043  0.00  0.00    +0.115 C 
ATOM     11  C   UNL     1       1.316   1.772  -0.176  0.00  0.00    +0.032 C 
ATOM     12  C   UNL     1      -0.140   1.307  -0.123  0.00  0.00    +0.010 C 
ATOM     13  C   UNL     1      -0.188  -0.222  -0.128  0.00  0.00    -0.026 C 
ATOM     14  C   UNL     1      -1.646  -0.686  -0.078  0.00  0.00    -0.001 C 
ATOM     15  C   UNL     1      -2.393  -0.109  -1.286  0.00  0.00    +0.005 C 
ATOM     16  C   UNL     1      -3.830  -0.627  -1.258  0.00  0.00    +0.015 C 
ATOM     17  C   UNL     1      -4.538  -0.248   0.021  0.00  0.00    +0.034 C 
ATOM     18  C   UNL     1      -4.762   1.237   0.158  0.00  0.00    +0.165 C 
ATOM     19  O   UNL     1      -4.947   2.018  -0.753  0.00  0.00    -0.292 OA
ATOM     20  C   UNL     1      -5.897  -0.951   0.042  0.00  0.00    +0.020 C 
ATOM     21  C   UNL     1       0.471  -0.749  -1.404  0.00  0.00    +0.012 C 
ENDROOT
BRANCH   1  25
ATOM     22  C   UNL     1      -5.141   3.298   6.266  0.00  0.00    -0.045 A 
ATOM     23  C   UNL     1      -4.778   4.368   5.467  0.00  0.00    +0.004 A 
ATOM     24  C   UNL     1      -4.692   4.214   4.099  0.00  0.00    +0.008 A 
ATOM     25  C   UNL     1      -4.971   2.971   3.521  0.00  0.00    -0.025 A 
ATOM     26  C   UNL     1      -5.343   1.896   4.335  0.00  0.00    +0.008 A 
ATOM     27  C   UNL     1      -5.419   2.066   5.701  0.00  0.00    +0.004 A 
BRANCH  22  29
ATOM     28  C   UNL     1      -6.659   3.168   8.223  0.00  0.00    +0.012 C 
ATOM     29  C   UNL     1      -5.234   3.476   7.760  0.00  0.00    +0.013 C 
ATOM     30  C   UNL     1      -4.256   2.522   8.449  0.00  0.00    +0.012 C 
ENDBRANCH  22  29
ENDBRANCH   1  25
BRANCH  10  31
ATOM     31  O   UNL     1       1.455   1.727   2.236  0.00  0.00    -0.392 OA
ATOM     32  H   UNL     1       1.450   2.691   2.307  0.00  0.00    +0.210 HD
ENDBRANCH  10  31
TORSDOF 3
