REMARK  Name = ZINC09311961
REMARK  9 active torsions:
REMARK  status: ('A' for Active; 'I' for Inactive)
REMARK    1  A    between atoms: C_1  and  C_2
REMARK    2  A    between atoms: C_2  and  O_3
REMARK    3  A    between atoms: O_3  and  C_4
REMARK    4  A    between atoms: C_7  and  N_10
REMARK    5  A    between atoms: C_19  and  S_20
REMARK    6  A    between atoms: S_20  and  C_21
REMARK    7  A    between atoms: C_21  and  C_22
REMARK    8  A    between atoms: C_25  and  N_28
REMARK    9  A    between atoms: C_34  and  N_59
REMARK                            x       y       z     vdW  Elec       q    Type
REMARK                         _______ _______ _______ _____ _____    ______ ____
ROOT
ATOM      1  N   UNL     1      -2.404   1.218   0.032  0.00  0.00    -0.255 N 
ATOM      2  C   UNL     1      -1.364   1.909  -0.471  0.00  0.00    +0.268 A 
ATOM      3  O   UNL     1      -1.525   3.037  -0.906  0.00  0.00    -0.267 OA
ATOM      4  C   UNL     1      -0.067   1.307  -0.479  0.00  0.00    +0.076 A 
ATOM      5  C   UNL     1       1.192   1.868  -0.967  0.00  0.00    -0.026 A 
ATOM      6  C   UNL     1       2.291   1.089  -0.869  0.00  0.00    -0.021 A 
ATOM      7  S   UNL     1       1.723  -0.416  -0.130  0.00  0.00    -0.075 S 
ATOM      8  C   UNL     1       0.006   0.004   0.045  0.00  0.00    +0.117 A 
ATOM      9  N   UNL     1      -1.060  -0.626   0.522  0.00  0.00    -0.215 NA
ATOM     10  C   UNL     1      -2.243  -0.047   0.523  0.00  0.00    +0.178 A 
ATOM     11  C   UNL     1       3.680   1.446  -1.301  0.00  0.00    -0.036 C 
ATOM     12  C   UNL     1       2.778   3.679  -1.549  0.00  0.00    -0.074 C 
ATOM     13  C   UNL     1       1.304   3.268  -1.566  0.00  0.00    +0.018 C 
ATOM     14  C   UNL     1       4.942   3.140  -2.493  0.00  0.00    -0.096 C 
ATOM     15  N   UNL     1       3.588   2.626  -2.194  0.00  0.00    +0.381 N 
ATOM     16  H   UNL     1       3.136   2.347  -3.072  0.00  0.00    -0.082 HD
ENDROOT
BRANCH   1  20
ATOM     17  C   UNL     1      -6.191   2.965   0.077  0.00  0.00    +0.121 A 
ATOM     18  C   UNL     1      -5.785   2.219  -1.020  0.00  0.00    +0.047 A 
ATOM     19  C   UNL     1      -4.531   1.641  -1.035  0.00  0.00    +0.030 A 
ATOM     20  C   UNL     1      -3.677   1.806   0.047  0.00  0.00    +0.052 A 
ATOM     21  C   UNL     1      -4.087   2.547   1.147  0.00  0.00    +0.030 A 
ATOM     22  C   UNL     1      -5.338   3.130   1.159  0.00  0.00    +0.047 A 
BRANCH  17  23
ATOM     23  O   UNL     1      -7.426   3.534   0.093  0.00  0.00    -0.492 OA
BRANCH  23  25
ATOM     24  C   UNL     1      -9.193   4.847   1.089  0.00  0.00    +0.048 C 
ATOM     25  C   UNL     1      -7.779   4.288   1.254  0.00  0.00    +0.225 C 
ENDBRANCH  23  25
ENDBRANCH  17  23
ENDBRANCH   1  20
BRANCH  10  26
ATOM     26  S   UNL     1      -3.636  -0.915   1.164  0.00  0.00    -0.083 S 
BRANCH  26  27
ATOM     27  C   UNL     1      -2.844  -2.469   1.646  0.00  0.00    +0.112 C 
BRANCH  27  28
ATOM     28  C   UNL     1      -3.874  -3.396   2.238  0.00  0.00    -0.037 A 
ATOM     29  C   UNL     1      -4.122  -3.375   3.598  0.00  0.00    +0.007 A 
ATOM     30  C   UNL     1      -5.071  -4.222   4.140  0.00  0.00    +0.033 A 
ATOM     31  C   UNL     1      -5.764  -5.096   3.324  0.00  0.00    +0.126 A 
ATOM     32  C   UNL     1      -5.513  -5.120   1.965  0.00  0.00    +0.033 A 
ATOM     33  C   UNL     1      -4.567  -4.270   1.422  0.00  0.00    +0.007 A 
BRANCH  31  34
ATOM     34  N   UNL     1      -6.776  -6.006   3.905  0.00  0.00    +0.056 N 
ATOM     35  O   UNL     1      -7.388  -6.776   3.186  0.00  0.00    -0.126 OA
ATOM     36  O   UNL     1      -6.998  -5.985   5.103  0.00  0.00    -0.126 OA
ENDBRANCH  31  34
ENDBRANCH  27  28
ENDBRANCH  26  27
ENDBRANCH  10  26
TORSDOF 7
