REMARK  Name = ZINC63708514
REMARK  7 active torsions:
REMARK  status: ('A' for Active; 'I' for Inactive)
REMARK    1  A    between atoms: C_7  and  C_10
REMARK    2  A    between atoms: C_10  and  C_11
REMARK    3  A    between atoms: C_11  and  C_12
REMARK    4  A    between atoms: N_14  and  N_15
REMARK    5  A    between atoms: C_16  and  S_27
REMARK    6  A    between atoms: S_27  and  C_28
REMARK    7  A    between atoms: C_28  and  C_29
REMARK                            x       y       z     vdW  Elec       q    Type
REMARK                         _______ _______ _______ _____ _____    ______ ____
ROOT
ATOM      1  N   UNL     1      -1.712  -6.507  -2.622  0.00  0.00    -0.186 N 
ATOM      2  C   UNL     1      -1.181  -7.852  -2.851  0.00  0.00    +0.241 C 
ATOM      3  N   UNL     1      -1.958  -8.841  -2.095  0.00  0.00    -0.316 N 
ATOM      4  C   UNL     1      -3.345  -8.737  -2.084  0.00  0.00    +0.041 A 
ATOM      5  C   UNL     1      -4.157  -9.849  -1.938  0.00  0.00    +0.024 A 
ATOM      6  C   UNL     1      -5.530  -9.695  -1.922  0.00  0.00    +0.002 A 
ATOM      7  C   UNL     1      -6.100  -8.438  -2.051  0.00  0.00    +0.001 A 
ATOM      8  C   UNL     1      -5.304  -7.321  -2.203  0.00  0.00    +0.015 A 
ATOM      9  C   UNL     1      -3.919  -7.462  -2.225  0.00  0.00    +0.059 A 
ATOM     10  C   UNL     1      -3.026  -6.304  -2.404  0.00  0.00    +0.267 C 
ATOM     11  O   UNL     1      -3.473  -5.174  -2.360  0.00  0.00    -0.268 OA
ATOM     12  H   UNL     1      -1.513  -9.555  -1.612  0.00  0.00    +0.149 HD
ENDROOT
BRANCH   1  15
ATOM     13  C   UNL     1      -0.484  -4.830  -1.460  0.00  0.00    +0.230 C 
ATOM     14  O   UNL     1      -0.925  -5.254  -0.412  0.00  0.00    -0.274 OA
ATOM     15  N   UNL     1      -0.837  -5.413  -2.623  0.00  0.00    -0.229 N 
ATOM     16  H   UNL     1      -0.485  -5.075  -3.461  0.00  0.00    +0.173 HD
BRANCH  13  17
ATOM     17  C   UNL     1       0.457  -3.653  -1.462  0.00  0.00    +0.102 C 
BRANCH  17  18
ATOM     18  C   UNL     1       0.691  -3.186  -0.024  0.00  0.00    +0.042 C 
BRANCH  18  25
ATOM     19  C   UNL     1      -0.016   1.348   0.009  0.00  0.00    +0.001 A 
ATOM     20  C   UNL     1       1.166   2.101   0.002  0.00  0.00    +0.002 A 
ATOM     21  C   UNL     1       2.391   1.535  -0.013  0.00  0.00    +0.026 A 
ATOM     22  C   UNL     1       2.529   0.120  -0.022  0.00  0.00    +0.043 A 
ATOM     23  N   UNL     1       3.587  -0.654  -0.037  0.00  0.00    -0.380 N 
ATOM     24  C   UNL     1       3.143  -2.053  -0.041  0.00  0.00    +0.144 C 
ATOM     25  C   UNL     1       1.631  -2.008  -0.025  0.00  0.00    -0.041 C 
ATOM     26  C   UNL     1       1.295  -0.698  -0.014  0.00  0.00    -0.001 A 
ATOM     27  C   UNL     1       0.002  -0.004   0.002  0.00  0.00    +0.010 A 
ATOM     28  H   UNL     1       4.509  -0.353  -0.045  0.00  0.00    +0.160 HD
ENDBRANCH  18  25
ENDBRANCH  17  18
ENDBRANCH  13  17
ENDBRANCH   1  15
BRANCH   2  29
ATOM     29  S   UNL     1      -1.278  -8.242  -4.619  0.00  0.00    -0.113 S 
BRANCH  29  30
ATOM     30  C   UNL     1      -3.049  -8.130  -4.997  0.00  0.00    +0.107 C 
BRANCH  30  31
ATOM     31  C   UNL     1      -3.271  -8.437  -6.456  0.00  0.00    -0.035 A 
ATOM     32  C   UNL     1      -3.238  -7.417  -7.389  0.00  0.00    +0.004 A 
ATOM     33  C   UNL     1      -3.442  -7.696  -8.727  0.00  0.00    +0.003 A 
ATOM     34  C   UNL     1      -3.680  -8.995  -9.134  0.00  0.00    +0.038 A 
ATOM     35  C   UNL     1      -3.713 -10.017  -8.201  0.00  0.00    +0.124 A 
ATOM     36  C   UNL     1      -3.503  -9.737  -6.861  0.00  0.00    +0.042 A 
ATOM     37  F   UNL     1      -3.946 -11.288  -8.598  0.00  0.00    -0.205 F 
ENDBRANCH  30  31
ENDBRANCH  29  30
ENDBRANCH   2  29
TORSDOF 7
