REMARK  Name = ZINC06269717
REMARK  5 active torsions:
REMARK  status: ('A' for Active; 'I' for Inactive)
REMARK    1  A    between atoms: C_4  and  O_7
REMARK    2  A    between atoms: O_7  and  P_8
REMARK    3  A    between atoms: P_8  and  N_10
REMARK    4  A    between atoms: N_10  and  C_11
REMARK    5  A    between atoms: C_16  and  N_17
REMARK                            x       y       z     vdW  Elec       q    Type
REMARK                         _______ _______ _______ _____ _____    ______ ____
ROOT
ATOM      1  N   UNL     1       2.095   1.903  -1.501  0.00  0.00    -0.239 N 
ATOM      2  H   UNL     1       2.929   1.425  -1.630  0.00  0.00    +0.159 HD
ENDROOT
BRANCH   1   3
ATOM      3  C   UNL     1       1.446   2.486  -2.597  0.00  0.00    +0.058 A 
ATOM      4  C   UNL     1       0.254   3.170  -2.415  0.00  0.00    +0.025 A 
ATOM      5  C   UNL     1      -0.386   3.744  -3.498  0.00  0.00    +0.002 A 
ATOM      6  C   UNL     1       0.160   3.639  -4.764  0.00  0.00    +0.002 A 
ATOM      7  C   UNL     1       1.349   2.959  -4.954  0.00  0.00    +0.024 A 
ATOM      8  C   UNL     1       2.000   2.385  -3.873  0.00  0.00    +0.046 A 
BRANCH   8   9
ATOM      9  N   UNL     1       3.207   1.700  -4.062  0.00  0.00    -0.357 N 
ATOM     10  H   UNL     1       3.659   1.296  -3.305  0.00  0.00    +0.142 HD
ATOM     11  H   UNL     1       3.590   1.631  -4.950  0.00  0.00    +0.142 HD
ENDBRANCH   8   9
ENDBRANCH   1   3
BRANCH   1  12
ATOM     12  P   UNL     1       1.445   2.030  -0.001  0.00  0.00    +0.508 P 
ATOM     13  O   UNL     1       2.316   1.335   0.974  0.00  0.00    -0.222 OA
ATOM     14  O   UNL     1       1.322   3.584   0.402  0.00  0.00    -0.113 OA
BRANCH  12  15
ATOM     15  O   UNL     1      -0.016   1.355   0.009  0.00  0.00    -0.409 OA
BRANCH  15  19
ATOM     16  C   UNL     1       0.040  -2.770  -0.013  0.00  0.00    +0.000 A 
ATOM     17  C   UNL     1       0.042  -2.087   1.189  0.00  0.00    +0.004 A 
ATOM     18  C   UNL     1       0.023  -0.705   1.199  0.00  0.00    +0.046 A 
ATOM     19  C   UNL     1       0.002  -0.004   0.002  0.00  0.00    +0.131 A 
ATOM     20  C   UNL     1      -0.006  -0.692  -1.202  0.00  0.00    +0.046 A 
ATOM     21  C   UNL     1       0.018  -2.074  -1.207  0.00  0.00    +0.004 A 
ENDBRANCH  15  19
ENDBRANCH  12  15
ENDBRANCH   1  12
TORSDOF 5
