REMARK  Name = ZINC18996026
REMARK  9 active torsions:
REMARK  status: ('A' for Active; 'I' for Inactive)
REMARK    1  A    between atoms: C_1  and  N_2
REMARK    2  A    between atoms: N_2  and  C_3
REMARK    3  A    between atoms: N_2  and  S_9
REMARK    4  A    between atoms: S_9  and  C_12
REMARK    5  A    between atoms: C_15  and  N_18
REMARK    6  A    between atoms: N_18  and  S_19
REMARK    7  A    between atoms: S_19  and  C_22
REMARK    8  A    between atoms: C_25  and  S_28
REMARK    9  A    between atoms: S_28  and  N_31
REMARK                            x       y       z     vdW  Elec       q    Type
REMARK                         _______ _______ _______ _____ _____    ______ ____
ROOT
ATOM      1  C   UNL     1       2.436  -1.641   2.659  0.00  0.00    +0.106 A 
ATOM      2  C   UNL     1       1.254  -2.247   2.273  0.00  0.00    +0.030 A 
ATOM      3  C   UNL     1       0.456  -1.657   1.313  0.00  0.00    +0.026 A 
ATOM      4  C   UNL     1       0.841  -0.455   0.735  0.00  0.00    +0.048 A 
ATOM      5  C   UNL     1       2.032   0.148   1.121  0.00  0.00    +0.026 A 
ATOM      6  C   UNL     1       2.823  -0.444   2.085  0.00  0.00    +0.030 A 
ENDROOT
BRANCH   1   7
ATOM      7  S   UNL     1       3.452  -2.398   3.884  0.00  0.00    +0.061 S 
ATOM      8  O   UNL     1       4.232  -1.360   4.462  0.00  0.00    -0.153 OA
ATOM      9  O   UNL     1       2.602  -3.233   4.658  0.00  0.00    -0.153 OA
BRANCH   7  11
ATOM     10  C   UNL     1       5.806  -2.888   2.646  0.00  0.00    +0.132 C 
ATOM     11  N   UNL     1       4.509  -3.399   3.094  0.00  0.00    -0.177 NA
BRANCH  11  12
ATOM     12  C   UNL     1       4.146  -4.796   2.844  0.00  0.00    +0.080 C 
ATOM     13  C   UNL     1       5.161  -5.716   3.525  0.00  0.00    +0.020 C 
ATOM     14  C   UNL     1       4.782  -7.175   3.264  0.00  0.00    +0.002 C 
ATOM     15  C   UNL     1       4.783  -7.441   1.757  0.00  0.00    +0.000 C 
ATOM     16  C   UNL     1       3.768  -6.521   1.077  0.00  0.00    +0.002 C 
ATOM     17  C   UNL     1       4.147  -5.061   1.338  0.00  0.00    +0.020 C 
ENDBRANCH  11  12
ENDBRANCH   7  11
ENDBRANCH   1   7
BRANCH   4  18
ATOM     18  N   UNL     1       0.036   0.144  -0.237  0.00  0.00    -0.216 N 
ATOM     19  H   UNL     1       0.295   0.107  -1.171  0.00  0.00    +0.174 HD
BRANCH  18  20
ATOM     20  S   UNL     1      -1.359   0.918   0.205  0.00  0.00    +0.072 S 
ATOM     21  O   UNL     1      -1.916   1.462  -0.983  0.00  0.00    -0.150 OA
ATOM     22  O   UNL     1      -2.075   0.018   1.040  0.00  0.00    -0.150 OA
BRANCH  20  23
ATOM     23  C   UNL     1      -0.898   2.285   1.218  0.00  0.00    +0.109 A 
ATOM     24  C   UNL     1      -0.903   2.158   2.594  0.00  0.00    +0.031 A 
ATOM     25  C   UNL     1      -0.537   3.229   3.388  0.00  0.00    +0.030 A 
ATOM     26  C   UNL     1      -0.176   4.429   2.805  0.00  0.00    +0.105 A 
ATOM     27  C   UNL     1      -0.176   4.558   1.429  0.00  0.00    +0.030 A 
ATOM     28  C   UNL     1      -0.537   3.486   0.635  0.00  0.00    +0.031 A 
BRANCH  26  29
ATOM     29  S   UNL     1       0.286   5.796   3.818  0.00  0.00    +0.056 S 
ATOM     30  O   UNL     1       0.729   5.254   5.054  0.00  0.00    -0.153 OA
ATOM     31  O   UNL     1       1.106   6.636   3.017  0.00  0.00    -0.153 OA
BRANCH  29  32
ATOM     32  N   UNL     1      -1.093   6.652   4.144  0.00  0.00    -0.204 NA
ATOM     33  H   UNL     1      -1.944   6.356   3.785  0.00  0.00    +0.144 HD
ATOM     34  H   UNL     1      -1.050   7.450   4.693  0.00  0.00    +0.144 HD
ENDBRANCH  29  32
ENDBRANCH  26  29
ENDBRANCH  20  23
ENDBRANCH  18  20
ENDBRANCH   4  18
TORSDOF 8
