REMARK  Name = ZINC62038819
REMARK  11 active torsions:
REMARK  status: ('A' for Active; 'I' for Inactive)
REMARK    1  A    between atoms: C_1  and  C_2
REMARK    2  A    between atoms: C_2  and  C_4
REMARK    3  A    between atoms: C_2  and  S_16
REMARK    4  A    between atoms: N_6  and  C_7
REMARK    5  A    between atoms: C_9  and  C_14
REMARK    6  A    between atoms: C_12  and  O_13
REMARK    7  A    between atoms: S_16  and  C_17
REMARK    8  A    between atoms: C_22  and  C_27
REMARK    9  A    between atoms: C_30  and  C_33
REMARK   10  A    between atoms: C_33  and  C_34
REMARK   11  A    between atoms: C_33  and  C_35
REMARK                            x       y       z     vdW  Elec       q    Type
REMARK                         _______ _______ _______ _____ _____    ______ ____
ROOT
ATOM      1  C   UNL     1      -0.143  -0.125   2.818  0.00  0.00    +0.171 A 
ATOM      2  N   UNL     1      -1.256   0.534   2.572  0.00  0.00    -0.185 NA
ATOM      3  C   UNL     1      -2.073   0.946   3.546  0.00  0.00    +0.283 A 
ATOM      4  O   UNL     1      -3.097   1.554   3.276  0.00  0.00    -0.265 OA
ATOM      5  C   UNL     1      -1.726   0.657   4.957  0.00  0.00    +0.080 A 
ATOM      6  C   UNL     1      -2.447   0.997   6.178  0.00  0.00    +0.004 A 
ATOM      7  C   UNL     1      -1.924   0.619   7.369  0.00  0.00    +0.056 A 
ATOM      8  S   UNL     1      -0.421  -0.221   6.907  0.00  0.00    -0.078 S 
ATOM      9  C   UNL     1      -0.534  -0.044   5.147  0.00  0.00    +0.093 A 
ATOM     10  N   UNL     1       0.236  -0.429   4.092  0.00  0.00    -0.328 N 
ATOM     11  H   UNL     1       1.058  -0.919   4.247  0.00  0.00    +0.168 HD
ENDROOT
BRANCH   6  12
ATOM     12  C   UNL     1      -3.728   1.741   6.117  0.00  0.00    -0.017 A 
ATOM     13  C   UNL     1      -3.823   2.908   5.361  0.00  0.00    +0.009 A 
ATOM     14  C   UNL     1      -5.017   3.597   5.307  0.00  0.00    +0.004 A 
ATOM     15  C   UNL     1      -6.119   3.132   6.003  0.00  0.00    -0.045 A 
ATOM     16  C   UNL     1      -6.030   1.974   6.755  0.00  0.00    +0.004 A 
ATOM     17  C   UNL     1      -4.843   1.274   6.811  0.00  0.00    +0.009 A 
BRANCH  15  18
ATOM     18  C   UNL     1      -7.420   3.889   5.941  0.00  0.00    +0.013 C 
ATOM     19  C   UNL     1      -8.509   2.984   5.359  0.00  0.00    +0.012 C 
ATOM     20  C   UNL     1      -7.822   4.329   7.349  0.00  0.00    +0.012 C 
ENDBRANCH  15  18
ENDBRANCH   6  12
BRANCH   1  21
ATOM     21  S   UNL     1       0.875  -0.630   1.472  0.00  0.00    -0.075 S 
BRANCH  21  23
ATOM     22  C   UNL     1      -0.028   1.508   0.025  0.00  0.00    +0.029 C 
ATOM     23  C   UNL     1      -0.002  -0.021   0.006  0.00  0.00    +0.137 C 
BRANCH  23  24
ATOM     24  C   UNL     1       0.706  -0.496  -1.237  0.00  0.00    +0.230 C 
ATOM     25  O   UNL     1       1.864  -0.852  -1.176  0.00  0.00    -0.274 OA
ATOM     26  N   UNL     1       0.053  -0.526  -2.415  0.00  0.00    -0.282 N 
ATOM     27  H   UNL     1      -0.891  -0.304  -2.453  0.00  0.00    +0.155 HD
BRANCH  26  28
ATOM     28  C   UNL     1       0.737  -0.878  -3.587  0.00  0.00    +0.076 A 
ATOM     29  C   UNL     1       1.744  -1.823  -3.542  0.00  0.00    +0.038 A 
ATOM     30  C   UNL     1       2.425  -2.171  -4.715  0.00  0.00    +0.016 A 
ATOM     31  C   UNL     1       2.081  -1.559  -5.927  0.00  0.00    +0.015 A 
ATOM     32  C   UNL     1       1.076  -0.619  -5.963  0.00  0.00    +0.048 A 
ATOM     33  C   UNL     1       0.397  -0.277  -4.801  0.00  0.00    +0.138 A 
BRANCH  33  34
ATOM     34  O   UNL     1      -0.597   0.647  -4.844  0.00  0.00    -0.505 OA
ATOM     35  H   UNL     1      -0.296   1.555  -4.705  0.00  0.00    +0.292 HD
ENDBRANCH  33  34
BRANCH  30  36
ATOM     36  C   UNL     1       3.496  -3.174  -4.674  0.00  0.00    +0.258 C 
ATOM     37  O   UNL     1       4.085  -3.474  -5.691  0.00  0.00    -0.296 OA
ENDBRANCH  30  36
ENDBRANCH  26  28
ENDBRANCH  23  24
ENDBRANCH  21  23
ENDBRANCH   1  21
TORSDOF 8
