REMARK  Name = ZINC01051614
REMARK  9 active torsions:
REMARK  status: ('A' for Active; 'I' for Inactive)
REMARK    1  A    between atoms: C_1  and  O_2
REMARK    2  A    between atoms: O_2  and  C_3
REMARK    3  A    between atoms: C_3  and  C_5
REMARK    4  A    between atoms: C_6  and  N_35
REMARK    5  A    between atoms: C_8  and  C_9
REMARK    6  A    between atoms: C_17  and  C_31
REMARK    7  A    between atoms: C_19  and  C_24
REMARK    8  A    between atoms: C_31  and  O_33
REMARK    9  A    between atoms: O_33  and  C_34
REMARK                            x       y       z     vdW  Elec       q    Type
REMARK                         _______ _______ _______ _____ _____    ______ ____
ROOT
ATOM      1  C   UNL     1      -0.332   2.185   6.458  0.00  0.00    +0.155 A 
ATOM      2  C   UNL     1       0.806   1.433   6.270  0.00  0.00    +0.065 A 
ATOM      3  C   UNL     1       0.780   0.943   4.881  0.00  0.00    +0.024 A 
ATOM      4  C   UNL     1       1.700   0.116   4.266  0.00  0.00    +0.022 C 
ATOM      5  C   UNL     1      -0.431   1.522   4.289  0.00  0.00    +0.079 A 
ATOM      6  C   UNL     1      -0.825   1.455   2.965  0.00  0.00    +0.118 C 
ATOM      7  S   UNL     1      -2.289   2.333   2.499  0.00  0.00    -0.098 S 
ATOM      8  C   UNL     1      -3.253   2.367   4.038  0.00  0.00    +0.173 C 
ATOM      9  C   UNL     1      -2.350   2.710   5.193  0.00  0.00    +0.250 C 
ATOM     10  O   UNL     1      -2.743   3.477   6.047  0.00  0.00    -0.271 OA
ATOM     11  N   UNL     1      -1.114   2.182   5.297  0.00  0.00    -0.270 N 
ENDROOT
BRANCH   4  12
ATOM     12  C   UNL     1       1.246  -1.066   3.531  0.00  0.00    +0.011 A 
ATOM     13  C   UNL     1      -0.097  -1.462   3.593  0.00  0.00    +0.011 A 
ATOM     14  C   UNL     1      -0.516  -2.575   2.898  0.00  0.00    +0.001 A 
ATOM     15  C   UNL     1       0.385  -3.303   2.137  0.00  0.00    +0.003 A 
ATOM     16  C   UNL     1       1.713  -2.921   2.068  0.00  0.00    +0.039 A 
ATOM     17  C   UNL     1       2.152  -1.806   2.754  0.00  0.00    +0.131 A 
ATOM     18  F   UNL     1       3.447  -1.431   2.681  0.00  0.00    -0.205 F 
ENDBRANCH   4  12
BRANCH   8  19
ATOM     19  C   UNL     1      -4.340   3.405   3.926  0.00  0.00    +0.010 A 
ATOM     20  C   UNL     1      -4.188   4.475   3.065  0.00  0.00    +0.008 A 
ATOM     21  C   UNL     1      -5.188   5.424   2.958  0.00  0.00    +0.000 A 
ATOM     22  C   UNL     1      -6.335   5.310   3.720  0.00  0.00    +0.003 A 
ATOM     23  C   UNL     1      -6.487   4.244   4.586  0.00  0.00    +0.038 A 
ATOM     24  C   UNL     1      -5.489   3.289   4.690  0.00  0.00    +0.128 A 
ATOM     25  F   UNL     1      -5.636   2.247   5.536  0.00  0.00    -0.205 F 
ENDBRANCH   8  19
BRANCH   2  26
ATOM     26  N   UNL     1       1.794   1.193   7.207  0.00  0.00    -0.356 N 
ATOM     27  H   UNL     1       2.664   0.573   6.942  0.00  0.00    +0.142 HD
ATOM     28  H   UNL     1       1.711   1.622   8.216  0.00  0.00    +0.142 HD
ENDBRANCH   2  26
BRANCH   1  29
ATOM     29  C   UNL     1      -0.669   2.853   7.656  0.00  0.00    +0.358 C 
ATOM     30  O   UNL     1      -1.831   2.904   8.018  0.00  0.00    -0.243 OA
BRANCH  29  32
ATOM     31  C   UNL     1      -0.117   4.093   9.599  0.00  0.00    +0.280 C 
ATOM     32  O   UNL     1       0.296   3.435   8.400  0.00  0.00    -0.463 OA
ENDBRANCH  29  32
ENDBRANCH   1  29
BRANCH   6  33
ATOM     33  C   UNL     1      -0.089   0.706   2.018  0.00  0.00    +0.347 C 
ATOM     34  O   UNL     1      -0.590  -0.272   1.493  0.00  0.00    -0.244 OA
BRANCH  33  35
ATOM     35  O   UNL     1       1.170   1.074   1.698  0.00  0.00    -0.464 OA
ATOM     36  C   UNL     1       1.803   0.364   0.631  0.00  0.00    +0.280 C 
ENDBRANCH  33  35
ENDBRANCH   6  33
TORSDOF 7
