REMARK  Name = ZINC50637054
REMARK  6 active torsions:
REMARK  status: ('A' for Active; 'I' for Inactive)
REMARK    1  A    between atoms: C_1  and  C_2
REMARK    2  A    between atoms: C_2  and  C_3
REMARK    3  A    between atoms: C_2  and  N_4
REMARK    4  A    between atoms: N_4  and  S_5
REMARK    5  A    between atoms: S_5  and  C_8
REMARK    6  A    between atoms: C_16  and  N_18
REMARK                            x       y       z     vdW  Elec       q    Type
REMARK                         _______ _______ _______ _____ _____    ______ ____
ROOT
ATOM      1  C   UNL     1      -1.137  -2.294   2.137  0.00  0.00    +0.106 A 
ATOM      2  C   UNL     1      -2.422  -2.095   1.637  0.00  0.00    +0.030 A 
ATOM      3  C   UNL     1      -3.219  -3.149   1.309  0.00  0.00    +0.030 A 
ATOM      4  C   UNL     1      -2.744  -4.461   1.475  0.00  0.00    +0.073 A 
ATOM      5  C   UNL     1      -1.437  -4.661   1.984  0.00  0.00    +0.002 A 
ATOM      6  C   UNL     1      -0.641  -3.551   2.307  0.00  0.00    +0.038 A 
ATOM      7  C   UNL     1      -0.960  -5.977   2.151  0.00  0.00    +0.013 A 
ATOM      8  C   UNL     1      -1.783  -7.010   1.814  0.00  0.00    +0.044 A 
ATOM      9  C   UNL     1      -3.066  -6.746   1.315  0.00  0.00    +0.117 A 
ATOM     10  N   UNL     1      -3.506  -5.514   1.161  0.00  0.00    -0.232 NA
ENDROOT
BRANCH   1  11
ATOM     11  S   UNL     1      -0.139  -0.902   2.549  0.00  0.00    +0.059 S 
ATOM     12  O   UNL     1       0.814  -1.354   3.502  0.00  0.00    -0.153 OA
ATOM     13  O   UNL     1      -1.030   0.173   2.814  0.00  0.00    -0.153 OA
BRANCH  11  14
ATOM     14  N   UNL     1       0.711  -0.489   1.189  0.00  0.00    -0.187 NA
ATOM     15  H   UNL     1       1.677  -0.569   1.178  0.00  0.00    +0.148 HD
BRANCH  14  17
ATOM     16  C   UNL     1      -0.019   1.526   0.010  0.00  0.00    +0.025 C 
ATOM     17  C   UNL     1       0.002  -0.004   0.002  0.00  0.00    +0.070 C 
ATOM     18  C   UNL     1       0.718  -0.497  -1.257  0.00  0.00    +0.025 C 
ENDBRANCH  14  17
ENDBRANCH  11  14
ENDBRANCH   1  11
BRANCH   9  19
ATOM     19  N   UNL     1      -3.892  -7.808   0.976  0.00  0.00    -0.343 N 
ATOM     20  H   UNL     1      -3.579  -8.719   1.085  0.00  0.00    +0.144 HD
ATOM     21  H   UNL     1      -4.782  -7.638   0.630  0.00  0.00    +0.144 HD
ENDBRANCH   9  19
TORSDOF 4
