REMARK  Name = ZINC41584621
REMARK  8 active torsions:
REMARK  status: ('A' for Active; 'I' for Inactive)
REMARK    1  A    between atoms: C_1  and  O_2
REMARK    2  A    between atoms: O_2  and  C_3
REMARK    3  A    between atoms: C_3  and  C_5
REMARK    4  A    between atoms: C_8  and  C_11
REMARK    5  A    between atoms: C_18  and  O_36
REMARK    6  A    between atoms: C_19  and  C_22
REMARK    7  A    between atoms: C_22  and  N_23
REMARK    8  A    between atoms: C_28  and  C_30
REMARK                            x       y       z     vdW  Elec       q    Type
REMARK                         _______ _______ _______ _____ _____    ______ ____
ROOT
ATOM      1  C   UNL     1      -1.276  -4.738   0.606  0.00  0.00    +0.058 C 
ATOM      2  C   UNL     1      -2.315  -5.599   0.733  0.00  0.00    +0.176 C 
ATOM      3  C   UNL     1      -2.222  -7.040   1.036  0.00  0.00    +0.231 C 
ATOM      4  O   UNL     1      -1.214  -7.699   1.222  0.00  0.00    -0.283 OA
ATOM      5  C   UNL     1      -3.621  -7.502   1.063  0.00  0.00    +0.068 A 
ATOM      6  C   UNL     1      -4.211  -8.746   1.292  0.00  0.00    +0.019 A 
ATOM      7  C   UNL     1      -5.570  -8.873   1.251  0.00  0.00    +0.046 A 
ATOM      8  C   UNL     1      -6.368  -7.764   0.983  0.00  0.00    +0.122 A 
ATOM      9  C   UNL     1      -5.796  -6.522   0.754  0.00  0.00    +0.020 A 
ATOM     10  C   UNL     1      -4.415  -6.376   0.791  0.00  0.00    +0.144 A 
ATOM     11  O   UNL     1      -3.627  -5.294   0.611  0.00  0.00    -0.451 OA
ENDROOT
BRANCH   1  15
ATOM     12  C   UNL     1      -2.009  -0.594   0.090  0.00  0.00    +0.059 A 
ATOM     13  C   UNL     1      -0.700  -1.057   0.248  0.00  0.00    +0.015 A 
ATOM     14  C   UNL     1      -0.462  -2.397   0.415  0.00  0.00    +0.009 A 
ATOM     15  C   UNL     1      -1.530  -3.301   0.428  0.00  0.00    -0.021 A 
ATOM     16  C   UNL     1      -2.842  -2.836   0.270  0.00  0.00    +0.009 A 
ATOM     17  C   UNL     1      -3.078  -1.495   0.109  0.00  0.00    +0.015 A 
BRANCH  12  18
ATOM     18  C   UNL     1      -2.265   0.850  -0.090  0.00  0.00    +0.339 C 
ATOM     19  O   UNL     1      -3.403   1.253  -0.222  0.00  0.00    -0.245 OA
BRANCH  18  21
ATOM     20  C   UNL     1      -1.555   3.100  -0.286  0.00  0.00    +0.280 C 
ATOM     21  O   UNL     1      -1.235   1.719  -0.108  0.00  0.00    -0.464 OA
ENDBRANCH  18  21
ENDBRANCH  12  18
ENDBRANCH   1  15
BRANCH   8  22
ATOM     22  O   UNL     1      -7.718  -7.900   0.944  0.00  0.00    -0.506 OA
ATOM     23  H   UNL     1      -8.152  -7.761   1.797  0.00  0.00    +0.292 HD
ENDBRANCH   8  22
BRANCH   9  24
ATOM     24  C   UNL     1      -6.673  -5.331   0.464  0.00  0.00    -0.035 C 
BRANCH  24  25
ATOM     25  N   UNL     1      -7.035  -5.324  -0.959  0.00  0.00    +0.387 N 
ATOM     26  C   UNL     1      -5.827  -5.133  -1.770  0.00  0.00    -0.078 C 
ATOM     27  C   UNL     1      -6.187  -5.207  -3.255  0.00  0.00    -0.019 C 
ATOM     28  C   UNL     1      -7.202  -4.108  -3.583  0.00  0.00    -0.003 C 
ATOM     29  C   UNL     1      -8.428  -4.273  -2.680  0.00  0.00    -0.011 C 
ATOM     30  C   UNL     1      -7.984  -4.234  -1.216  0.00  0.00    -0.036 C 
ATOM     31  H   UNL     1      -7.463  -6.206  -1.200  0.00  0.00    -0.080 HD
BRANCH  30  32
ATOM     32  C   UNL     1      -9.187  -4.396  -0.323  0.00  0.00    -0.043 A 
ATOM     33  C   UNL     1      -9.684  -3.315   0.389  0.00  0.00    +0.005 A 
ATOM     34  C   UNL     1     -10.793  -3.510   1.198  0.00  0.00    +0.020 A 
ATOM     35  C   UNL     1     -11.362  -4.768   1.268  0.00  0.00    +0.111 A 
ATOM     36  N   UNL     1     -10.863  -5.774   0.577  0.00  0.00    -0.263 NA
ATOM     37  C   UNL     1      -9.813  -5.623  -0.207  0.00  0.00    +0.112 A 
ENDBRANCH  30  32
ENDBRANCH  24  25
ENDBRANCH   9  24
TORSDOF 7
