REMARK  Name = ZINC40611581
REMARK  6 active torsions:
REMARK  status: ('A' for Active; 'I' for Inactive)
REMARK    1  A    between atoms: C_4  and  C_7
REMARK    2  A    between atoms: C_7  and  N_8
REMARK    3  A    between atoms: C_15  and  N_31
REMARK    4  A    between atoms: C_16  and  N_20
REMARK    5  A    between atoms: N_20  and  N_21
REMARK    6  A    between atoms: C_22  and  C_24
REMARK                            x       y       z     vdW  Elec       q    Type
REMARK                         _______ _______ _______ _____ _____    ______ ____
ROOT
ATOM      1  N   UNL     1       3.680  -0.997   1.534  0.00  0.00    +0.384 N 
ATOM      2  C   UNL     1       2.823  -1.867   2.350  0.00  0.00    -0.059 C 
ATOM      3  C   UNL     1       3.430  -2.012   3.749  0.00  0.00    +0.088 C 
ATOM      4  N   UNL     1       4.816  -2.483   3.610  0.00  0.00    -0.317 N 
ATOM      5  C   UNL     1       5.703  -1.764   2.683  0.00  0.00    +0.088 C 
ATOM      6  C   UNL     1       4.989  -1.631   1.333  0.00  0.00    -0.059 C 
ATOM      7  C   UNL     1       5.275  -3.573   4.333  0.00  0.00    +0.157 A 
ATOM      8  C   UNL     1       5.840  -3.398   5.593  0.00  0.00    +0.207 A 
ATOM      9  C   UNL     1       6.284  -4.524   6.278  0.00  0.00    +0.171 A 
ATOM     10  N   UNL     1       6.154  -5.721   5.708  0.00  0.00    -0.217 NA
ATOM     11  C   UNL     1       5.613  -5.846   4.514  0.00  0.00    +0.225 A 
ATOM     12  N   UNL     1       5.176  -4.804   3.835  0.00  0.00    -0.218 NA
ATOM     13  H   UNL     1       3.804  -0.114   2.005  0.00  0.00    -0.081 HD
ENDROOT
BRANCH   8  14
ATOM     14  N   UNL     1       5.965  -2.049   6.188  0.00  0.00    +0.063 N 
ATOM     15  O   UNL     1       5.074  -1.605   6.874  0.00  0.00    -0.126 OA
ATOM     16  O   UNL     1       6.959  -1.390   5.988  0.00  0.00    -0.126 OA
ENDBRANCH   8  14
BRANCH   9  17
ATOM     17  N   UNL     1       6.855  -4.403   7.536  0.00  0.00    -0.246 N 
ATOM     18  H   UNL     1       6.947  -3.528   7.944  0.00  0.00    +0.172 HD
BRANCH  17  19
ATOM     19  N   UNL     1       7.299  -5.544   8.217  0.00  0.00    -0.231 N 
ATOM     20  C   UNL     1       7.854  -5.426   9.440  0.00  0.00    +0.260 C 
ATOM     21  O   UNL     1       7.969  -4.329   9.951  0.00  0.00    -0.269 OA
ATOM     22  H   UNL     1       7.207  -6.419   7.809  0.00  0.00    +0.173 HD
BRANCH  20  23
ATOM     23  C   UNL     1       8.322  -6.630  10.158  0.00  0.00    +0.038 A 
ATOM     24  C   UNL     1       8.196  -7.890   9.570  0.00  0.00    +0.014 A 
ATOM     25  C   UNL     1       8.635  -9.009  10.246  0.00  0.00    +0.016 A 
ATOM     26  C   UNL     1       9.199  -8.885  11.504  0.00  0.00    +0.018 A 
ATOM     27  C   UNL     1       9.327  -7.638  12.092  0.00  0.00    +0.016 A 
ATOM     28  C   UNL     1       8.897  -6.510  11.425  0.00  0.00    +0.014 A 
ATOM     29 BR   UNL     1       9.798 -10.425  12.424  0.00  0.00    -0.050 Br
ENDBRANCH  20  23
ENDBRANCH  17  19
ENDBRANCH   9  17
BRANCH   1  30
ATOM     30  C   UNL     1       3.043  -0.770   0.230  0.00  0.00    -0.043 C 
BRANCH  30  34
ATOM     31  C   UNL     1      -0.605   1.383   0.779  0.00  0.00    +0.000 A 
ATOM     32  C   UNL     1       0.579   2.068   0.582  0.00  0.00    +0.000 A 
ATOM     33  C   UNL     1       1.760   1.372   0.404  0.00  0.00    +0.002 A 
ATOM     34  C   UNL     1       1.756  -0.011   0.424  0.00  0.00    -0.064 A 
ATOM     35  C   UNL     1       0.572  -0.696   0.623  0.00  0.00    +0.002 A 
ATOM     36  C   UNL     1      -0.609   0.001   0.799  0.00  0.00    +0.000 A 
ENDBRANCH  30  34
ENDBRANCH   1  30
TORSDOF 6
