REMARK  Name = ZINC39634955
REMARK  7 active torsions:
REMARK  status: ('A' for Active; 'I' for Inactive)
REMARK    1  A    between atoms: C_1  and  O_2
REMARK    2  A    between atoms: O_2  and  C_3
REMARK    3  A    between atoms: C_6  and  C_9
REMARK    4  A    between atoms: C_9  and  C_10
REMARK    5  A    between atoms: C_10  and  N_11
REMARK    6  A    between atoms: C_12  and  C_14
REMARK    7  A    between atoms: C_25  and  C_27
REMARK                            x       y       z     vdW  Elec       q    Type
REMARK                         _______ _______ _______ _____ _____    ______ ____
ROOT
ATOM      1  C   UNL     1       2.100  -4.621   8.597  0.00  0.00    +0.100 C 
ATOM      2  C   UNL     1       2.577  -6.059   8.296  0.00  0.00    +0.121 C 
ATOM      3  N   UNL     1       2.405  -6.786   9.575  0.00  0.00    -0.296 N 
ATOM      4  C   UNL     1       1.129  -6.269  10.125  0.00  0.00    +0.115 C 
ATOM      5  C   UNL     1       1.150  -4.763   9.797  0.00  0.00    -0.004 C 
ATOM      6  C   UNL     1      -0.250  -4.286   9.422  0.00  0.00    -0.010 C 
ATOM      7  C   UNL     1      -1.163  -4.382  10.648  0.00  0.00    -0.082 C 
ATOM      8  N   UNL     1      -0.617  -3.557  11.732  0.00  0.00    +0.379 N 
ATOM      9  C   UNL     1       0.689  -4.079  12.150  0.00  0.00    -0.082 C 
ATOM     10  C   UNL     1       1.680  -3.971  10.988  0.00  0.00    -0.010 C 
ATOM     11  C   UNL     1       3.224  -7.709  10.118  0.00  0.00    +0.247 C 
ATOM     12  O   UNL     1       2.901  -8.284  11.139  0.00  0.00    -0.270 OA
ATOM     13  H   UNL     1      -0.510  -2.607  11.409  0.00  0.00    -0.086 HD
ATOM     14  H   UNL     1      -1.251  -3.573  12.517  0.00  0.00    -0.086 HD
ENDROOT
BRANCH  11  15
ATOM     15  C   UNL     1       4.516  -8.021   9.472  0.00  0.00    +0.045 A 
ATOM     16  C   UNL     1       4.565  -8.314   8.104  0.00  0.00    +0.014 A 
ATOM     17  C   UNL     1       5.768  -8.605   7.498  0.00  0.00    +0.001 A 
ATOM     18  C   UNL     1       6.941  -8.612   8.236  0.00  0.00    +0.012 A 
ATOM     19  C   UNL     1       6.915  -8.325   9.596  0.00  0.00    +0.031 A 
ATOM     20  C   UNL     1       5.697  -8.020  10.225  0.00  0.00    +0.006 A 
ATOM     21  C   UNL     1       5.957  -7.750  11.661  0.00  0.00    -0.006 A 
ATOM     22  C   UNL     1       5.110  -7.413  12.708  0.00  0.00    +0.009 A 
ATOM     23  C   UNL     1       5.625  -7.212  13.979  0.00  0.00    +0.001 A 
ATOM     24  C   UNL     1       6.980  -7.344  14.214  0.00  0.00    +0.001 A 
ATOM     25  C   UNL     1       7.838  -7.680  13.180  0.00  0.00    +0.012 A 
ATOM     26  C   UNL     1       7.335  -7.885  11.901  0.00  0.00    +0.030 A 
ATOM     27  C   UNL     1       7.984  -8.259  10.621  0.00  0.00    +0.194 C 
ATOM     28  O   UNL     1       9.168  -8.459  10.443  0.00  0.00    -0.287 OA
ENDBRANCH  11  15
BRANCH   1  30
ATOM     29  N   UNL     1       1.255  -2.717   7.263  0.00  0.00    -0.315 N 
ATOM     30  C   UNL     1       1.366  -4.052   7.410  0.00  0.00    +0.218 C 
ATOM     31  O   UNL     1       0.874  -4.796   6.588  0.00  0.00    -0.275 OA
ATOM     32  H   UNL     1       1.649  -2.122   7.920  0.00  0.00    +0.149 HD
BRANCH  29  33
ATOM     33  C   UNL     1       0.541  -2.164   6.109  0.00  0.00    +0.109 C 
BRANCH  33  34
ATOM     34  C   UNL     1       0.562  -0.636   6.181  0.00  0.00    +0.054 C 
BRANCH  34  38
ATOM     35  C   UNL     1      -1.521   0.977   2.816  0.00  0.00    +0.120 A 
ATOM     36  C   UNL     1      -2.207   0.699   3.989  0.00  0.00    +0.046 A 
ATOM     37  C   UNL     1      -1.531   0.177   5.076  0.00  0.00    +0.007 A 
ATOM     38  C   UNL     1      -0.173  -0.068   4.994  0.00  0.00    -0.046 A 
ATOM     39  C   UNL     1       0.513   0.209   3.825  0.00  0.00    +0.007 A 
ATOM     40  C   UNL     1      -0.159   0.725   2.734  0.00  0.00    +0.046 A 
BRANCH  35  42
ATOM     41  C   UNL     1      -3.584   1.723   1.901  0.00  0.00    +0.277 C 
ATOM     42  O   UNL     1      -2.183   1.489   1.746  0.00  0.00    -0.495 OA
ENDBRANCH  35  42
ENDBRANCH  34  38
ENDBRANCH  33  34
ENDBRANCH  29  33
ENDBRANCH   1  30
TORSDOF 6
