REMARK  Name = ZINC39582036
REMARK  7 active torsions:
REMARK  status: ('A' for Active; 'I' for Inactive)
REMARK    1  A    between atoms: C_1  and  C_2
REMARK    2  A    between atoms: C_2  and  C_3
REMARK    3  A    between atoms: C_2  and  C_4
REMARK    4  A    between atoms: C_4  and  C_6
REMARK    5  A    between atoms: C_4  and  O_12
REMARK    6  A    between atoms: O_12  and  C_13
REMARK    7  A    between atoms: C_13  and  C_15
REMARK                            x       y       z     vdW  Elec       q    Type
REMARK                         _______ _______ _______ _____ _____    ______ ____
ROOT
ATOM      1  C   UNL     1      -3.323   1.296  -2.665  0.00  0.00    +0.078 A 
ATOM      2  C   UNL     1      -3.227   0.455  -3.774  0.00  0.00    +0.017 A 
ATOM      3  C   UNL     1      -3.821   0.809  -4.971  0.00  0.00    +0.013 A 
ATOM      4  C   UNL     1      -4.520   2.009  -5.076  0.00  0.00    +0.035 A 
ATOM      5  C   UNL     1      -4.621   2.862  -3.963  0.00  0.00    +0.052 A 
ATOM      6  C   UNL     1      -4.026   2.500  -2.757  0.00  0.00    +0.066 A 
ATOM      7 CL   UNL     1      -4.152   3.544  -1.375  0.00  0.00    -0.082 Cl
ATOM      8  C   UNL     1      -5.362   4.136  -4.072  0.00  0.00    +0.196 C 
ATOM      9  O   UNL     1      -5.449   4.873  -3.109  0.00  0.00    -0.287 OA
ATOM     10  C   UNL     1      -5.996   4.513  -5.352  0.00  0.00    +0.033 A 
ATOM     11  C   UNL     1      -6.695   5.712  -5.463  0.00  0.00    +0.012 A 
ATOM     12  C   UNL     1      -7.286   6.058  -6.665  0.00  0.00    +0.001 A 
ATOM     13  C   UNL     1      -7.188   5.220  -7.761  0.00  0.00    +0.001 A 
ATOM     14  C   UNL     1      -6.497   4.024  -7.668  0.00  0.00    +0.012 A 
ATOM     15  C   UNL     1      -5.896   3.661  -6.466  0.00  0.00    +0.033 A 
ATOM     16  C   UNL     1      -5.155   2.387  -6.359  0.00  0.00    +0.195 C 
ATOM     17  O   UNL     1      -5.068   1.651  -7.321  0.00  0.00    -0.287 OA
ENDROOT
BRANCH   1  18
ATOM     18  C   UNL     1      -2.685   0.909  -1.388  0.00  0.00    +0.341 C 
ATOM     19  O   UNL     1      -2.772   1.638  -0.421  0.00  0.00    -0.245 OA
BRANCH  18  20
ATOM     20  O   UNL     1      -2.007  -0.252  -1.299  0.00  0.00    -0.448 OA
BRANCH  20  21
ATOM     21  C   UNL     1      -1.416  -0.562  -0.035  0.00  0.00    +0.265 C 
BRANCH  21  22
ATOM     22  C   UNL     1      -1.368  -2.057   0.144  0.00  0.00    +0.261 C 
ATOM     23  O   UNL     1      -1.696  -2.787  -0.767  0.00  0.00    -0.271 OA
ATOM     24  N   UNL     1      -0.961  -2.583   1.316  0.00  0.00    -0.237 N 
ATOM     25  C   UNL     1      -1.015  -3.915   1.512  0.00  0.00    +0.303 C 
ATOM     26  O   UNL     1      -1.431  -4.643   0.632  0.00  0.00    -0.253 OA
ATOM     27  N   UNL     1      -0.607  -4.441   2.684  0.00  0.00    -0.313 N 
ATOM     28  H   UNL     1      -0.628  -2.003   2.018  0.00  0.00    +0.159 HD
ATOM     29  H   UNL     1      -0.275  -3.861   3.386  0.00  0.00    +0.146 HD
ATOM     30  H   UNL     1      -0.646  -5.400   2.825  0.00  0.00    +0.146 HD
ENDBRANCH  21  22
BRANCH  21  32
ATOM     31  C   UNL     1       0.801  -0.510  -1.186  0.00  0.00    +0.011 C 
ATOM     32  C   UNL     1       0.005   0.004   0.016  0.00  0.00    +0.033 C 
ATOM     33  C   UNL     1      -0.052   1.532  -0.026  0.00  0.00    +0.011 C 
ENDBRANCH  21  32
ENDBRANCH  20  21
ENDBRANCH  18  20
ENDBRANCH   1  18
TORSDOF 5
