REMARK  Name = ZINC39652696
REMARK  9 active torsions:
REMARK  status: ('A' for Active; 'I' for Inactive)
REMARK    1  A    between atoms: C_1  and  C_2
REMARK    2  A    between atoms: C_2  and  O_3
REMARK    3  A    between atoms: O_3  and  C_4
REMARK    4  A    between atoms: C_9  and  C_10
REMARK    5  A    between atoms: C_10  and  C_11
REMARK    6  A    between atoms: C_11  and  N_12
REMARK    7  A    between atoms: C_13  and  C_15
REMARK    8  A    between atoms: C_26  and  C_28
REMARK    9  A    between atoms: C_32  and  C_34
REMARK                            x       y       z     vdW  Elec       q    Type
REMARK                         _______ _______ _______ _____ _____    ______ ____
ROOT
ATOM      1  C   UNL     1       1.270   0.568   7.658  0.00  0.00    +0.100 C 
ATOM      2  C   UNL     1       2.474   0.119   8.515  0.00  0.00    +0.121 C 
ATOM      3  N   UNL     1       2.250   0.751   9.837  0.00  0.00    -0.296 N 
ATOM      4  C   UNL     1       0.789   0.633  10.058  0.00  0.00    +0.115 C 
ATOM      5  C   UNL     1       0.165   0.904   8.675  0.00  0.00    -0.004 C 
ATOM      6  C   UNL     1      -0.235   2.371   8.554  0.00  0.00    -0.010 C 
ATOM      7  C   UNL     1      -1.373   2.667   9.535  0.00  0.00    -0.082 C 
ATOM      8  N   UNL     1      -2.519   1.799   9.234  0.00  0.00    +0.379 N 
ATOM      9  C   UNL     1      -2.151   0.394   9.442  0.00  0.00    -0.082 C 
ATOM     10  C   UNL     1      -1.046   0.002   8.457  0.00  0.00    -0.010 C 
ATOM     11  C   UNL     1       3.167   1.307  10.653  0.00  0.00    +0.247 C 
ATOM     12  O   UNL     1       4.314   1.444  10.275  0.00  0.00    -0.270 OA
ATOM     13  H   UNL     1      -3.288   2.038   9.841  0.00  0.00    -0.086 HD
ATOM     14  H   UNL     1      -2.798   1.934   8.274  0.00  0.00    -0.086 HD
ENDROOT
BRANCH  11  15
ATOM     15  C   UNL     1       2.778   1.751  12.008  0.00  0.00    +0.037 A 
ATOM     16  C   UNL     1       1.631   1.233  12.613  0.00  0.00    +0.014 A 
ATOM     17  C   UNL     1       1.273   1.651  13.877  0.00  0.00    +0.016 A 
ATOM     18  C   UNL     1       2.049   2.583  14.547  0.00  0.00    +0.021 A 
ATOM     19  C   UNL     1       3.187   3.101  13.952  0.00  0.00    -0.036 A 
ATOM     20  C   UNL     1       3.559   2.686  12.691  0.00  0.00    +0.017 A 
ATOM     21  C   UNL     1       4.025   4.114  14.688  0.00  0.00    +0.045 C 
ATOM     22 BR   UNL     1       1.550   3.152  16.280  0.00  0.00    -0.050 Br
ENDBRANCH  11  15
BRANCH   1  24
ATOM     23  N   UNL     1       0.262  -0.268   5.560  0.00  0.00    -0.315 N 
ATOM     24  C   UNL     1       0.825  -0.550   6.751  0.00  0.00    +0.218 C 
ATOM     25  O   UNL     1       0.975  -1.704   7.093  0.00  0.00    -0.275 OA
ATOM     26  H   UNL     1       0.142   0.655   5.286  0.00  0.00    +0.149 HD
BRANCH  23  27
ATOM     27  C   UNL     1      -0.170  -1.356   4.678  0.00  0.00    +0.109 C 
BRANCH  27  28
ATOM     28  C   UNL     1      -0.771  -0.767   3.400  0.00  0.00    +0.057 C 
BRANCH  28  34
ATOM     29  C   UNL     1      -2.468  -2.459   2.660  0.00  0.00    +0.124 A 
ATOM     30  C   UNL     1      -2.876  -3.485   1.819  0.00  0.00    +0.046 A 
ATOM     31  C   UNL     1      -2.033  -3.937   0.823  0.00  0.00    +0.004 A 
ATOM     32  C   UNL     1      -0.783  -3.367   0.662  0.00  0.00    +0.000 A 
ATOM     33  C   UNL     1      -0.374  -2.345   1.498  0.00  0.00    +0.007 A 
ATOM     34  C   UNL     1      -1.216  -1.886   2.493  0.00  0.00    -0.004 A 
BRANCH  29  35
ATOM     35  O   UNL     1      -3.296  -2.013   3.641  0.00  0.00    -0.492 OA
BRANCH  35  37
ATOM     36  C   UNL     1      -5.356  -2.017   4.904  0.00  0.00    +0.048 C 
ATOM     37  C   UNL     1      -4.570  -2.649   3.754  0.00  0.00    +0.225 C 
ENDBRANCH  35  37
ENDBRANCH  29  35
ENDBRANCH  28  34
ENDBRANCH  27  28
ENDBRANCH  23  27
ENDBRANCH   1  24
TORSDOF 7
