REMARK  Name = ZINC10058970
REMARK  12 active torsions:
REMARK  status: ('A' for Active; 'I' for Inactive)
REMARK    1  A    between atoms: C_1  and  C_2
REMARK    2  A    between atoms: C_2  and  C_3
REMARK    3  A    between atoms: C_2  and  C_4
REMARK    4  A    between atoms: C_2  and  C_5
REMARK    5  A    between atoms: C_14  and  O_38
REMARK    6  A    between atoms: C_16  and  C_19
REMARK    7  A    between atoms: C_22  and  O_25
REMARK    8  A    between atoms: O_25  and  C_26
REMARK    9  A    between atoms: C_26  and  C_28
REMARK   10  A    between atoms: C_29  and  C_30
REMARK   11  A    between atoms: C_33  and  O_36
REMARK   12  A    between atoms: O_36  and  C_37
REMARK                            x       y       z     vdW  Elec       q    Type
REMARK                         _______ _______ _______ _____ _____    ______ ____
ROOT
ATOM      1  C   UNL     1     -10.732  -2.804  -6.771  0.00  0.00    -0.000 C 
ATOM      2  C   UNL     1     -12.130  -2.429  -6.271  0.00  0.00    +0.009 C 
ATOM      3  C   UNL     1     -12.024  -1.670  -4.948  0.00  0.00    +0.037 C 
ATOM      4  C   UNL     1     -11.172  -2.484  -3.981  0.00  0.00    -0.023 A 
ATOM      5  C   UNL     1     -10.356  -3.464  -4.432  0.00  0.00    -0.004 A 
ATOM      6  S   UNL     1      -9.585  -4.122  -2.977  0.00  0.00    -0.078 S 
ATOM      7  C   UNL     1     -10.330  -3.123  -1.806  0.00  0.00    +0.080 A 
ATOM      8  C   UNL     1     -11.171  -2.280  -2.542  0.00  0.00    +0.068 A 
ATOM      9  C   UNL     1     -11.963  -1.277  -1.785  0.00  0.00    +0.220 C 
ATOM     10  N   UNL     1     -11.681  -1.107  -0.523  0.00  0.00    -0.223 NA
ATOM     11  C   UNL     1     -10.580  -1.757   0.177  0.00  0.00    +0.224 C 
ATOM     12  N   UNL     1     -10.232  -3.050  -0.438  0.00  0.00    -0.313 N 
ATOM     13  C   UNL     1     -10.154  -3.890  -5.853  0.00  0.00    +0.046 C 
ATOM     14  H   UNL     1      -9.948  -3.810   0.093  0.00  0.00    +0.149 HD
ENDROOT
BRANCH  11  15
ATOM     15  C   UNL     1      -9.374  -0.854   0.141  0.00  0.00    -0.005 A 
ATOM     16  C   UNL     1      -9.540   0.517   0.079  0.00  0.00    +0.011 A 
ATOM     17  C   UNL     1      -8.435   1.346   0.044  0.00  0.00    +0.047 A 
ATOM     18  C   UNL     1      -7.159   0.802   0.073  0.00  0.00    +0.132 A 
ATOM     19  C   UNL     1      -6.996  -0.574   0.130  0.00  0.00    +0.047 A 
ATOM     20  C   UNL     1      -8.104  -1.399   0.169  0.00  0.00    +0.011 A 
BRANCH  18  21
ATOM     21  O   UNL     1      -6.071   1.616   0.039  0.00  0.00    -0.423 OA
BRANCH  21  22
ATOM     22  C   UNL     1      -5.729   2.263   1.172  0.00  0.00    +0.337 C 
ATOM     23  O   UNL     1      -6.437   2.181   2.158  0.00  0.00    -0.245 OA
BRANCH  22  24
ATOM     24  C   UNL     1      -4.544   3.040   1.214  0.00  0.00    +0.092 C 
ATOM     25  C   UNL     1      -4.201   3.688   2.349  0.00  0.00    +0.015 C 
BRANCH  25  26
ATOM     26  C   UNL     1      -2.972   4.494   2.392  0.00  0.00    -0.025 A 
ATOM     27  C   UNL     1      -2.615   5.166   3.567  0.00  0.00    +0.011 A 
ATOM     28  C   UNL     1      -1.460   5.914   3.604  0.00  0.00    +0.046 A 
ATOM     29  C   UNL     1      -0.651   6.006   2.477  0.00  0.00    +0.120 A 
ATOM     30  C   UNL     1      -1.005   5.345   1.306  0.00  0.00    +0.046 A 
ATOM     31  C   UNL     1      -2.158   4.594   1.258  0.00  0.00    +0.011 A 
BRANCH  29  32
ATOM     32  O   UNL     1       0.487   6.745   2.519  0.00  0.00    -0.495 OA
ATOM     33  C   UNL     1       1.271   6.797   1.325  0.00  0.00    +0.277 C 
ENDBRANCH  29  32
ENDBRANCH  25  26
ENDBRANCH  22  24
ENDBRANCH  21  22
ENDBRANCH  18  21
ENDBRANCH  11  15
BRANCH   1  35
ATOM     34  C   UNL     1     -11.737  -4.565  -8.230  0.00  0.00    +0.011 C 
ATOM     35  C   UNL     1     -10.825  -3.338  -8.202  0.00  0.00    -0.035 C 
ATOM     36  C   UNL     1     -11.401  -2.253  -9.115  0.00  0.00    +0.011 C 
ATOM     37  C   UNL     1      -9.429  -3.728  -8.693  0.00  0.00    +0.011 C 
ENDBRANCH   1  35
BRANCH   9  38
ATOM     38  O   UNL     1     -12.944  -0.563  -2.385  0.00  0.00    -0.492 OA
ATOM     39  H   UNL     1     -13.392   0.060  -1.797  0.00  0.00    +0.294 HD
ENDBRANCH   9  38
TORSDOF 8
