REMARK  Name = ZINC03309949
REMARK  9 active torsions:
REMARK  status: ('A' for Active; 'I' for Inactive)
REMARK    1  A    between atoms: N_9  and  S_10
REMARK    2  A    between atoms: S_10  and  C_13
REMARK    3  A    between atoms: C_16  and  C_19
REMARK    4  A    between atoms: C_20  and  C_21
REMARK    5  A    between atoms: N_23  and  C_24
REMARK    6  A    between atoms: C_24  and  C_25
REMARK    7  A    between atoms: C_25  and  C_26
REMARK    8  A    between atoms: C_29  and  S_32
REMARK    9  A    between atoms: S_32  and  N_35
REMARK                            x       y       z     vdW  Elec       q    Type
REMARK                         _______ _______ _______ _____ _____    ______ ____
ROOT
ATOM      1  C   UNL     1      -0.079   5.999   0.034  0.00  0.00    +0.013 C 
ATOM      2  C   UNL     1      -1.256   6.657   0.048  0.00  0.00    +0.068 C 
ENDROOT
BRANCH   1   6
ATOM      3  C   UNL     1      -0.022   1.758   0.012  0.00  0.00    +0.109 A 
ATOM      4  C   UNL     1      -1.232   2.430   0.021  0.00  0.00    +0.029 A 
ATOM      5  C   UNL     1      -1.259   3.808   0.034  0.00  0.00    +0.010 A 
ATOM      6  C   UNL     1      -0.059   4.527   0.026  0.00  0.00    -0.025 A 
ATOM      7  C   UNL     1       1.159   3.841   0.011  0.00  0.00    +0.010 A 
ATOM      8  C   UNL     1       1.169   2.462   0.004  0.00  0.00    +0.029 A 
BRANCH   3   9
ATOM      9  S   UNL     1       0.002  -0.004   0.002  0.00  0.00    +0.075 S 
ATOM     10  O   UNL     1      -1.243  -0.424  -0.539  0.00  0.00    -0.150 OA
ATOM     11  O   UNL     1       1.248  -0.390  -0.563  0.00  0.00    -0.150 OA
BRANCH   9  20
ATOM     12  C   UNL     1       3.210  -1.281   4.146  0.00  0.00    +0.000 A 
ATOM     13  C   UNL     1       3.521  -0.872   2.862  0.00  0.00    +0.002 A 
ATOM     14  C   UNL     1       2.518  -0.596   1.959  0.00  0.00    +0.025 A 
ATOM     15  C   UNL     1       1.178  -0.733   2.331  0.00  0.00    +0.054 A 
ATOM     16  C   UNL     1       0.877  -1.139   3.622  0.00  0.00    -0.023 A 
ATOM     17  C   UNL     1       1.887  -1.413   4.524  0.00  0.00    +0.005 A 
ATOM     18  C   UNL     1      -0.627  -1.200   3.768  0.00  0.00    +0.058 C 
ATOM     19  C   UNL     1      -1.166  -0.771   2.393  0.00  0.00    +0.136 C 
ATOM     20  N   UNL     1       0.024  -0.502   1.581  0.00  0.00    -0.202 N 
ENDBRANCH   9  20
ENDBRANCH   3   9
ENDBRANCH   1   6
BRANCH   2  21
ATOM     21  C   UNL     1      -1.276   8.122   0.057  0.00  0.00    +0.237 C 
ATOM     22  O   UNL     1      -0.230   8.744   0.050  0.00  0.00    -0.271 OA
ATOM     23  N   UNL     1      -2.452   8.780   0.071  0.00  0.00    -0.312 N 
ATOM     24  H   UNL     1      -3.285   8.283   0.076  0.00  0.00    +0.149 HD
BRANCH  23  25
ATOM     25  C   UNL     1      -2.472  10.244   0.079  0.00  0.00    +0.109 C 
BRANCH  25  26
ATOM     26  C   UNL     1      -3.921  10.735   0.095  0.00  0.00    +0.054 C 
BRANCH  26  27
ATOM     27  C   UNL     1      -3.941  12.242   0.103  0.00  0.00    -0.046 A 
ATOM     28  C   UNL     1      -3.946  12.926   1.304  0.00  0.00    +0.005 A 
ATOM     29  C   UNL     1      -3.960  14.308   1.312  0.00  0.00    +0.029 A 
ATOM     30  C   UNL     1      -3.979  15.006   0.118  0.00  0.00    +0.105 A 
ATOM     31  C   UNL     1      -3.980  14.321  -1.083  0.00  0.00    +0.029 A 
ATOM     32  C   UNL     1      -3.962  12.939  -1.090  0.00  0.00    +0.005 A 
BRANCH  30  33
ATOM     33  S   UNL     1      -4.002  16.768   0.128  0.00  0.00    +0.056 S 
ATOM     34  O   UNL     1      -3.446  17.174   1.371  0.00  0.00    -0.153 OA
ATOM     35  O   UNL     1      -3.467  17.188  -1.120  0.00  0.00    -0.153 OA
BRANCH  33  36
ATOM     36  N   UNL     1      -5.590  17.237   0.144  0.00  0.00    -0.204 NA
ATOM     37  H   UNL     1      -6.293  16.569   0.146  0.00  0.00    +0.144 HD
ATOM     38  H   UNL     1      -5.817  18.180   0.151  0.00  0.00    +0.144 HD
ENDBRANCH  33  36
ENDBRANCH  30  33
ENDBRANCH  26  27
ENDBRANCH  25  26
ENDBRANCH  23  25
ENDBRANCH   2  21
TORSDOF 9
