REMARK  Name = ZINC13499654
REMARK  14 active torsions:
REMARK  status: ('A' for Active; 'I' for Inactive)
REMARK    1  A    between atoms: C_1  and  C_2
REMARK    2  A    between atoms: C_2  and  C_3
REMARK    3  A    between atoms: C_3  and  C_4
REMARK    4  A    between atoms: C_4  and  C_6
REMARK    5  A    between atoms: C_4  and  N_72
REMARK    6  A    between atoms: N_10  and  C_11
REMARK    7  A    between atoms: C_17  and  C_18
REMARK    8  A    between atoms: C_17  and  N_72
REMARK    9  A    between atoms: C_18  and  C_19
REMARK   10  A    between atoms: C_19  and  O_20
REMARK   11  A    between atoms: C_21  and  C_22
REMARK   12  A    between atoms: C_21  and  N_72
REMARK   13  A    between atoms: C_27  and  C_35
REMARK   14  A    between atoms: C_28  and  C_34
REMARK                            x       y       z     vdW  Elec       q    Type
REMARK                         _______ _______ _______ _____ _____    ______ ____
ROOT
ATOM      1  N   UNL     1      -0.635   1.688   1.226  0.00  0.00    +0.389 N 
ATOM      2  H   UNL     1      -0.834   2.692   1.306  0.00  0.00    -0.080 HD
ENDROOT
BRANCH   1   3
ATOM      3  C   UNL     1       0.077   1.242   2.442  0.00  0.00    +0.003 C 
BRANCH   3   4
ATOM      4  C   UNL     1       0.974   2.358   2.912  0.00  0.00    +0.138 A 
ATOM      5  N   UNL     1       1.706   3.142   2.159  0.00  0.00    -0.115 NA
ATOM      6  N   UNL     1       2.328   3.966   2.930  0.00  0.00    -0.023 NA
ATOM      7  N   UNL     1       2.012   3.728   4.155  0.00  0.00    -0.044 NA
ATOM      8  N   UNL     1       1.175   2.746   4.185  0.00  0.00    -0.228 N 
BRANCH   8   9
ATOM      9  C   UNL     1       0.561   2.162   5.380  0.00  0.00    +0.111 C 
ATOM     10  C   UNL     1      -0.247   3.234   6.114  0.00  0.00    +0.027 C 
ATOM     11  C   UNL     1      -0.888   2.624   7.362  0.00  0.00    +0.002 C 
ATOM     12  C   UNL     1       0.206   2.088   8.287  0.00  0.00    +0.000 C 
ATOM     13  C   UNL     1       1.014   1.016   7.553  0.00  0.00    +0.002 C 
ATOM     14  C   UNL     1       1.655   1.626   6.305  0.00  0.00    +0.027 C 
ENDBRANCH   8   9
ENDBRANCH   3   4
BRANCH   3  15
ATOM     15  C   UNL     1       0.920   0.001   2.142  0.00  0.00    -0.008 C 
BRANCH  15  17
ATOM     16  C   UNL     1       0.830  -2.442   1.627  0.00  0.00    +0.004 C 
ATOM     17  C   UNL     1       0.000  -1.166   1.778  0.00  0.00    -0.005 C 
ENDBRANCH  15  17
ENDBRANCH   3  15
ENDBRANCH   1   3
BRANCH   1  18
ATOM     18  C   UNL     1      -1.911   0.956   1.090  0.00  0.00    -0.075 C 
BRANCH  18  19
ATOM     19  C   UNL     1      -2.885   1.461   2.157  0.00  0.00    +0.009 C 
BRANCH  19  20
ATOM     20  C   UNL     1      -4.258   0.822   1.939  0.00  0.00    +0.154 C 
BRANCH  20  21
ATOM     21  O   UNL     1      -5.167   1.293   2.935  0.00  0.00    -0.395 OA
ATOM     22  H   UNL     1      -6.059   0.929   2.858  0.00  0.00    +0.209 HD
ENDBRANCH  20  21
ENDBRANCH  19  20
ENDBRANCH  18  19
ENDBRANCH   1  18
BRANCH   1  23
ATOM     23  C   UNL     1       0.209   1.459   0.035  0.00  0.00    -0.037 C 
BRANCH  23  24
ATOM     24  C   UNL     1      -0.430   2.136  -1.150  0.00  0.00    +0.001 A 
ATOM     25  C   UNL     1      -0.057   3.395  -1.491  0.00  0.00    +0.017 A 
ATOM     26  C   UNL     1      -0.694   4.023  -2.650  0.00  0.00    -0.001 A 
ATOM     27  C   UNL     1      -0.347   5.317  -3.054  0.00  0.00    +0.010 A 
ATOM     28  C   UNL     1      -0.964   5.877  -4.136  0.00  0.00    +0.004 A 
ATOM     29  C   UNL     1      -1.931   5.173  -4.840  0.00  0.00    -0.046 A 
ATOM     30  C   UNL     1      -2.289   3.897  -4.461  0.00  0.00    -0.024 A 
ATOM     31  C   UNL     1      -1.675   3.307  -3.362  0.00  0.00    +0.052 A 
ATOM     32  N   UNL     1      -2.012   2.032  -2.961  0.00  0.00    -0.322 N 
ATOM     33  H   UNL     1      -2.688   1.539  -3.452  0.00  0.00    +0.169 HD
ATOM     34  C   UNL     1      -1.419   1.461  -1.898  0.00  0.00    +0.251 A 
ATOM     35  O   UNL     1      -1.742   0.332  -1.571  0.00  0.00    -0.268 OA
ATOM     36  C   UNL     1      -3.340   3.145  -5.236  0.00  0.00    +0.046 C 
ATOM     37  C   UNL     1      -2.598   5.811  -6.032  0.00  0.00    +0.044 C 
ENDBRANCH  23  24
ENDBRANCH   1  23
TORSDOF 11
