REMARK  Name = ZINC24208179
REMARK  11 active torsions:
REMARK  status: ('A' for Active; 'I' for Inactive)
REMARK    1  A    between atoms: C_1  and  C_2
REMARK    2  A    between atoms: C_2  and  C_3
REMARK    3  A    between atoms: C_3  and  N_4
REMARK    4  A    between atoms: C_5  and  C_7
REMARK    5  A    between atoms: C_7  and  S_8
REMARK    6  A    between atoms: S_8  and  C_9
REMARK    7  A    between atoms: C_12  and  S_14
REMARK    8  A    between atoms: S_14  and  C_15
REMARK    9  A    between atoms: C_15  and  C_16
REMARK   10  A    between atoms: N_18  and  C_19
REMARK   11  A    between atoms: C_20  and  C_28
REMARK                            x       y       z     vdW  Elec       q    Type
REMARK                         _______ _______ _______ _____ _____    ______ ____
ROOT
ATOM      1  C   UNL     1      -0.016   1.344   0.009  0.00  0.00    +0.228 C 
ATOM      2  O   UNL     1       1.026   1.964   0.003  0.00  0.00    -0.275 OA
ATOM      3  N   UNL     1       0.002  -0.004   0.002  0.00  0.00    -0.279 N 
ATOM      4  H   UNL     1      -0.943  -0.567   0.008  0.00  0.00    +0.155 HD
ENDROOT
BRANCH   3   5
ATOM      5  C   UNL     1       1.212  -0.681  -0.013  0.00  0.00    +0.084 A 
ATOM      6  C   UNL     1       1.434  -2.051  -0.017  0.00  0.00    +0.068 A 
ATOM      7  C   UNL     1       2.813  -2.508  -0.037  0.00  0.00    -0.023 A 
ATOM      8  C   UNL     1       3.743  -1.529  -0.041  0.00  0.00    -0.004 A 
ATOM      9  S   UNL     1       2.814  -0.022  -0.024  0.00  0.00    -0.077 S 
ATOM     10  C   UNL     1       5.231  -1.697  -0.054  0.00  0.00    +0.043 C 
ATOM     11  C   UNL     1       5.557  -3.152   0.314  0.00  0.00    +0.005 C 
ATOM     12  C   UNL     1       4.671  -4.082  -0.519  0.00  0.00    +0.005 C 
ATOM     13  C   UNL     1       3.219  -3.976  -0.049  0.00  0.00    +0.037 C 
BRANCH   6  14
ATOM     14  C   UNL     1       0.318  -3.002  -0.005  0.00  0.00    +0.244 C 
ATOM     15  O   UNL     1      -0.157  -3.396  -1.054  0.00  0.00    -0.270 OA
ATOM     16  N   UNL     1      -0.182  -3.439   1.168  0.00  0.00    -0.325 N 
ATOM     17  H   UNL     1      -1.019  -4.153   1.177  0.00  0.00    +0.145 HD
ATOM     18  H   UNL     1       0.247  -3.083   2.116  0.00  0.00    +0.145 HD
ENDBRANCH   6  14
ENDBRANCH   3   5
BRANCH   1  19
ATOM     19  C   UNL     1      -1.331   2.079   0.020  0.00  0.00    +0.172 C 
BRANCH  19  20
ATOM     20  S   UNL     1      -1.024   3.867   0.028  0.00  0.00    -0.088 S 
BRANCH  20  24
ATOM     21  C   UNL     1      -4.885   6.050   0.059  0.00  0.00    +0.160 A 
ATOM     22  N   UNL     1      -4.964   4.733   0.052  0.00  0.00    -0.134 NA
ATOM     23  N   UNL     1      -3.813   3.979   0.042  0.00  0.00    -0.134 NA
ATOM     24  C   UNL     1      -2.637   4.577   0.039  0.00  0.00    +0.160 A 
ATOM     25  S   UNL     1      -3.116   6.297   0.058  0.00  0.00    -0.033 S 
BRANCH  21  26
ATOM     26  S   UNL     1      -6.180   7.245   0.072  0.00  0.00    -0.088 S 
BRANCH  26  27
ATOM     27  C   UNL     1      -7.696   6.250   0.074  0.00  0.00    +0.172 C 
BRANCH  27  29
ATOM     28  N   UNL     1     -10.139   6.641   0.089  0.00  0.00    -0.315 N 
ATOM     29  C   UNL     1      -8.896   7.162   0.086  0.00  0.00    +0.223 C 
ATOM     30  O   UNL     1      -8.743   8.365   0.092  0.00  0.00    -0.275 OA
ATOM     31  H   UNL     1     -10.278   5.550   0.084  0.00  0.00    +0.149 HD
BRANCH  28  32
ATOM     32  C   UNL     1     -11.305   7.528   0.100  0.00  0.00    +0.104 C 
BRANCH  32  34
ATOM     33  C   UNL     1     -13.802   7.615   0.114  0.00  0.00    +0.005 C 
ATOM     34  C   UNL     1     -12.584   6.689   0.102  0.00  0.00    +0.015 C 
ENDBRANCH  32  34
ENDBRANCH  28  32
ENDBRANCH  27  29
ENDBRANCH  26  27
ENDBRANCH  21  26
ENDBRANCH  20  24
ENDBRANCH  19  20
ENDBRANCH   1  19
TORSDOF 10
