REMARK  Name = ZINC13005865
REMARK  9 active torsions:
REMARK  status: ('A' for Active; 'I' for Inactive)
REMARK    1  A    between atoms: C_1  and  C_2
REMARK    2  A    between atoms: C_2  and  C_3
REMARK    3  A    between atoms: C_2  and  C_4
REMARK    4  A    between atoms: C_4  and  N_5
REMARK    5  A    between atoms: N_5  and  C_6
REMARK    6  A    between atoms: C_7  and  N_22
REMARK    7  A    between atoms: N_8  and  C_15
REMARK    8  A    between atoms: C_15  and  C_16
REMARK    9  A    between atoms: C_23  and  C_25
REMARK                            x       y       z     vdW  Elec       q    Type
REMARK                         _______ _______ _______ _____ _____    ______ ____
ROOT
ATOM      1  C   UNL     1       2.153   0.894   1.346  0.00  0.00    +0.140 A 
ATOM      2  C   UNL     1       1.726   0.126   2.411  0.00  0.00    +0.128 A 
ATOM      3  N   UNL     1       2.659  -0.412   3.267  0.00  0.00    -0.276 N 
ATOM      4  C   UNL     1       3.971  -0.184   3.075  0.00  0.00    +0.331 A 
ATOM      5  O   UNL     1       4.780  -0.664   3.845  0.00  0.00    -0.246 OA
ATOM      6  N   UNL     1       4.405   0.566   2.046  0.00  0.00    -0.273 N 
ATOM      7  H   UNL     1       5.385   0.720   1.925  0.00  0.00    +0.173 HD
ATOM      8  C   UNL     1       3.533   1.112   1.175  0.00  0.00    +0.277 A 
ATOM      9  O   UNL     1       3.937   1.790   0.246  0.00  0.00    -0.266 OA
ENDROOT
BRANCH   1  10
ATOM     10  N   UNL     1       1.221   1.455   0.448  0.00  0.00    -0.260 N 
ATOM     11  C   UNL     1       0.325   0.664  -0.175  0.00  0.00    +0.254 C 
ATOM     12  O   UNL     1      -0.511   1.154  -0.909  0.00  0.00    -0.270 OA
BRANCH  11  13
ATOM     13  C   UNL     1       0.355  -0.796   0.039  0.00  0.00    +0.072 A 
ATOM     14  C   UNL     1       1.546  -1.428   0.404  0.00  0.00    +0.017 A 
ATOM     15  C   UNL     1       1.568  -2.792   0.602  0.00  0.00    +0.021 A 
ATOM     16  C   UNL     1       0.411  -3.538   0.442  0.00  0.00    +0.044 A 
ATOM     17  C   UNL     1      -0.773  -2.921   0.081  0.00  0.00    +0.059 A 
ATOM     18  C   UNL     1      -0.811  -1.553  -0.116  0.00  0.00    +0.137 A 
ATOM     19  F   UNL     1      -1.969  -0.950  -0.463  0.00  0.00    -0.205 F 
ATOM     20 CL   UNL     1       0.449  -5.255   0.695  0.00  0.00    -0.083 Cl
ENDBRANCH  11  13
BRANCH  10  21
ATOM     21  C   UNL     1       1.228   2.897   0.192  0.00  0.00    +0.117 C 
BRANCH  21  23
ATOM     22  C   UNL     1       0.767   3.459   2.583  0.00  0.00    +0.009 C 
ATOM     23  C   UNL     1       0.253   3.589   1.147  0.00  0.00    +0.001 C 
ATOM     24  C   UNL     1       0.141   5.069   0.778  0.00  0.00    +0.009 C 
ENDBRANCH  21  23
ENDBRANCH  10  21
ENDBRANCH   1  10
BRANCH   2  25
ATOM     25  N   UNL     1       0.386  -0.102   2.611  0.00  0.00    -0.343 N 
ATOM     26  H   UNL     1      -0.269   0.316   2.031  0.00  0.00    +0.144 HD
ATOM     27  H   UNL     1       0.095  -0.682   3.332  0.00  0.00    +0.144 HD
ENDBRANCH   2  25
BRANCH   3  28
ATOM     28  C   UNL     1       2.221  -1.232   4.399  0.00  0.00    +0.163 C 
BRANCH  28  29
ATOM     29  C   UNL     1       1.988  -0.350   5.598  0.00  0.00    -0.028 A 
ATOM     30  C   UNL     1       3.020  -0.101   6.484  0.00  0.00    +0.005 A 
ATOM     31  C   UNL     1       2.807   0.712   7.582  0.00  0.00    +0.000 A 
ATOM     32  C   UNL     1       1.560   1.267   7.799  0.00  0.00    +0.000 A 
ATOM     33  C   UNL     1       0.527   1.013   6.917  0.00  0.00    +0.000 A 
ATOM     34  C   UNL     1       0.741   0.204   5.816  0.00  0.00    +0.005 A 
ENDBRANCH  28  29
ENDBRANCH   3  28
TORSDOF 7
