REMARK  Name = ZINC46581291
REMARK  10 active torsions:
REMARK  status: ('A' for Active; 'I' for Inactive)
REMARK    1  A    between atoms: C_1  and  C_2
REMARK    2  A    between atoms: C_2  and  C_3
REMARK    3  A    between atoms: C_6  and  C_9
REMARK    4  A    between atoms: C_9  and  C_11
REMARK    5  A    between atoms: C_9  and  N_12
REMARK    6  A    between atoms: C_13  and  C_15
REMARK    7  A    between atoms: C_15  and  S_16
REMARK    8  A    between atoms: S_16  and  C_17
REMARK    9  A    between atoms: C_21  and  C_27
REMARK   10  A    between atoms: C_22  and  C_26
REMARK                            x       y       z     vdW  Elec       q    Type
REMARK                         _______ _______ _______ _____ _____    ______ ____
ROOT
ATOM      1  C   UNL     1      -8.225   0.099  -1.550  0.00  0.00    +0.173 C 
ENDROOT
BRANCH   1   3
ATOM      2  N   UNL     1      -6.091  -0.666  -0.559  0.00  0.00    -0.308 N 
ATOM      3  C   UNL     1      -7.436  -0.609  -0.479  0.00  0.00    +0.224 C 
ATOM      4  O   UNL     1      -8.010  -1.128   0.454  0.00  0.00    -0.275 OA
ATOM      5  H   UNL     1      -5.632  -0.251  -1.305  0.00  0.00    +0.149 HD
BRANCH   2   6
ATOM      6  C   UNL     1      -5.324  -1.354   0.483  0.00  0.00    +0.100 C 
ATOM      7  C   UNL     1      -5.260  -2.849   0.164  0.00  0.00    +0.033 C 
BRANCH   6  11
ATOM      8  C   UNL     1      -1.365   0.241   0.626  0.00  0.00    -0.048 A 
ATOM      9  C   UNL     1      -2.027  -0.071   1.798  0.00  0.00    +0.004 A 
ATOM     10  C   UNL     1      -3.308  -0.587   1.752  0.00  0.00    +0.006 A 
ATOM     11  C   UNL     1      -3.928  -0.791   0.533  0.00  0.00    -0.027 A 
ATOM     12  C   UNL     1      -3.266  -0.478  -0.639  0.00  0.00    +0.006 A 
ATOM     13  C   UNL     1      -1.986   0.042  -0.593  0.00  0.00    +0.004 A 
BRANCH   8  15
ATOM     14  C   UNL     1      -0.035   2.330   0.751  0.00  0.00    +0.009 C 
ATOM     15  C   UNL     1       0.033   0.803   0.676  0.00  0.00    +0.032 C 
ENDBRANCH   8  15
ENDBRANCH   6  11
ENDBRANCH   2   6
ENDBRANCH   1   3
BRANCH   1  16
ATOM     16  S   UNL     1      -9.994   0.002  -1.162  0.00  0.00    -0.077 S 
BRANCH  16  17
ATOM     17  C   UNL     1     -10.769   0.864  -2.489  0.00  0.00    +0.191 A 
ATOM     18  N   UNL     1     -10.020   1.383  -3.455  0.00  0.00    -0.207 NA
ATOM     19  C   UNL     1     -10.545   2.039  -4.475  0.00  0.00    +0.129 A 
ATOM     20  C   UNL     1     -11.957   2.200  -4.548  0.00  0.00    +0.050 A 
ATOM     21  C   UNL     1     -12.764   2.870  -5.554  0.00  0.00    -0.028 A 
ATOM     22  C   UNL     1     -14.097   2.896  -5.414  0.00  0.00    -0.008 A 
ATOM     23  S   UNL     1     -14.373   2.006  -3.894  0.00  0.00    -0.073 S 
ATOM     24  C   UNL     1     -12.690   1.623  -3.488  0.00  0.00    +0.115 A 
ATOM     25  N   UNL     1     -12.090   0.978  -2.507  0.00  0.00    -0.214 NA
ATOM     26  C   UNL     1     -15.118   3.528  -6.324  0.00  0.00    +0.052 C 
ATOM     27  C   UNL     1     -12.109   3.530  -6.741  0.00  0.00    +0.045 C 
ATOM     28  N   UNL     1      -9.731   2.565  -5.462  0.00  0.00    -0.343 N 
ATOM     29  H   UNL     1      -8.799   2.755  -5.271  0.00  0.00    +0.144 HD
ATOM     30  H   UNL     1     -10.091   2.744  -6.344  0.00  0.00    +0.144 HD
ENDBRANCH  16  17
ENDBRANCH   1  16
TORSDOF 6
