REMARK  Name = ZINC39671451
REMARK  4 active torsions:
REMARK  status: ('A' for Active; 'I' for Inactive)
REMARK    1  A    between atoms: C_6  and  C_11
REMARK    2  A    between atoms: C_11  and  N_12
REMARK    3  A    between atoms: C_13  and  C_15
REMARK    4  A    between atoms: C_26  and  C_28
REMARK                            x       y       z     vdW  Elec       q    Type
REMARK                         _______ _______ _______ _____ _____    ______ ____
ROOT
ATOM      1  C   UNL     1      -8.276   0.079   3.803  0.00  0.00    +0.100 C 
ATOM      2  C   UNL     1      -7.732   1.417   4.352  0.00  0.00    +0.121 C 
ATOM      3  N   UNL     1      -8.877   2.353   4.260  0.00  0.00    -0.296 N 
ATOM      4  C   UNL     1     -10.052   1.538   4.648  0.00  0.00    +0.115 C 
ATOM      5  C   UNL     1      -9.799   0.161   4.002  0.00  0.00    -0.004 C 
ATOM      6  C   UNL     1     -10.514   0.071   2.657  0.00  0.00    -0.010 C 
ATOM      7  C   UNL     1     -12.027   0.097   2.886  0.00  0.00    -0.082 C 
ATOM      8  N   UNL     1     -12.414  -1.029   3.744  0.00  0.00    +0.379 N 
ATOM      9  C   UNL     1     -11.795  -0.886   5.068  0.00  0.00    -0.082 C 
ATOM     10  C   UNL     1     -10.272  -0.953   4.931  0.00  0.00    -0.010 C 
ATOM     11  C   UNL     1      -8.854   3.653   3.903  0.00  0.00    +0.247 C 
ATOM     12  O   UNL     1      -7.827   4.152   3.488  0.00  0.00    -0.270 OA
ATOM     13  H   UNL     1     -13.418  -1.045   3.844  0.00  0.00    -0.086 HD
ATOM     14  H   UNL     1     -12.107  -1.893   3.322  0.00  0.00    -0.086 HD
ENDROOT
BRANCH  11  15
ATOM     15  C   UNL     1     -10.080   4.471   4.017  0.00  0.00    +0.037 A 
ATOM     16  C   UNL     1     -11.113   4.072   4.867  0.00  0.00    +0.014 A 
ATOM     17  C   UNL     1     -12.254   4.841   4.969  0.00  0.00    +0.016 A 
ATOM     18  C   UNL     1     -12.376   6.006   4.231  0.00  0.00    +0.018 A 
ATOM     19  C   UNL     1     -11.354   6.407   3.386  0.00  0.00    +0.016 A 
ATOM     20  C   UNL     1     -10.206   5.650   3.280  0.00  0.00    +0.014 A 
ATOM     21 BR   UNL     1     -13.944   7.053   4.376  0.00  0.00    -0.050 Br
ENDBRANCH  11  15
BRANCH   1  23
ATOM     22  N   UNL     1      -7.883  -1.284   1.777  0.00  0.00    -0.309 N 
ATOM     23  C   UNL     1      -7.945  -0.061   2.340  0.00  0.00    +0.219 C 
ATOM     24  O   UNL     1      -7.735   0.927   1.668  0.00  0.00    -0.275 OA
ATOM     25  H   UNL     1      -8.052  -2.074   2.313  0.00  0.00    +0.149 HD
BRANCH  22  26
ATOM     26  C   UNL     1      -7.561  -1.420   0.354  0.00  0.00    +0.157 C 
BRANCH  26  32
ATOM     27  C   UNL     1      -6.976  -7.305  -1.080  0.00  0.00    +0.001 A 
ATOM     28  C   UNL     1      -8.348  -7.218  -1.266  0.00  0.00    +0.002 A 
ATOM     29  C   UNL     1      -9.011  -6.028  -1.059  0.00  0.00    +0.026 A 
ATOM     30  C   UNL     1      -8.300  -4.901  -0.659  0.00  0.00    +0.047 A 
ATOM     31  N   UNL     1      -8.661  -3.603  -0.378  0.00  0.00    -0.357 N 
ATOM     32  C   UNL     1      -7.556  -2.879  -0.023  0.00  0.00    +0.034 A 
ATOM     33  H   UNL     1      -9.565  -3.253  -0.426  0.00  0.00    +0.166 HD
ATOM     34  C   UNL     1      -6.466  -3.661  -0.059  0.00  0.00    +0.032 A 
ATOM     35  C   UNL     1      -6.909  -4.995  -0.471  0.00  0.00    -0.000 A 
ATOM     36  C   UNL     1      -6.258  -6.212  -0.682  0.00  0.00    +0.010 A 
ENDBRANCH  26  32
ENDBRANCH  22  26
ENDBRANCH   1  23
TORSDOF 4
