REMARK  Name = ZINC16043789
REMARK  6 active torsions:
REMARK  status: ('A' for Active; 'I' for Inactive)
REMARK    1  A    between atoms: C_1  and  C_2
REMARK    2  A    between atoms: C_3  and  C_20
REMARK    3  A    between atoms: C_4  and  C_10
REMARK    4  A    between atoms: C_15  and  C_16
REMARK    5  A    between atoms: N_22  and  C_23
REMARK    6  A    between atoms: C_26  and  N_29
REMARK                            x       y       z     vdW  Elec       q    Type
REMARK                         _______ _______ _______ _____ _____    ______ ____
ROOT
ATOM      1  C   UNL     1      -3.000   2.007   1.348  0.00  0.00    +0.061 C 
ATOM      2  C   UNL     1      -1.643   2.414   0.836  0.00  0.00    +0.017 C 
ATOM      3  C   UNL     1      -1.471   3.648   0.317  0.00  0.00    +0.056 C 
ATOM      4  C   UNL     1      -0.091   4.014  -0.192  0.00  0.00    +0.140 C 
ATOM      5  N   UNL     1       0.958   2.988  -0.072  0.00  0.00    -0.315 N 
ATOM      6  C   UNL     1       0.633   1.800   0.476  0.00  0.00    +0.135 C 
ATOM      7  S   UNL     1       1.843   0.597   0.621  0.00  0.00    -0.019 S 
ATOM      8  N   UNL     1      -0.604   1.530   0.909  0.00  0.00    -0.300 N 
ATOM      9  H   UNL     1       1.861   3.163  -0.379  0.00  0.00    +0.149 HD
ATOM     10  H   UNL     1      -0.774   0.655   1.293  0.00  0.00    +0.154 HD
ENDROOT
BRANCH   4  11
ATOM     11  C   UNL     1       0.368   5.239   0.557  0.00  0.00    -0.011 A 
ATOM     12  C   UNL     1      -0.052   5.453   1.856  0.00  0.00    +0.006 A 
ATOM     13  C   UNL     1       0.373   6.574   2.544  0.00  0.00    +0.000 A 
ATOM     14  C   UNL     1       1.212   7.485   1.930  0.00  0.00    +0.001 A 
ATOM     15  C   UNL     1       1.628   7.274   0.629  0.00  0.00    +0.013 A 
ATOM     16  C   UNL     1       1.206   6.150  -0.058  0.00  0.00    +0.060 A 
BRANCH  16  17
ATOM     17  C   UNL     1       1.660   5.919  -1.476  0.00  0.00    +0.418 C 
ATOM     18  F   UNL     1       2.482   6.977  -1.881  0.00  0.00    -0.166 F 
ATOM     19  F   UNL     1       2.376   4.719  -1.547  0.00  0.00    -0.166 F 
ATOM     20  F   UNL     1       0.544   5.847  -2.317  0.00  0.00    -0.166 F 
ENDBRANCH  16  17
ENDBRANCH   4  11
BRANCH   3  21
ATOM     21  C   UNL     1      -2.546   4.568   0.245  0.00  0.00    +0.248 C 
ATOM     22  O   UNL     1      -3.609   4.304   0.776  0.00  0.00    -0.270 OA
ATOM     23  N   UNL     1      -2.392   5.734  -0.412  0.00  0.00    -0.282 N 
ATOM     24  H   UNL     1      -1.571   5.912  -0.898  0.00  0.00    +0.155 HD
BRANCH  23  25
ATOM     25  C   UNL     1      -3.414   6.688  -0.393  0.00  0.00    +0.034 A 
ATOM     26  C   UNL     1      -4.741   6.288  -0.487  0.00  0.00    +0.025 A 
ATOM     27  C   UNL     1      -5.749   7.232  -0.463  0.00  0.00    +0.034 A 
ATOM     28  C   UNL     1      -5.437   8.575  -0.355  0.00  0.00    +0.126 A 
ATOM     29  C   UNL     1      -4.117   8.977  -0.267  0.00  0.00    +0.034 A 
ATOM     30  C   UNL     1      -3.105   8.038  -0.285  0.00  0.00    +0.025 A 
BRANCH  28  31
ATOM     31  N   UNL     1      -6.520   9.585  -0.336  0.00  0.00    +0.056 N 
ATOM     32  O   UNL     1      -6.247  10.768  -0.241  0.00  0.00    -0.126 OA
ATOM     33  O   UNL     1      -7.683   9.232  -0.414  0.00  0.00    -0.126 OA
ENDBRANCH  28  31
ENDBRANCH  23  25
ENDBRANCH   3  21
TORSDOF 5
