REMARK  Name = ZINC22369333
REMARK  12 active torsions:
REMARK  status: ('A' for Active; 'I' for Inactive)
REMARK    1  A    between atoms: C_1  and  C_2
REMARK    2  A    between atoms: C_2  and  O_3
REMARK    3  A    between atoms: O_3  and  C_4
REMARK    4  A    between atoms: C_7  and  N_10
REMARK    5  A    between atoms: N_10  and  C_11
REMARK    6  A    between atoms: N_10  and  S_29
REMARK    7  A    between atoms: C_11  and  C_12
REMARK    8  A    between atoms: N_14  and  C_15
REMARK    9  A    between atoms: C_18  and  C_27
REMARK   10  A    between atoms: C_18  and  C_28
REMARK   11  A    between atoms: C_23  and  C_26
REMARK   12  A    between atoms: S_29  and  C_32
REMARK                            x       y       z     vdW  Elec       q    Type
REMARK                         _______ _______ _______ _____ _____    ______ ____
ROOT
ATOM      1  N   UNL     1       6.975  -0.576  -2.359  0.00  0.00    -0.194 N 
ENDROOT
BRANCH   1   5
ATOM      2  C   UNL     1       9.175   2.676  -0.959  0.00  0.00    +0.121 A 
ATOM      3  C   UNL     1       7.788   2.721  -0.949  0.00  0.00    +0.047 A 
ATOM      4  C   UNL     1       7.059   1.644  -1.413  0.00  0.00    +0.028 A 
ATOM      5  C   UNL     1       7.713   0.516  -1.889  0.00  0.00    +0.052 A 
ATOM      6  C   UNL     1       9.101   0.469  -1.894  0.00  0.00    +0.028 A 
ATOM      7  C   UNL     1       9.829   1.549  -1.434  0.00  0.00    +0.047 A 
BRANCH   2   8
ATOM      8  O   UNL     1       9.893   3.736  -0.501  0.00  0.00    -0.492 OA
BRANCH   8  10
ATOM      9  C   UNL     1      11.947   4.902   0.011  0.00  0.00    +0.048 C 
ATOM     10  C   UNL     1      11.316   3.621  -0.540  0.00  0.00    +0.225 C 
ENDBRANCH   8  10
ENDBRANCH   2   8
ENDBRANCH   1   5
BRANCH   1  11
ATOM     11  S   UNL     1       5.919  -1.357  -1.351  0.00  0.00    +0.075 S 
ATOM     12  O   UNL     1       5.660  -0.472  -0.269  0.00  0.00    -0.150 OA
ATOM     13  O   UNL     1       4.883  -1.879  -2.173  0.00  0.00    -0.150 OA
BRANCH  11  14
ATOM     14  C   UNL     1       6.772  -2.743  -0.675  0.00  0.00    +0.109 A 
ATOM     15  C   UNL     1       6.676  -3.978  -1.288  0.00  0.00    +0.031 A 
ATOM     16  C   UNL     1       7.349  -5.065  -0.762  0.00  0.00    +0.040 A 
ATOM     17  C   UNL     1       8.111  -4.918   0.385  0.00  0.00    +0.124 A 
ATOM     18  C   UNL     1       8.201  -3.681   1.001  0.00  0.00    +0.040 A 
ATOM     19  C   UNL     1       7.532  -2.595   0.470  0.00  0.00    +0.031 A 
ATOM     20  F   UNL     1       8.764  -5.981   0.903  0.00  0.00    -0.205 F 
ENDBRANCH  11  14
ENDBRANCH   1  11
BRANCH   1  21
ATOM     21  C   UNL     1       7.136  -1.027  -3.744  0.00  0.00    +0.227 C 
BRANCH  21  22
ATOM     22  C   UNL     1       6.239  -0.217  -4.644  0.00  0.00    +0.233 C 
ATOM     23  O   UNL     1       5.535   0.652  -4.175  0.00  0.00    -0.274 OA
ATOM     24  N   UNL     1       6.219  -0.459  -5.970  0.00  0.00    -0.307 N 
ATOM     25  H   UNL     1       6.858  -1.247  -6.395  0.00  0.00    +0.149 HD
BRANCH  24  26
ATOM     26  C   UNL     1       5.348   0.329  -6.845  0.00  0.00    +0.111 C 
ATOM     27  C   UNL     1       5.024  -0.480  -8.104  0.00  0.00    +0.074 C 
ATOM     28  C   UNL     1       4.368   0.459  -9.124  0.00  0.00    +0.107 C 
ATOM     29  O   UNL     1       5.326   1.446  -9.509  0.00  0.00    -0.486 OA
ATOM     30  C   UNL     1       5.997   2.096  -8.524  0.00  0.00    +0.126 A 
ATOM     31  C   UNL     1       6.046   1.609  -7.229  0.00  0.00    +0.015 A 
ATOM     32  C   UNL     1       6.747   2.302  -6.258  0.00  0.00    +0.012 A 
ATOM     33  C   UNL     1       7.396   3.481  -6.574  0.00  0.00    -0.050 A 
ATOM     34  C   UNL     1       7.346   3.972  -7.865  0.00  0.00    +0.007 A 
ATOM     35  C   UNL     1       6.650   3.284  -8.838  0.00  0.00    +0.046 A 
ATOM     36  C   UNL     1       8.157   4.231  -5.511  0.00  0.00    +0.044 C 
ATOM     37  C   UNL     1       3.152   1.139  -8.491  0.00  0.00    +0.055 C 
ATOM     38  C   UNL     1       3.929  -0.341 -10.353  0.00  0.00    +0.055 C 
ENDBRANCH  24  26
ENDBRANCH  21  22
ENDBRANCH   1  21
TORSDOF 8
