REMARK  Name = ZINC41125137
REMARK  8 active torsions:
REMARK  status: ('A' for Active; 'I' for Inactive)
REMARK    1  A    between atoms: C_1  and  C_2
REMARK    2  A    between atoms: C_2  and  C_3
REMARK    3  A    between atoms: C_3  and  N_4
REMARK    4  A    between atoms: C_8  and  S_17
REMARK    5  A    between atoms: S_17  and  N_20
REMARK    6  A    between atoms: N_20  and  N_21
REMARK    7  A    between atoms: C_22  and  C_24
REMARK    8  A    between atoms: C_27  and  O_30
REMARK                            x       y       z     vdW  Elec       q    Type
REMARK                         _______ _______ _______ _____ _____    ______ ____
ROOT
ATOM      1  S   UNL     1      -2.703  -6.363   3.268  0.00  0.00    +0.074 S 
ATOM      2  O   UNL     1      -1.814  -7.246   3.939  0.00  0.00    -0.152 OA
ATOM      3  O   UNL     1      -3.844  -5.803   3.902  0.00  0.00    -0.152 OA
ENDROOT
BRANCH   1   8
ATOM      4  N   UNL     1       0.762  -1.976   1.234  0.00  0.00    -0.267 N 
ATOM      5  C   UNL     1      -0.212  -2.786   1.804  0.00  0.00    +0.045 A 
ATOM      6  C   UNL     1      -1.396  -2.610   2.495  0.00  0.00    +0.026 A 
ATOM      7  C   UNL     1      -2.125  -3.719   2.923  0.00  0.00    +0.031 A 
ATOM      8  C   UNL     1      -1.730  -5.009   2.696  0.00  0.00    +0.115 A 
ATOM      9  C   UNL     1      -0.532  -5.231   1.997  0.00  0.00    +0.011 A 
ATOM     10  C   UNL     1       0.176  -4.103   1.580  0.00  0.00    +0.018 A 
ATOM     11  C   UNL     1       1.387  -4.147   0.874  0.00  0.00    +0.047 A 
ATOM     12  C   UNL     1       1.893  -5.402   0.582  0.00  0.00    +0.014 A 
ATOM     13  C   UNL     1       1.196  -6.539   0.991  0.00  0.00    +0.001 A 
ATOM     14  C   UNL     1       0.015  -6.486   1.681  0.00  0.00    +0.010 A 
ATOM     15  C   UNL     1       1.733  -2.736   0.662  0.00  0.00    +0.251 C 
ATOM     16  O   UNL     1       2.717  -2.320   0.080  0.00  0.00    -0.270 OA
BRANCH   4  17
ATOM     17  C   UNL     1       0.742  -0.511   1.242  0.00  0.00    +0.114 C 
BRANCH  17  19
ATOM     18  C   UNL     1      -0.019   1.526   0.010  0.00  0.00    +0.005 C 
ATOM     19  C   UNL     1       0.002  -0.004   0.002  0.00  0.00    +0.016 C 
ENDBRANCH  17  19
ENDBRANCH   4  17
ENDBRANCH   1   8
BRANCH   1  20
ATOM     20  N   UNL     1      -3.252  -7.170   1.931  0.00  0.00    -0.108 NA
ATOM     21  H   UNL     1      -4.206  -7.259   1.776  0.00  0.00    +0.172 HD
BRANCH  20  22
ATOM     22  N   UNL     1      -2.341  -7.724   1.023  0.00  0.00    -0.228 N 
ATOM     23  C   UNL     1      -2.414  -9.032   0.708  0.00  0.00    +0.259 C 
ATOM     24  O   UNL     1      -3.272  -9.732   1.211  0.00  0.00    -0.269 OA
ATOM     25  H   UNL     1      -1.657  -7.166   0.621  0.00  0.00    +0.171 HD
BRANCH  23  26
ATOM     26  C   UNL     1      -1.453  -9.616  -0.249  0.00  0.00    +0.038 A 
ATOM     27  C   UNL     1      -0.464  -8.815  -0.825  0.00  0.00    +0.016 A 
ATOM     28  C   UNL     1       0.431  -9.363  -1.716  0.00  0.00    +0.046 A 
ATOM     29  C   UNL     1       0.350 -10.712  -2.045  0.00  0.00    +0.117 A 
ATOM     30  C   UNL     1      -0.633 -11.512  -1.474  0.00  0.00    +0.046 A 
ATOM     31  C   UNL     1      -1.528 -10.972  -0.577  0.00  0.00    +0.016 A 
BRANCH  29  32
ATOM     32  O   UNL     1       1.233 -11.248  -2.925  0.00  0.00    -0.507 OA
ATOM     33  H   UNL     1       2.035 -11.599  -2.513  0.00  0.00    +0.292 HD
ENDBRANCH  29  32
ENDBRANCH  23  26
ENDBRANCH  20  22
ENDBRANCH   1  20
TORSDOF 7
