REMARK  Name = ZINC09347223
REMARK  12 active torsions:
REMARK  status: ('A' for Active; 'I' for Inactive)
REMARK    1  A    between atoms: C_1  and  C_2
REMARK    2  A    between atoms: C_2  and  S_3
REMARK    3  A    between atoms: S_3  and  C_4
REMARK    4  A    between atoms: C_8  and  C_10
REMARK    5  A    between atoms: N_12  and  C_13
REMARK    6  A    between atoms: C_14  and  C_25
REMARK    7  A    between atoms: C_18  and  C_23
REMARK    8  A    between atoms: C_18  and  C_24
REMARK    9  A    between atoms: C_19  and  C_21
REMARK   10  A    between atoms: C_19  and  C_22
REMARK   11  A    between atoms: C_25  and  O_27
REMARK   12  A    between atoms: O_27  and  C_28
REMARK                            x       y       z     vdW  Elec       q    Type
REMARK                         _______ _______ _______ _____ _____    ______ ____
ROOT
ATOM      1  C   UNL     1       1.086   7.397   0.028  0.00  0.00    +0.086 A 
ATOM      2  C   UNL     1       2.170   8.270   0.021  0.00  0.00    +0.091 A 
ATOM      3  C   UNL     1       1.880   9.688   0.025  0.00  0.00    -0.024 A 
ATOM      4  C   UNL     1       0.567  10.016   0.046  0.00  0.00    -0.016 A 
ATOM      5  S   UNL     1      -0.281   8.463   0.050  0.00  0.00    -0.079 S 
ATOM      6  C   UNL     1      -0.006  11.395   0.071  0.00  0.00    -0.041 C 
ATOM      7  C   UNL     1       2.278  11.997  -0.739  0.00  0.00    -0.069 C 
ATOM      8  C   UNL     1       2.909  10.811   0.000  0.00  0.00    +0.024 C 
ATOM      9  C   UNL     1       2.083  11.628  -2.212  0.00  0.00    -0.010 C 
ATOM     10  C   UNL     1       3.268  13.175  -0.674  0.00  0.00    -0.010 C 
ATOM     11  C   UNL     1      -1.095  11.515  -1.004  0.00  0.00    -0.005 C 
ATOM     12  C   UNL     1      -0.667  11.621   1.444  0.00  0.00    -0.005 C 
ATOM     13  N   UNL     1       1.014  12.467  -0.116  0.00  0.00    +0.389 N 
ATOM     14  H   UNL     1       1.236  12.867   0.803  0.00  0.00    -0.084 HD
ATOM     15  H   UNL     1       0.610  13.196  -0.717  0.00  0.00    -0.084 HD
ENDROOT
BRANCH   1  18
ATOM     16  C   UNL     1      -0.062   5.328   0.030  0.00  0.00    +0.249 C 
ATOM     17  O   UNL     1      -1.120   5.926   0.043  0.00  0.00    -0.270 OA
ATOM     18  N   UNL     1       1.099   6.013   0.021  0.00  0.00    -0.275 N 
ATOM     19  H   UNL     1       1.943   5.536   0.011  0.00  0.00    +0.156 HD
BRANCH  16  24
ATOM     20  C   UNL     1      -1.228   1.752   0.017  0.00  0.00    +0.009 A 
ATOM     21  C   UNL     1      -0.013   1.076   0.008  0.00  0.00    +0.015 A 
ATOM     22  C   UNL     1       1.176   1.781   0.000  0.00  0.00    +0.002 A 
ATOM     23  C   UNL     1       1.166   3.161   0.007  0.00  0.00    +0.013 A 
ATOM     24  C   UNL     1      -0.049   3.850   0.023  0.00  0.00    +0.038 A 
ATOM     25  C   UNL     1      -1.249   3.139   0.031  0.00  0.00    +0.027 A 
BRANCH  20  26
ATOM     26  S   UNL     1      -2.740   0.848   0.019  0.00  0.00    -0.125 S 
BRANCH  26  28
ATOM     27  C   UNL     1      -3.446  -1.794   0.007  0.00  0.00    +0.015 C 
ATOM     28  C   UNL     1      -2.213  -0.888   0.007  0.00  0.00    +0.071 C 
ENDBRANCH  26  28
ENDBRANCH  20  26
ENDBRANCH  16  24
ENDBRANCH   1  18
BRANCH   2  29
ATOM     29  C   UNL     1       3.543   7.762   0.015  0.00  0.00    +0.342 C 
ATOM     30  O   UNL     1       4.108   7.550  -1.042  0.00  0.00    -0.245 OA
BRANCH  29  31
ATOM     31  O   UNL     1       4.182   7.529   1.180  0.00  0.00    -0.464 OA
ATOM     32  C   UNL     1       5.541   7.025   1.097  0.00  0.00    +0.280 C 
ENDBRANCH  29  31
ENDBRANCH   2  29
TORSDOF 6
