REMARK  Name = ZINC66240589
REMARK  9 active torsions:
REMARK  status: ('A' for Active; 'I' for Inactive)
REMARK    1  A    between atoms: C_1  and  C_2
REMARK    2  A    between atoms: C_5  and  C_29
REMARK    3  A    between atoms: N_8  and  C_10
REMARK    4  A    between atoms: C_10  and  C_11
REMARK    5  A    between atoms: C_11  and  N_12
REMARK    6  A    between atoms: C_13  and  C_15
REMARK    7  A    between atoms: C_18  and  N_21
REMARK    8  A    between atoms: C_22  and  N_28
REMARK    9  A    between atoms: C_23  and  C_26
REMARK                            x       y       z     vdW  Elec       q    Type
REMARK                         _______ _______ _______ _____ _____    ______ ____
ROOT
ATOM      1  C   UNL     1       4.926  -0.149   6.240  0.00  0.00    +0.037 A 
ATOM      2  C   UNL     1       4.360  -1.054   7.142  0.00  0.00    +0.015 A 
ATOM      3  C   UNL     1       5.070  -1.449   8.253  0.00  0.00    +0.028 A 
ATOM      4  C   UNL     1       6.349  -0.950   8.478  0.00  0.00    +0.067 A 
ATOM      5  C   UNL     1       6.914  -0.049   7.582  0.00  0.00    +0.028 A 
ATOM      6  C   UNL     1       6.212   0.347   6.466  0.00  0.00    +0.015 A 
ENDROOT
BRANCH   4   7
ATOM      7  N   UNL     1       7.066  -1.353   9.607  0.00  0.00    -0.218 N 
ATOM      8  C   UNL     1       8.411  -1.534   9.673  0.00  0.00    +0.137 A 
ATOM      9  C   UNL     1       8.705  -1.934  10.973  0.00  0.00    +0.111 A 
ATOM     10  C   UNL     1       7.480  -1.983  11.679  0.00  0.00    +0.155 A 
ATOM     11  N   UNL     1       6.523  -1.634  10.866  0.00  0.00    -0.172 NA
BRANCH   8  12
ATOM     12  N   UNL     1       9.315  -1.356   8.644  0.00  0.00    -0.342 N 
ATOM     13  H   UNL     1       9.005  -1.075   7.769  0.00  0.00    +0.144 HD
ATOM     14  H   UNL     1      10.260  -1.513   8.796  0.00  0.00    +0.144 HD
ENDBRANCH   8  12
BRANCH   9  15
ATOM     15  C   UNL     1      10.002  -2.238  11.498  0.00  0.00    +0.104 C 
ATOM     16  N   UNL     1      11.032  -2.479  11.914  0.00  0.00    -0.191 NA
ENDBRANCH   9  15
ENDBRANCH   4   7
BRANCH   1  18
ATOM     17  N   UNL     1       2.927  -0.202   4.830  0.00  0.00    -0.313 N 
ATOM     18  C   UNL     1       4.167   0.278   5.047  0.00  0.00    +0.244 C 
ATOM     19  O   UNL     1       4.662   1.061   4.260  0.00  0.00    -0.270 OA
ATOM     20  H   UNL     1       2.532  -0.827   5.457  0.00  0.00    +0.149 HD
BRANCH  17  21
ATOM     21  C   UNL     1       2.174   0.221   3.646  0.00  0.00    +0.086 C 
BRANCH  21  22
ATOM     22  C   UNL     1       0.807  -0.464   3.639  0.00  0.00    -0.060 C 
BRANCH  22  28
ATOM     23  C   UNL     1      -0.019   1.526   0.010  0.00  0.00    +0.005 C 
ATOM     24  C   UNL     1       0.002  -0.004   0.002  0.00  0.00    -0.031 C 
ATOM     25  C   UNL     1      -1.434  -0.535   0.015  0.00  0.00    +0.003 C 
ATOM     26  C   UNL     1      -2.117  -0.099   1.315  0.00  0.00    -0.031 C 
ATOM     27  C   UNL     1      -1.302  -0.604   2.507  0.00  0.00    -0.076 C 
ATOM     28  N   UNL     1       0.052  -0.040   2.452  0.00  0.00    +0.381 N 
ATOM     29  C   UNL     1       0.740  -0.512   1.242  0.00  0.00    -0.076 C 
ATOM     30  C   UNL     1      -3.528  -0.689   1.373  0.00  0.00    +0.005 C 
ATOM     31  H   UNL     1      -0.004   0.967   2.434  0.00  0.00    -0.082 HD
ENDBRANCH  22  28
ENDBRANCH  21  22
ENDBRANCH  17  21
ENDBRANCH   1  18
TORSDOF 7
