REMARK  Name = ZINC36543355
REMARK  16 active torsions:
REMARK  status: ('A' for Active; 'I' for Inactive)
REMARK    1  A    between atoms: C_1  and  C_2
REMARK    2  A    between atoms: C_3  and  C_4
REMARK    3  A    between atoms: C_4  and  C_6
REMARK    4  A    between atoms: C_4  and  N_17
REMARK    5  A    between atoms: N_8  and  C_9
REMARK    6  A    between atoms: C_9  and  C_10
REMARK    7  A    between atoms: C_9  and  C_11
REMARK    8  A    between atoms: C_9  and  C_12
REMARK    9  A    between atoms: C_12  and  C_13
REMARK   10  A    between atoms: C_13  and  C_14
REMARK   11  A    between atoms: C_13  and  C_15
REMARK   12  A    between atoms: C_13  and  C_16
REMARK   13  A    between atoms: N_17  and  C_18
REMARK   14  A    between atoms: C_25  and  C_27
REMARK   15  A    between atoms: C_29  and  N_36
REMARK   16  A    between atoms: C_31  and  N_33
REMARK                            x       y       z     vdW  Elec       q    Type
REMARK                         _______ _______ _______ _____ _____    ______ ____
ROOT
ATOM      1  N   UNL     1      -0.714  -2.921   0.204  0.00  0.00    -0.251 N 
ATOM      2  C   UNL     1       0.156  -1.970  -0.188  0.00  0.00    +0.252 C 
ATOM      3  O   UNL     1      -0.242  -0.849  -0.439  0.00  0.00    -0.270 OA
ENDROOT
BRANCH   1   4
ATOM      4  C   UNL     1      -0.241  -4.157   0.658  0.00  0.00    +0.056 A 
ATOM      5  C   UNL     1       0.517  -4.228   1.820  0.00  0.00    +0.025 A 
ATOM      6  C   UNL     1       0.983  -5.450   2.266  0.00  0.00    +0.002 A 
ATOM      7  C   UNL     1       0.696  -6.602   1.556  0.00  0.00    +0.002 A 
ATOM      8  C   UNL     1      -0.058  -6.535   0.399  0.00  0.00    +0.022 A 
ATOM      9  C   UNL     1      -0.532  -5.317  -0.049  0.00  0.00    +0.062 A 
ATOM     10 CL   UNL     1      -1.485  -5.235  -1.498  0.00  0.00    -0.082 Cl
ENDBRANCH   1   4
BRANCH   2  11
ATOM     11  C   UNL     1       1.593  -2.289  -0.315  0.00  0.00    +0.042 A 
ATOM     12  C   UNL     1       1.998  -3.585  -0.639  0.00  0.00    +0.046 A 
ATOM     13  C   UNL     1       3.341  -3.876  -0.756  0.00  0.00    +0.129 A 
ATOM     14  C   UNL     1       4.287  -2.887  -0.553  0.00  0.00    +0.065 A 
ATOM     15  C   UNL     1       3.893  -1.600  -0.231  0.00  0.00    +0.129 A 
ATOM     16  C   UNL     1       2.553  -1.294  -0.116  0.00  0.00    +0.046 A 
BRANCH  15  17
ATOM     17  N   UNL     1       4.912  -0.549  -0.014  0.00  0.00    +0.057 N 
ATOM     18  O   UNL     1       6.087  -0.814  -0.118  0.00  0.00    -0.126 OA
ATOM     19  O   UNL     1       4.569   0.576   0.268  0.00  0.00    -0.126 OA
ENDBRANCH  15  17
BRANCH  13  20
ATOM     20  N   UNL     1       3.772  -5.250  -1.099  0.00  0.00    +0.057 N 
ATOM     21  O   UNL     1       2.946  -6.116  -1.277  0.00  0.00    -0.126 OA
ATOM     22  O   UNL     1       4.949  -5.507  -1.202  0.00  0.00    -0.126 OA
ENDBRANCH  13  20
ENDBRANCH   2  11
BRANCH   1  23
ATOM     23  C   UNL     1      -2.155  -2.662   0.156  0.00  0.00    +0.190 C 
BRANCH  23  24
ATOM     24  C   UNL     1      -2.537  -2.209  -1.229  0.00  0.00    +0.238 C 
ATOM     25  O   UNL     1      -1.699  -2.161  -2.105  0.00  0.00    -0.273 OA
ATOM     26  N   UNL     1      -3.811  -1.856  -1.496  0.00  0.00    -0.308 N 
ATOM     27  H   UNL     1      -4.481  -1.894  -0.795  0.00  0.00    +0.149 HD
BRANCH  26  28
ATOM     28  C   UNL     1      -4.183  -1.416  -2.842  0.00  0.00    +0.030 C 
ATOM     29  C   UNL     1      -3.653  -0.000  -3.080  0.00  0.00    +0.031 C 
ATOM     30  C   UNL     1      -3.577  -2.367  -3.876  0.00  0.00    +0.031 C 
BRANCH  28  31
ATOM     31  C   UNL     1      -5.707  -1.419  -2.977  0.00  0.00    +0.031 C 
BRANCH  31  32
ATOM     32  C   UNL     1      -6.304  -2.426  -1.992  0.00  0.00    -0.036 C 
ATOM     33  C   UNL     1      -6.352  -1.804  -0.595  0.00  0.00    +0.010 C 
ATOM     34  C   UNL     1      -7.721  -2.795  -2.435  0.00  0.00    +0.010 C 
ATOM     35  C   UNL     1      -5.435  -3.685  -1.960  0.00  0.00    +0.010 C 
ENDBRANCH  31  32
ENDBRANCH  28  31
ENDBRANCH  26  28
ENDBRANCH  23  24
BRANCH  23  38
ATOM     36  C   UNL     1      -1.892   0.113   2.794  0.00  0.00    +0.035 C 
ATOM     37  C   UNL     1      -1.569  -1.055   1.899  0.00  0.00    -0.032 C 
ATOM     38  C   UNL     1      -2.505  -1.586   1.151  0.00  0.00    +0.000 C 
ENDBRANCH  23  38
ENDBRANCH   1  23
TORSDOF 10
