REMARK  Name = ZINC39932473
REMARK  14 active torsions:
REMARK  status: ('A' for Active; 'I' for Inactive)
REMARK    1  A    between atoms: C_1  and  O_2
REMARK    2  A    between atoms: O_2  and  C_3
REMARK    3  A    between atoms: C_5  and  C_13
REMARK    4  A    between atoms: C_7  and  O_11
REMARK    5  A    between atoms: C_8  and  O_9
REMARK    6  A    between atoms: O_9  and  C_10
REMARK    7  A    between atoms: O_11  and  C_12
REMARK    8  A    between atoms: C_17  and  O_31
REMARK    9  A    between atoms: C_18  and  O_29
REMARK   10  A    between atoms: N_23  and  C_24
REMARK   11  A    between atoms: C_24  and  C_25
REMARK   12  A    between atoms: N_26  and  O_27
REMARK   13  A    between atoms: O_29  and  C_30
REMARK   14  A    between atoms: O_31  and  C_32
REMARK                            x       y       z     vdW  Elec       q    Type
REMARK                         _______ _______ _______ _____ _____    ______ ____
ROOT
ATOM      1  C   UNL     1       2.402   0.386  -4.230  0.00  0.00    -0.006 C 
ATOM      2  C   UNL     1       3.889   0.475  -4.010  0.00  0.00    -0.050 A 
ATOM      3  C   UNL     1       4.357   0.647  -2.715  0.00  0.00    +0.052 A 
ATOM      4  C   UNL     1       5.715   0.737  -2.468  0.00  0.00    +0.162 A 
ATOM      5  C   UNL     1       6.616   0.653  -3.525  0.00  0.00    +0.162 A 
ATOM      6  C   UNL     1       6.145   0.481  -4.815  0.00  0.00    +0.053 A 
ATOM      7  C   UNL     1       4.783   0.391  -5.057  0.00  0.00    -0.044 A 
ATOM      8  C   UNL     1       4.314   0.194  -6.476  0.00  0.00    +0.017 C 
ATOM      9  C   UNL     1       2.824   0.519  -6.579  0.00  0.00    -0.072 C 
ATOM     10  N   UNL     1       2.109  -0.224  -5.530  0.00  0.00    +0.392 N 
ATOM     11  H   UNL     1       2.415  -1.185  -5.529  0.00  0.00    -0.080 HD
ENDROOT
BRANCH   1  14
ATOM     12  C   UNL     1       0.606  -0.608  -1.056  0.00  0.00    +0.165 A 
ATOM     13  C   UNL     1       1.173   0.160  -2.063  0.00  0.00    +0.052 A 
ATOM     14  C   UNL     1       1.787  -0.452  -3.139  0.00  0.00    -0.050 A 
ATOM     15  C   UNL     1       1.839  -1.831  -3.217  0.00  0.00    +0.052 A 
ATOM     16  C   UNL     1       1.275  -2.606  -2.215  0.00  0.00    +0.165 A 
ATOM     17  C   UNL     1       0.661  -1.994  -1.128  0.00  0.00    +0.204 A 
BRANCH  12  19
ATOM     18  C   UNL     1      -0.017   1.425   0.010  0.00  0.00    +0.277 C 
ATOM     19  O   UNL     1       0.002  -0.004   0.002  0.00  0.00    -0.491 OA
ENDBRANCH  12  19
BRANCH  17  20
ATOM     20  O   UNL     1       0.111  -2.751  -0.140  0.00  0.00    -0.488 OA
ATOM     21  C   UNL     1      -1.260  -3.124  -0.295  0.00  0.00    +0.277 C 
ENDBRANCH  17  20
BRANCH  16  22
ATOM     22  O   UNL     1       1.326  -3.963  -2.293  0.00  0.00    -0.491 OA
ATOM     23  C   UNL     1       1.977  -4.523  -3.435  0.00  0.00    +0.277 C 
ENDBRANCH  16  22
ENDBRANCH   1  14
BRANCH   5  24
ATOM     24  O   UNL     1       7.953   0.742  -3.292  0.00  0.00    -0.491 OA
ATOM     25  C   UNL     1       8.817   0.648  -4.426  0.00  0.00    +0.277 C 
ENDBRANCH   5  24
BRANCH   4  26
ATOM     26  O   UNL     1       6.167   0.904  -1.196  0.00  0.00    -0.491 OA
ATOM     27  C   UNL     1       5.184   0.981  -0.162  0.00  0.00    +0.277 C 
ENDBRANCH   4  26
BRANCH  10  28
ATOM     28  C   UNL     1       0.664  -0.166  -5.786  0.00  0.00    -0.002 C 
BRANCH  28  29
ATOM     29  C   UNL     1       0.350  -0.901  -7.064  0.00  0.00    +0.115 C 
ATOM     30  N   UNL     1       1.301  -1.456  -7.740  0.00  0.00    -0.079 NA
ATOM     31  N   UNL     1      -0.950  -0.982  -7.511  0.00  0.00    -0.345 N 
ATOM     32  H   UNL     1      -1.664  -0.565  -7.003  0.00  0.00    +0.143 HD
ATOM     33  H   UNL     1      -1.152  -1.455  -8.333  0.00  0.00    +0.143 HD
BRANCH  30  34
ATOM     34  O   UNL     1       1.006  -2.147  -8.941  0.00  0.00    -0.408 OA
ATOM     35  H   UNL     1       1.781  -2.528  -9.376  0.00  0.00    +0.328 HD
ENDBRANCH  30  34
ENDBRANCH  28  29
ENDBRANCH  10  28
TORSDOF 9
