REMARK  Name = ZINC40813561
REMARK  5 active torsions:
REMARK  status: ('A' for Active; 'I' for Inactive)
REMARK    1  A    between atoms: C_1  and  C_2
REMARK    2  A    between atoms: C_6  and  C_7
REMARK    3  A    between atoms: N_9  and  C_10
REMARK    4  A    between atoms: N_22  and  N_23
REMARK    5  A    between atoms: C_24  and  C_26
REMARK                            x       y       z     vdW  Elec       q    Type
REMARK                         _______ _______ _______ _____ _____    ______ ____
ROOT
ATOM      1  C   UNL     1       0.038   1.449   0.006  0.00  0.00    +0.048 C 
ATOM      2  C   UNL     1       0.062  -0.055  -0.089  0.00  0.00    +0.009 A 
ATOM      3  C   UNL     1       0.052  -0.823  -1.260  0.00  0.00    +0.042 A 
ATOM      4  C   UNL     1       0.081  -2.146  -0.885  0.00  0.00    +0.115 A 
ATOM      5  O   UNL     1       0.110  -2.197   0.444  0.00  0.00    -0.454 OA
ATOM      6  C   UNL     1       0.104  -0.942   0.950  0.00  0.00    +0.193 A 
ATOM      7  C   UNL     1       0.074  -3.280  -1.879  0.00  0.00    +0.075 C 
ATOM      8  C   UNL     1      -0.474  -2.780  -3.218  0.00  0.00    +0.014 C 
ATOM      9  C   UNL     1       0.286  -1.532  -3.680  0.00  0.00    +0.058 C 
ATOM     10  C   UNL     1       0.019  -0.415  -2.682  0.00  0.00    +0.070 C 
ATOM     11  N   UNL     1      -0.219   0.807  -3.050  0.00  0.00    -0.184 NA
ENDROOT
BRANCH   6  12
ATOM     12  C   UNL     1       0.134  -0.593   2.374  0.00  0.00    +0.284 C 
ATOM     13  O   UNL     1       0.122   0.576   2.715  0.00  0.00    -0.266 OA
ATOM     14  N   UNL     1       0.174  -1.566   3.306  0.00  0.00    -0.279 N 
ATOM     15  H   UNL     1       0.118  -2.497   3.039  0.00  0.00    +0.155 HD
BRANCH  14  16
ATOM     16  C   UNL     1       0.297  -1.234   4.660  0.00  0.00    +0.035 A 
ATOM     17  C   UNL     1       1.036  -2.045   5.511  0.00  0.00    +0.025 A 
ATOM     18  C   UNL     1       1.156  -1.715   6.846  0.00  0.00    +0.023 A 
ATOM     19  C   UNL     1       0.540  -0.577   7.338  0.00  0.00    +0.059 A 
ATOM     20  C   UNL     1      -0.197   0.234   6.492  0.00  0.00    +0.061 A 
ATOM     21  C   UNL     1      -0.316  -0.089   5.153  0.00  0.00    +0.044 A 
ATOM     22 CL   UNL     1      -0.969   1.660   7.112  0.00  0.00    -0.082 Cl
ATOM     23 CL   UNL     1       0.693  -0.166   9.018  0.00  0.00    -0.082 Cl
ENDBRANCH  14  16
ENDBRANCH   6  12
BRANCH  11  24
ATOM     24  N   UNL     1      -0.237   1.137  -4.411  0.00  0.00    -0.203 N 
ATOM     25  C   UNL     1      -0.485   2.405  -4.794  0.00  0.00    +0.264 C 
ATOM     26  O   UNL     1      -0.692   3.263  -3.957  0.00  0.00    -0.268 OA
ATOM     27  H   UNL     1      -0.072   0.453  -5.079  0.00  0.00    +0.178 HD
BRANCH  25  28
ATOM     28  C   UNL     1      -0.504   2.753  -6.226  0.00  0.00    +0.046 A 
ATOM     29  C   UNL     1      -0.381   1.767  -7.197  0.00  0.00    +0.014 A 
ATOM     30  C   UNL     1      -0.399   2.096  -8.545  0.00  0.00    +0.001 A 
ATOM     31  C   UNL     1      -0.537   3.383  -8.967  0.00  0.00    +0.008 A 
ATOM     32  C   UNL     1      -0.667   4.431  -8.041  0.00  0.00    -0.017 A 
ATOM     33  C   UNL     1      -0.660   4.141  -6.655  0.00  0.00    -0.006 A 
ATOM     34  C   UNL     1      -0.795   5.182  -5.729  0.00  0.00    +0.009 A 
ATOM     35  C   UNL     1      -0.938   6.463  -6.172  0.00  0.00    +0.001 A 
ATOM     36  C   UNL     1      -0.952   6.752  -7.534  0.00  0.00    +0.001 A 
ATOM     37  C   UNL     1      -0.810   5.765  -8.462  0.00  0.00    +0.008 A 
ENDBRANCH  25  28
ENDBRANCH  11  24
TORSDOF 4
