REMARK  Name = ZINC29788036
REMARK  8 active torsions:
REMARK  status: ('A' for Active; 'I' for Inactive)
REMARK    1  A    between atoms: C_1  and  C_2
REMARK    2  A    between atoms: C_2  and  C_27
REMARK    3  A    between atoms: C_4  and  N_10
REMARK    4  A    between atoms: C_6  and  C_8
REMARK    5  A    between atoms: C_6  and  C_9
REMARK    6  A    between atoms: C_11  and  C_13
REMARK    7  A    between atoms: C_13  and  C_14
REMARK    8  A    between atoms: C_14  and  N_15
REMARK                            x       y       z     vdW  Elec       q    Type
REMARK                         _______ _______ _______ _____ _____    ______ ____
ROOT
ATOM      1  N   UNL     1       0.389   5.051  -1.207  0.00  0.00    -0.313 N 
ATOM      2  C   UNL     1       0.113   5.703  -2.353  0.00  0.00    +0.215 C 
ATOM      3  O   UNL     1      -0.129   5.078  -3.364  0.00  0.00    -0.276 OA
ATOM      4  H   UNL     1       0.608   5.617  -0.290  0.00  0.00    +0.149 HD
ENDROOT
BRANCH   1   8
ATOM      5  C   UNL     1      -0.944   0.975  -2.269  0.00  0.00    -0.010 C 
ATOM      6  C   UNL     1      -1.042   1.551  -0.852  0.00  0.00    -0.072 C 
ATOM      7  C   UNL     1      -1.022   3.076  -0.918  0.00  0.00    +0.009 C 
ATOM      8  C   UNL     1       0.396   3.583  -1.181  0.00  0.00    +0.070 C 
ATOM      9  C   UNL     1       1.298   3.104  -0.042  0.00  0.00    +0.009 C 
ATOM     10  C   UNL     1       1.320   1.577  -0.002  0.00  0.00    -0.072 C 
ATOM     11  N   UNL     1      -0.012   1.005   0.008  0.00  0.00    +0.386 N 
ATOM     12  C   UNL     1       2.035   1.156   1.301  0.00  0.00    -0.010 C 
ATOM     13  C   UNL     1       2.151   1.041  -1.172  0.00  0.00    -0.010 C 
ATOM     14  C   UNL     1      -2.415   1.129  -0.282  0.00  0.00    -0.010 C 
ATOM     15  H   UNL     1      -0.328   1.088   1.058  0.00  0.00    -0.084 HD
ATOM     16  H   UNL     1       0.152  -0.053  -0.244  0.00  0.00    -0.084 HD
ENDBRANCH   1   8
BRANCH   2  17
ATOM     17  C   UNL     1       0.105   7.210  -2.379  0.00  0.00    +0.115 C 
BRANCH  17  18
ATOM     18  C   UNL     1      -0.234   7.694  -3.790  0.00  0.00    +0.127 C 
BRANCH  18  19
ATOM     19  N   UNL     1      -0.241   9.159  -3.816  0.00  0.00    -0.224 N 
ATOM     20  C   UNL     1       0.840   9.918  -4.089  0.00  0.00    +0.247 C 
ATOM     21  O   UNL     1       1.959   9.534  -4.351  0.00  0.00    -0.273 OA
ATOM     22  C   UNL     1       0.361  11.349  -4.000  0.00  0.00    +0.113 C 
ATOM     23  C   UNL     1       0.529  12.050  -5.344  0.00  0.00    +0.035 C 
ATOM     24  C   UNL     1       0.013  13.487  -5.242  0.00  0.00    +0.003 C 
ATOM     25  C   UNL     1       0.795  14.232  -4.158  0.00  0.00    +0.000 C 
ATOM     26  C   UNL     1       0.597  13.532  -2.812  0.00  0.00    +0.003 C 
ATOM     27  C   UNL     1       1.115  12.095  -2.905  0.00  0.00    +0.035 C 
ATOM     28  N   UNL     1      -1.061  11.229  -3.657  0.00  0.00    -0.285 N 
ATOM     29  C   UNL     1      -1.323   9.910  -3.576  0.00  0.00    +0.309 C 
ATOM     30  O   UNL     1      -2.418   9.453  -3.311  0.00  0.00    -0.252 OA
ATOM     31  H   UNL     1      -1.673  12.133  -3.522  0.00  0.00    +0.151 HD
ENDBRANCH  18  19
ENDBRANCH  17  18
ENDBRANCH   2  17
TORSDOF 4
