REMARK  Name = ZINC35095585
REMARK  12 active torsions:
REMARK  status: ('A' for Active; 'I' for Inactive)
REMARK    1  A    between atoms: C_1  and  C_2
REMARK    2  A    between atoms: C_2  and  C_3
REMARK    3  A    between atoms: C_2  and  C_4
REMARK    4  A    between atoms: N_6  and  C_7
REMARK    5  A    between atoms: N_6  and  C_27
REMARK    6  A    between atoms: C_7  and  C_8
REMARK    7  A    between atoms: C_8  and  N_9
REMARK    8  A    between atoms: C_15  and  C_17
REMARK    9  A    between atoms: C_20  and  N_24
REMARK   10  A    between atoms: C_27  and  C_28
REMARK   11  A    between atoms: C_36  and  C_37
REMARK   12  A    between atoms: C_36  and  C_38
REMARK                            x       y       z     vdW  Elec       q    Type
REMARK                         _______ _______ _______ _____ _____    ______ ____
ROOT
ATOM      1  C   UNL     1      -2.705  -3.814  -1.920  0.00  0.00    +0.103 C 
ENDROOT
BRANCH   1   2
ATOM      2  N   UNL     1      -4.111  -4.164  -2.164  0.00  0.00    -0.298 NA
ATOM      3  C   UNL     1      -5.013  -3.220  -1.492  0.00  0.00    +0.103 C 
ATOM      4  C   UNL     1      -6.456  -3.719  -1.618  0.00  0.00    +0.123 C 
ATOM      5  N   UNL     1      -6.747  -3.951  -3.041  0.00  0.00    -0.295 N 
ATOM      6  C   UNL     1      -5.810  -4.777  -3.817  0.00  0.00    +0.123 C 
ATOM      7  C   UNL     1      -4.392  -4.237  -3.604  0.00  0.00    +0.103 C 
ATOM      8  C   UNL     1      -7.843  -3.421  -3.619  0.00  0.00    +0.248 C 
ATOM      9  O   UNL     1      -8.555  -2.662  -2.989  0.00  0.00    -0.270 OA
BRANCH   8  10
ATOM     10  C   UNL     1      -8.181  -3.762  -5.016  0.00  0.00    +0.055 A 
ATOM     11  C   UNL     1      -8.188  -5.095  -5.430  0.00  0.00    +0.017 A 
ATOM     12  C   UNL     1      -8.504  -5.407  -6.736  0.00  0.00    +0.033 A 
ATOM     13  C   UNL     1      -8.814  -4.402  -7.636  0.00  0.00    +0.128 A 
ATOM     14  C   UNL     1      -8.808  -3.079  -7.234  0.00  0.00    +0.053 A 
ATOM     15  C   UNL     1      -8.500  -2.752  -5.928  0.00  0.00    +0.055 A 
ATOM     16 CL   UNL     1      -8.501  -1.091  -5.422  0.00  0.00    -0.083 Cl
BRANCH  13  17
ATOM     17  N   UNL     1      -9.151  -4.745  -9.036  0.00  0.00    +0.056 N 
ATOM     18  O   UNL     1      -9.156  -5.901  -9.390  0.00  0.00    -0.126 OA
ATOM     19  O   UNL     1      -9.422  -3.869  -9.824  0.00  0.00    -0.126 OA
ENDBRANCH  13  17
ENDBRANCH   8  10
ENDBRANCH   1   2
BRANCH   1  20
ATOM     20  C   UNL     1      -2.386  -3.991  -0.434  0.00  0.00    +0.123 C 
BRANCH  20  23
ATOM     21  C   UNL     1      -0.825  -2.268   0.295  0.00  0.00    +0.218 C 
ATOM     22  O   UNL     1       0.303  -1.836   0.406  0.00  0.00    -0.275 OA
ATOM     23  N   UNL     1      -1.026  -3.518  -0.166  0.00  0.00    -0.296 N 
BRANCH  21  25
ATOM     24  C   UNL     1      -1.510  -0.178   1.440  0.00  0.00    +0.017 C 
ATOM     25  C   UNL     1      -2.002  -1.406   0.674  0.00  0.00    +0.069 C 
ATOM     26  C   UNL     1      -2.734  -0.958  -0.593  0.00  0.00    +0.017 C 
ENDBRANCH  21  25
BRANCH  23  27
ATOM     27  C   UNL     1       0.117  -4.404  -0.401  0.00  0.00    +0.138 C 
BRANCH  27  28
ATOM     28  C   UNL     1       0.338  -5.271   0.812  0.00  0.00    -0.053 C 
ATOM     29  C   UNL     1      -0.155  -6.487   0.880  0.00  0.00    -0.025 C 
ATOM     30  C   UNL     1       0.096  -7.325   2.110  0.00  0.00    +0.031 C 
ATOM     31  C   UNL     1       0.875  -6.504   3.146  0.00  0.00    -0.000 C 
ATOM     32  C   UNL     1       0.322  -5.078   3.316  0.00  0.00    +0.012 C 
ATOM     33  C   UNL     1       1.144  -4.776   2.000  0.00  0.00    +0.022 C 
ATOM     34  C   UNL     1       2.117  -5.850   2.507  0.00  0.00    -0.025 C 
ATOM     35  C   UNL     1       2.750  -6.684   1.391  0.00  0.00    +0.012 C 
ATOM     36  C   UNL     1       3.137  -5.333   3.523  0.00  0.00    +0.012 C 
ENDBRANCH  27  28
ENDBRANCH  23  27
ENDBRANCH  20  23
ENDBRANCH   1  20
TORSDOF 8
