REMARK  Name = ZINC40066185
REMARK  13 active torsions:
REMARK  status: ('A' for Active; 'I' for Inactive)
REMARK    1  A    between atoms: C_1  and  C_2
REMARK    2  A    between atoms: C_12  and  C_13
REMARK    3  A    between atoms: N_16  and  C_31
REMARK    4  A    between atoms: C_17  and  C_19
REMARK    5  A    between atoms: C_22  and  O_27
REMARK    6  A    between atoms: C_23  and  O_25
REMARK    7  A    between atoms: O_25  and  C_26
REMARK    8  A    between atoms: O_27  and  C_28
REMARK    9  A    between atoms: C_28  and  C_29
REMARK   10  A    between atoms: C_31  and  C_32
REMARK   11  A    between atoms: C_32  and  C_33
REMARK   12  A    between atoms: C_36  and  O_39
REMARK   13  A    between atoms: O_39  and  C_40
REMARK                            x       y       z     vdW  Elec       q    Type
REMARK                         _______ _______ _______ _____ _____    ______ ____
ROOT
ATOM      1  C   UNL     1      -0.018   1.503   0.010  0.00  0.00    +0.044 C 
ATOM      2  C   UNL     1       0.002  -0.004   0.002  0.00  0.00    -0.044 A 
ATOM      3  C   UNL     1       0.005  -0.683  -1.209  0.00  0.00    +0.004 A 
ATOM      4  C   UNL     1       0.021  -2.050  -1.232  0.00  0.00    +0.015 A 
ATOM      5  C   UNL     1       0.033  -2.761  -0.032  0.00  0.00    +0.065 A 
ATOM      6  C   UNL     1       0.036  -4.246  -0.038  0.00  0.00    +0.199 A 
ATOM      7  O   UNL     1       0.200  -4.908  -1.047  0.00  0.00    -0.287 OA
ATOM      8  C   UNL     1      -0.176  -4.839   1.286  0.00  0.00    +0.072 A 
ATOM      9  C   UNL     1      -0.158  -4.068   2.414  0.00  0.00    +0.199 A 
ATOM     10  O   UNL     1       0.060  -2.739   2.383  0.00  0.00    -0.449 OA
ATOM     11  C   UNL     1       0.036  -2.085   1.199  0.00  0.00    +0.143 A 
ATOM     12  C   UNL     1       0.023  -0.690   1.195  0.00  0.00    -0.005 A 
ATOM     13  C   UNL     1       0.025   0.066   2.499  0.00  0.00    +0.048 C 
ATOM     14  C   UNL     1      -0.408  -4.941   3.575  0.00  0.00    +0.283 C 
ATOM     15  O   UNL     1      -0.459  -4.566   4.729  0.00  0.00    -0.267 OA
ATOM     16  N   UNL     1      -0.571  -6.217   3.168  0.00  0.00    -0.283 N 
ATOM     17  C   UNL     1      -0.436  -6.249   1.703  0.00  0.00    +0.145 C 
ENDROOT
BRANCH  17  18
ATOM     18  C   UNL     1      -1.711  -6.750   1.075  0.00  0.00    -0.019 A 
ATOM     19  C   UNL     1      -2.933  -6.378   1.604  0.00  0.00    +0.009 A 
ATOM     20  C   UNL     1      -4.106  -6.835   1.032  0.00  0.00    +0.050 A 
ATOM     21  C   UNL     1      -4.058  -7.667  -0.075  0.00  0.00    +0.162 A 
ATOM     22  C   UNL     1      -2.828  -8.041  -0.609  0.00  0.00    +0.162 A 
ATOM     23  C   UNL     1      -1.657  -7.575  -0.033  0.00  0.00    +0.055 A 
BRANCH  22  24
ATOM     24  O   UNL     1      -2.776  -8.857  -1.695  0.00  0.00    -0.491 OA
ATOM     25  C   UNL     1      -1.479  -9.199  -2.188  0.00  0.00    +0.277 C 
ENDBRANCH  22  24
BRANCH  21  26
ATOM     26  O   UNL     1      -5.210  -8.118  -0.639  0.00  0.00    -0.484 OA
BRANCH  26  27
ATOM     27  C   UNL     1      -6.436  -7.694  -0.039  0.00  0.00    +0.256 C 
BRANCH  27  28
ATOM     28  C   UNL     1      -7.597  -8.288  -0.793  0.00  0.00    +0.006 C 
ATOM     29  C   UNL     1      -8.598  -8.823  -0.140  0.00  0.00    +0.007 C 
ENDBRANCH  27  28
ENDBRANCH  26  27
ENDBRANCH  21  26
ENDBRANCH  17  18
BRANCH  16  30
ATOM     30  C   UNL     1      -0.834  -7.369   4.034  0.00  0.00    +0.114 C 
BRANCH  30  31
ATOM     31  C   UNL     1      -2.345  -7.546   4.201  0.00  0.00    +0.054 C 
BRANCH  31  32
ATOM     32  C   UNL     1      -2.616  -8.731   5.092  0.00  0.00    -0.046 A 
ATOM     33  C   UNL     1      -2.757  -9.991   4.540  0.00  0.00    +0.007 A 
ATOM     34  C   UNL     1      -3.006 -11.079   5.354  0.00  0.00    +0.046 A 
ATOM     35  C   UNL     1      -3.115 -10.907   6.726  0.00  0.00    +0.120 A 
ATOM     36  C   UNL     1      -2.973  -9.641   7.277  0.00  0.00    +0.046 A 
ATOM     37  C   UNL     1      -2.719  -8.557   6.459  0.00  0.00    +0.007 A 
BRANCH  35  38
ATOM     38  O   UNL     1      -3.360 -11.975   7.529  0.00  0.00    -0.495 OA
ATOM     39  C   UNL     1      -3.460 -11.723   8.932  0.00  0.00    +0.277 C 
ENDBRANCH  35  38
ENDBRANCH  31  32
ENDBRANCH  30  31
ENDBRANCH  16  30
TORSDOF 9
