REMARK  Name = ZINC20617990
REMARK  5 active torsions:
REMARK  status: ('A' for Active; 'I' for Inactive)
REMARK    1  A    between atoms: C_4  and  C_7
REMARK    2  A    between atoms: C_7  and  N_8
REMARK    3  A    between atoms: C_11  and  N_14
REMARK    4  A    between atoms: C_15  and  C_17
REMARK    5  A    between atoms: C_20  and  N_23
REMARK                            x       y       z     vdW  Elec       q    Type
REMARK                         _______ _______ _______ _____ _____    ______ ____
ROOT
ATOM      1  N   UNL     1      -1.679  -0.511   0.968  0.00  0.00    -0.309 N 
ATOM      2  C   UNL     1      -0.473   0.058   0.768  0.00  0.00    +0.244 C 
ATOM      3  O   UNL     1       0.528  -0.632   0.745  0.00  0.00    -0.270 OA
ATOM      4  H   UNL     1      -2.584   0.112   0.989  0.00  0.00    +0.149 HD
ENDROOT
BRANCH   1   8
ATOM      5  N   UNL     1      -3.251  -4.415   0.766  0.00  0.00    +0.382 N 
ATOM      6  C   UNL     1      -3.185  -3.800   2.098  0.00  0.00    -0.077 C 
ATOM      7  C   UNL     1      -3.051  -2.282   1.954  0.00  0.00    +0.004 C 
ATOM      8  C   UNL     1      -1.782  -1.960   1.159  0.00  0.00    +0.070 C 
ATOM      9  C   UNL     1      -1.855  -2.652  -0.205  0.00  0.00    +0.004 C 
ATOM     10  C   UNL     1      -2.024  -4.159   0.001  0.00  0.00    -0.077 C 
ATOM     11  H   UNL     1      -4.088  -3.950   0.223  0.00  0.00    -0.081 HD
BRANCH   5  12
ATOM     12  C   UNL     1      -3.520  -5.856   0.864  0.00  0.00    -0.043 C 
BRANCH  12  16
ATOM     13  C   UNL     1      -4.380  -7.412  -3.019  0.00  0.00    +0.000 A 
ATOM     14  C   UNL     1      -3.078  -7.388  -2.558  0.00  0.00    +0.000 A 
ATOM     15  C   UNL     1      -2.799  -6.884  -1.301  0.00  0.00    +0.002 A 
ATOM     16  C   UNL     1      -3.823  -6.405  -0.506  0.00  0.00    -0.064 A 
ATOM     17  C   UNL     1      -5.127  -6.434  -0.966  0.00  0.00    +0.002 A 
ATOM     18  C   UNL     1      -5.404  -6.933  -2.225  0.00  0.00    +0.000 A 
ENDBRANCH  12  16
ENDBRANCH   5  12
ENDBRANCH   1   8
BRANCH   2  19
ATOM     19  C   UNL     1      -0.369   1.517   0.576  0.00  0.00    +0.037 A 
ATOM     20  C   UNL     1      -1.520   2.310   0.596  0.00  0.00    +0.015 A 
ATOM     21  C   UNL     1      -1.418   3.672   0.421  0.00  0.00    +0.028 A 
ATOM     22  C   UNL     1      -0.173   4.257   0.215  0.00  0.00    +0.067 A 
ATOM     23  C   UNL     1       0.974   3.470   0.188  0.00  0.00    +0.028 A 
ATOM     24  C   UNL     1       0.880   2.108   0.367  0.00  0.00    +0.015 A 
BRANCH  22  25
ATOM     25  N   UNL     1      -0.074   5.635   0.033  0.00  0.00    -0.226 NA
ATOM     26  C   UNL     1      -1.068   6.314  -0.638  0.00  0.00    +0.155 C 
ATOM     27  N   UNL     1      -1.167   7.596  -0.796  0.00  0.00    -0.318 N 
ATOM     28  C   UNL     1      -2.277   8.201  -1.508  0.00  0.00    +0.108 C 
ATOM     29  C   UNL     1      -2.972   9.225  -0.579  0.00  0.00    +0.189 C 
ATOM     30  S   UNL     1      -4.733   9.081  -1.099  0.00  0.00    -0.028 S 
ATOM     31  O   UNL     1      -4.964   9.848  -2.272  0.00  0.00    -0.174 OA
ATOM     32  O   UNL     1      -5.564   9.265   0.039  0.00  0.00    -0.174 OA
ATOM     33  C   UNL     1      -4.687   7.288  -1.538  0.00  0.00    +0.182 C 
ATOM     34  C   UNL     1      -3.249   7.156  -2.075  0.00  0.00    +0.097 C 
ATOM     35  S   UNL     1      -2.475   5.609  -1.473  0.00  0.00    -0.084 S 
ATOM     36  H   UNL     1      -0.375   8.231  -0.371  0.00  0.00    +0.148 HD
ENDBRANCH  22  25
ENDBRANCH   2  19
TORSDOF 5
