REMARK  Name = ZINC22310407
REMARK  12 active torsions:
REMARK  status: ('A' for Active; 'I' for Inactive)
REMARK    1  A    between atoms: C_1  and  C_2
REMARK    2  A    between atoms: C_2  and  C_3
REMARK    3  A    between atoms: C_3  and  C_4
REMARK    4  A    between atoms: C_4  and  N_5
REMARK    5  A    between atoms: C_6  and  N_35
REMARK    6  A    between atoms: C_7  and  N_14
REMARK    7  A    between atoms: N_14  and  C_15
REMARK    8  A    between atoms: C_15  and  C_16
REMARK    9  A    between atoms: C_17  and  C_19
REMARK   10  A    between atoms: C_21  and  C_29
REMARK   11  A    between atoms: C_25  and  C_28
REMARK   12  A    between atoms: C_32  and  C_34
REMARK                            x       y       z     vdW  Elec       q    Type
REMARK                         _______ _______ _______ _____ _____    ______ ____
ROOT
ATOM      1  N   UNL     1       1.195   3.402  -0.052  0.00  0.00    -0.260 N 
ATOM      2  C   UNL     1       0.113   4.195   0.078  0.00  0.00    +0.252 C 
ATOM      3  O   UNL     1      -0.975   3.705   0.312  0.00  0.00    -0.270 OA
ENDROOT
BRANCH   2   4
ATOM      4  C   UNL     1       0.248   5.661  -0.064  0.00  0.00    +0.053 A 
ATOM      5  C   UNL     1       1.102   6.386   0.760  0.00  0.00    +0.043 A 
ATOM      6  C   UNL     1       1.200   7.772   0.590  0.00  0.00    +0.082 A 
ATOM      7  N   UNL     1       0.495   8.404  -0.340  0.00  0.00    -0.209 NA
ATOM      8  C   UNL     1      -0.331   7.761  -1.149  0.00  0.00    +0.260 A 
ATOM      9  C   UNL     1      -0.481   6.367  -1.045  0.00  0.00    +0.076 A 
ATOM     10  C   UNL     1      -1.444   5.972  -2.070  0.00  0.00    +0.091 A 
ATOM     11  N   UNL     1      -1.803   7.050  -2.701  0.00  0.00    -0.080 NA
ATOM     12  O   UNL     1      -1.138   8.169  -2.150  0.00  0.00    -0.334 OA
ATOM     13  C   UNL     1      -1.932   4.573  -2.345  0.00  0.00    +0.070 C 
BRANCH   6  14
ATOM     14  C   UNL     1       2.104   8.545   1.461  0.00  0.00    +0.038 A 
ATOM     15  C   UNL     1       2.357   9.893   1.466  0.00  0.00    +0.018 A 
ATOM     16  C   UNL     1       3.248  10.395   2.386  0.00  0.00    +0.011 A 
ATOM     17  C   UNL     1       3.858   9.543   3.252  0.00  0.00    -0.013 A 
ATOM     18  S   UNL     1       3.162   7.968   2.779  0.00  0.00    -0.092 S 
ATOM     19  C   UNL     1       4.863   9.849   4.332  0.00  0.00    +0.051 C 
ENDBRANCH   6  14
ENDBRANCH   2   4
BRANCH   1  22
ATOM     20  N   UNL     1       1.425  -0.094   1.049  0.00  0.00    -0.280 N 
ATOM     21  C   UNL     1       1.582   1.272   1.036  0.00  0.00    +0.127 A 
ATOM     22  C   UNL     1       1.051   2.001  -0.010  0.00  0.00    +0.140 A 
ATOM     23  C   UNL     1       0.363   1.320  -1.032  0.00  0.00    +0.277 A 
ATOM     24  O   UNL     1      -0.116   1.939  -1.967  0.00  0.00    -0.266 OA
ATOM     25  N   UNL     1       0.238  -0.020  -0.971  0.00  0.00    -0.273 N 
ATOM     26  H   UNL     1      -0.298  -0.559  -1.766  0.00  0.00    +0.173 HD
ATOM     27  C   UNL     1       0.762  -0.713   0.056  0.00  0.00    +0.331 A 
ATOM     28  O   UNL     1       0.633  -1.922   0.086  0.00  0.00    -0.246 OA
BRANCH  21  29
ATOM     29  N   UNL     1       2.255   1.905   2.053  0.00  0.00    -0.343 N 
ATOM     30  H   UNL     1       2.377   2.998   2.036  0.00  0.00    +0.144 HD
ATOM     31  H   UNL     1       2.672   1.318   2.885  0.00  0.00    +0.144 HD
ENDBRANCH  21  29
BRANCH  20  32
ATOM     32  C   UNL     1       1.984  -0.881   2.152  0.00  0.00    +0.128 C 
BRANCH  32  33
ATOM     33  C   UNL     1       0.944  -1.005   3.267  0.00  0.00    +0.021 C 
BRANCH  33  35
ATOM     34  C   UNL     1       0.487  -1.951   5.534  0.00  0.00    +0.004 C 
ATOM     35  C   UNL     1       1.527  -1.826   4.419  0.00  0.00    -0.002 C 
ENDBRANCH  33  35
ENDBRANCH  32  33
ENDBRANCH  20  32
ENDBRANCH   1  22
BRANCH   1  36
ATOM     36  C   UNL     1       2.521   3.998  -0.237  0.00  0.00    +0.111 C 
ATOM     37  C   UNL     1       2.831   4.095  -1.732  0.00  0.00    +0.025 C 
ENDBRANCH   1  36
TORSDOF 8
