REMARK  Name = ZINC09424453
REMARK  17 active torsions:
REMARK  status: ('A' for Active; 'I' for Inactive)
REMARK    1  A    between atoms: C_1  and  C_2
REMARK    2  A    between atoms: C_2  and  C_3
REMARK    3  A    between atoms: C_3  and  C_4
REMARK    4  A    between atoms: C_4  and  O_5
REMARK    5  A    between atoms: O_5  and  C_6
REMARK    6  A    between atoms: C_10  and  C_12
REMARK    7  A    between atoms: C_14  and  C_27
REMARK    8  A    between atoms: C_15  and  O_26
REMARK    9  A    between atoms: N_18  and  C_19
REMARK   10  A    between atoms: C_19  and  C_20
REMARK   11  A    between atoms: C_20  and  C_21
REMARK   12  A    between atoms: C_21  and  N_76
REMARK   13  A    between atoms: C_22  and  C_23
REMARK   14  A    between atoms: C_22  and  N_76
REMARK   15  A    between atoms: C_24  and  C_25
REMARK   16  A    between atoms: C_24  and  N_76
REMARK   17  A    between atoms: C_27  and  C_29
REMARK                            x       y       z     vdW  Elec       q    Type
REMARK                         _______ _______ _______ _____ _____    ______ ____
ROOT
ATOM      1  C   UNL     1       4.962   1.766  -0.022  0.00  0.00    +0.145 C 
ATOM      2  C   UNL     1       5.013   0.257  -0.068  0.00  0.00    +0.071 C 
ATOM      3  C   UNL     1       6.320  -0.088  -0.132  0.00  0.00    +0.188 C 
ATOM      4  C   UNL     1       7.146   1.137  -0.124  0.00  0.00    +0.282 C 
ATOM      5  O   UNL     1       8.360   1.159  -0.172  0.00  0.00    -0.267 OA
ATOM      6  N   UNL     1       6.356   2.224  -0.057  0.00  0.00    -0.284 N 
ENDROOT
BRANCH   1  11
ATOM      7  C   UNL     1       2.283   3.379  -2.144  0.00  0.00    +0.121 A 
ATOM      8  C   UNL     1       2.834   3.267  -3.413  0.00  0.00    +0.045 A 
ATOM      9  C   UNL     1       4.069   2.670  -3.579  0.00  0.00    +0.004 A 
ATOM     10  C   UNL     1       4.758   2.190  -2.481  0.00  0.00    +0.006 A 
ATOM     11  C   UNL     1       4.210   2.295  -1.216  0.00  0.00    -0.019 A 
ATOM     12  C   UNL     1       2.975   2.891  -1.045  0.00  0.00    +0.051 A 
BRANCH   7  13
ATOM     13  O   UNL     1       1.069   3.965  -1.979  0.00  0.00    -0.492 OA
BRANCH  13  14
ATOM     14  C   UNL     1       0.414   4.444  -3.155  0.00  0.00    +0.229 C 
BRANCH  14  15
ATOM     15  C   UNL     1      -0.930   5.068  -2.773  0.00  0.00    +0.041 C 
BRANCH  15  17
ATOM     16  C   UNL     1      -2.975   6.205  -3.650  0.00  0.00    +0.004 C 
ATOM     17  C   UNL     1      -1.631   5.581  -4.032  0.00  0.00    -0.000 C 
ENDBRANCH  15  17
ENDBRANCH  14  15
ENDBRANCH  13  14
ENDBRANCH   7  13
ENDBRANCH   1  11
BRANCH   3  18
ATOM     18  O   UNL     1       6.795  -1.354  -0.191  0.00  0.00    -0.502 OA
ATOM     19  H   UNL     1       7.793  -1.334  -0.231  0.00  0.00    +0.292 HD
ENDBRANCH   3  18
BRANCH   2  20
ATOM     20  C   UNL     1       3.867  -0.658  -0.053  0.00  0.00    +0.195 C 
ATOM     21  O   UNL     1       3.654  -1.383  -1.007  0.00  0.00    -0.287 OA
BRANCH  20  22
ATOM     22  C   UNL     1       2.970  -0.699   1.119  0.00  0.00    +0.026 A 
ATOM     23  C   UNL     1       3.253   0.080   2.245  0.00  0.00    +0.015 A 
ATOM     24  C   UNL     1       2.415   0.039   3.337  0.00  0.00    +0.050 A 
ATOM     25  C   UNL     1       1.287  -0.775   3.325  0.00  0.00    +0.162 A 
ATOM     26  C   UNL     1       0.999  -1.551   2.205  0.00  0.00    +0.163 A 
ATOM     27  C   UNL     1       1.836  -1.515   1.106  0.00  0.00    +0.061 A 
ATOM     28  O   UNL     1      -0.106  -2.347   2.175  0.00  0.00    -0.485 OA
ATOM     29  C   UNL     1      -0.718  -2.644   3.435  0.00  0.00    +0.270 C 
ATOM     30  C   UNL     1      -0.837  -1.337   4.231  0.00  0.00    +0.270 C 
ATOM     31  O   UNL     1       0.479  -0.805   4.418  0.00  0.00    -0.485 OA
ENDBRANCH  20  22
ENDBRANCH   2  20
BRANCH   6  32
ATOM     32  C   UNL     1       6.807   3.617  -0.030  0.00  0.00    +0.107 C 
BRANCH  32  33
ATOM     33  C   UNL     1       6.906   4.149  -1.462  0.00  0.00    +0.000 C 
BRANCH  33  34
ATOM     34  C   UNL     1       7.377   5.604  -1.433  0.00  0.00    -0.077 C 
BRANCH  34  35
ATOM     35  N   UNL     1       7.489   6.096  -2.823  0.00  0.00    +0.379 N 
ATOM     36  H   UNL     1       8.058   5.436  -3.365  0.00  0.00    -0.082 HD
BRANCH  35  37
ATOM     37  C   UNL     1       6.146   6.188  -3.435  0.00  0.00    -0.082 C 
ATOM     38  C   UNL     1       5.282   7.204  -2.684  0.00  0.00    -0.017 C 
ENDBRANCH  35  37
BRANCH  35  39
ATOM     39  C   UNL     1       8.143   7.421  -2.838  0.00  0.00    -0.082 C 
ATOM     40  C   UNL     1       8.562   7.746  -4.274  0.00  0.00    -0.017 C 
ENDBRANCH  35  39
ENDBRANCH  34  35
ENDBRANCH  33  34
ENDBRANCH  32  33
ENDBRANCH   6  32
TORSDOF 14
