REMARK  Name = ZINC49192988
REMARK  11 active torsions:
REMARK  status: ('A' for Active; 'I' for Inactive)
REMARK    1  A    between atoms: C_1  and  C_2
REMARK    2  A    between atoms: C_2  and  C_3
REMARK    3  A    between atoms: C_2  and  C_4
REMARK    4  A    between atoms: C_4  and  C_6
REMARK    5  A    between atoms: C_4  and  N_10
REMARK    6  A    between atoms: C_6  and  N_7
REMARK    7  A    between atoms: N_7  and  C_8
REMARK    8  A    between atoms: N_7  and  C_9
REMARK    9  A    between atoms: N_10  and  S_11
REMARK   10  A    between atoms: S_11  and  C_14
REMARK   11  A    between atoms: C_17  and  N_21
REMARK                            x       y       z     vdW  Elec       q    Type
REMARK                         _______ _______ _______ _____ _____    ______ ____
ROOT
ATOM      1  S   UNL     1      -2.167  -2.581   1.703  0.00  0.00    +0.061 S 
ATOM      2  O   UNL     1      -2.365  -3.983   1.580  0.00  0.00    -0.153 OA
ATOM      3  O   UNL     1      -1.222  -2.022   2.606  0.00  0.00    -0.153 OA
ENDROOT
BRANCH   1   4
ATOM      4  C   UNL     1      -3.732  -1.886   2.117  0.00  0.00    +0.133 A 
ATOM      5  C   UNL     1      -3.795  -0.667   2.768  0.00  0.00    +0.047 A 
ATOM      6  C   UNL     1      -5.021  -0.119   3.094  0.00  0.00    +0.040 A 
ATOM      7  C   UNL     1      -6.191  -0.793   2.767  0.00  0.00    +0.027 A 
ATOM      8  C   UNL     1      -6.124  -2.017   2.113  0.00  0.00    +0.040 A 
ATOM      9  C   UNL     1      -4.895  -2.557   1.785  0.00  0.00    +0.047 A 
ATOM     10 BR   UNL     1      -4.803  -4.219   0.888  0.00  0.00    -0.048 Br
ATOM     11 BR   UNL     1      -2.203   0.251   3.213  0.00  0.00    -0.048 Br
BRANCH   7  12
ATOM     12  N   UNL     1      -7.431  -0.242   3.095  0.00  0.00    -0.358 N 
ATOM     13  H   UNL     1      -7.477   0.612   3.553  0.00  0.00    +0.142 HD
ATOM     14  H   UNL     1      -8.248  -0.714   2.867  0.00  0.00    +0.142 HD
ENDBRANCH   7  12
ENDBRANCH   1   4
BRANCH   1  15
ATOM     15  N   UNL     1      -1.766  -2.025   0.196  0.00  0.00    -0.188 NA
ATOM     16  H   UNL     1      -1.714  -2.642  -0.551  0.00  0.00    +0.148 HD
BRANCH  15  17
ATOM     17  C   UNL     1      -1.491  -0.601  -0.010  0.00  0.00    +0.063 C 
BRANCH  17  19
ATOM     18  C   UNL     1       0.309   1.126  -0.150  0.00  0.00    +0.009 C 
ATOM     19  C   UNL     1       0.022  -0.372  -0.033  0.00  0.00    -0.000 C 
ATOM     20  C   UNL     1       0.638  -0.910   1.259  0.00  0.00    +0.009 C 
ENDBRANCH  17  19
BRANCH  17  21
ATOM     21  C   UNL     1      -2.095  -0.152  -1.343  0.00  0.00    -0.059 C 
BRANCH  21  22
ATOM     22  N   UNL     1      -3.526  -0.482  -1.367  0.00  0.00    +0.377 N 
ATOM     23  C   UNL     1      -4.226   0.301  -0.340  0.00  0.00    -0.097 C 
ATOM     24  C   UNL     1      -4.080  -0.161  -2.690  0.00  0.00    -0.097 C 
ATOM     25  H   UNL     1      -3.648  -1.466  -1.181  0.00  0.00    -0.083 HD
ENDBRANCH  21  22
ENDBRANCH  17  21
ENDBRANCH  15  17
ENDBRANCH   1  15
TORSDOF 7
