REMARK  Name = ZINC58912739
REMARK  13 active torsions:
REMARK  status: ('A' for Active; 'I' for Inactive)
REMARK    1  A    between atoms: C_1  and  C_2
REMARK    2  A    between atoms: C_2  and  C_4
REMARK    3  A    between atoms: C_2  and  N_14
REMARK    4  A    between atoms: C_7  and  N_10
REMARK    5  A    between atoms: C_15  and  C_17
REMARK    6  A    between atoms: C_17  and  C_19
REMARK    7  A    between atoms: C_17  and  N_23
REMARK    8  A    between atoms: C_19  and  C_20
REMARK    9  A    between atoms: C_20  and  S_21
REMARK   10  A    between atoms: S_21  and  C_22
REMARK   11  A    between atoms: C_24  and  C_26
REMARK   12  A    between atoms: C_26  and  O_27
REMARK   13  A    between atoms: O_27  and  C_28
REMARK                            x       y       z     vdW  Elec       q    Type
REMARK                         _______ _______ _______ _____ _____    ______ ____
ROOT
ATOM      1  N   UNL     1      -1.422  -0.313   0.122  0.00  0.00    -0.307 N 
ATOM      2  C   UNL     1      -2.173  -0.434  -0.990  0.00  0.00    +0.234 C 
ATOM      3  O   UNL     1      -1.671  -0.267  -2.082  0.00  0.00    -0.274 OA
ATOM      4  H   UNL     1      -1.823  -0.447   0.995  0.00  0.00    +0.149 HD
ENDROOT
BRANCH   1   6
ATOM      5  C   UNL     1       0.162   1.539  -0.084  0.00  0.00    +0.033 C 
ATOM      6  C   UNL     1       0.000   0.020   0.013  0.00  0.00    +0.100 C 
BRANCH   6   7
ATOM      7  C   UNL     1       0.730  -0.485   1.231  0.00  0.00    -0.027 A 
ATOM      8  C   UNL     1       0.143  -0.382   2.479  0.00  0.00    +0.007 A 
ATOM      9  C   UNL     1       0.809  -0.845   3.597  0.00  0.00    +0.023 A 
ATOM     10  C   UNL     1       2.069  -1.414   3.467  0.00  0.00    +0.035 A 
ATOM     11  C   UNL     1       2.655  -1.516   2.213  0.00  0.00    +0.023 A 
ATOM     12  C   UNL     1       1.982  -1.057   1.098  0.00  0.00    +0.007 A 
BRANCH  10  13
ATOM     13  N   UNL     1       2.746  -1.883   4.598  0.00  0.00    -0.270 N 
ATOM     14  C   UNL     1       2.054  -2.412   5.627  0.00  0.00    +0.301 C 
ATOM     15  O   UNL     1       0.853  -2.571   5.534  0.00  0.00    -0.253 OA
ATOM     16  N   UNL     1       2.695  -2.765   6.759  0.00  0.00    -0.313 N 
ATOM     17  H   UNL     1       3.713  -1.827   4.642  0.00  0.00    +0.156 HD
ATOM     18  H   UNL     1       3.654  -2.639   6.833  0.00  0.00    +0.146 HD
ATOM     19  H   UNL     1       2.197  -3.146   7.499  0.00  0.00    +0.146 HD
ENDBRANCH  10  13
ENDBRANCH   6   7
ENDBRANCH   1   6
BRANCH   2  20
ATOM     20  C   UNL     1      -3.636  -0.777  -0.878  0.00  0.00    +0.160 C 
BRANCH  20  21
ATOM     21  N   UNL     1      -4.225  -0.850  -2.218  0.00  0.00    -0.301 N 
ATOM     22  C   UNL     1      -5.545  -0.641  -2.386  0.00  0.00    +0.251 C 
ATOM     23  O   UNL     1      -6.247  -0.391  -1.428  0.00  0.00    -0.272 OA
ATOM     24  H   UNL     1      -3.664  -1.050  -2.984  0.00  0.00    +0.150 HD
BRANCH  22  25
ATOM     25  C   UNL     1      -6.151  -0.716  -3.764  0.00  0.00    +0.324 C 
BRANCH  25  26
ATOM     26  O   UNL     1      -7.554  -0.459  -3.682  0.00  0.00    -0.483 OA
BRANCH  26  27
ATOM     27  C   UNL     1      -8.256  -0.488  -4.846  0.00  0.00    +0.121 A 
ATOM     28  C   UNL     1      -7.607  -0.765  -6.041  0.00  0.00    +0.045 A 
ATOM     29  C   UNL     1      -8.323  -0.796  -7.222  0.00  0.00    +0.004 A 
ATOM     30  C   UNL     1      -9.684  -0.550  -7.215  0.00  0.00    +0.000 A 
ATOM     31  C   UNL     1     -10.332  -0.273  -6.025  0.00  0.00    +0.004 A 
ATOM     32  C   UNL     1      -9.622  -0.248  -4.840  0.00  0.00    +0.045 A 
ENDBRANCH  26  27
ENDBRANCH  25  26
ENDBRANCH  22  25
ENDBRANCH  20  21
BRANCH  20  33
ATOM     33  C   UNL     1      -3.791  -2.129  -0.179  0.00  0.00    +0.042 C 
BRANCH  33  34
ATOM     34  C   UNL     1      -5.276  -2.420   0.047  0.00  0.00    +0.071 C 
BRANCH  34  35
ATOM     35  S   UNL     1      -5.459  -4.023   0.876  0.00  0.00    -0.164 S 
ATOM     36  C   UNL     1      -7.253  -4.215   1.067  0.00  0.00    +0.084 C 
ENDBRANCH  34  35
ENDBRANCH  33  34
ENDBRANCH  20  33
ENDBRANCH   2  20
TORSDOF 11
