REMARK  Name = ZINC37064691
REMARK  7 active torsions:
REMARK  status: ('A' for Active; 'I' for Inactive)
REMARK    1  A    between atoms: C_1  and  C_2
REMARK    2  A    between atoms: C_5  and  N_9
REMARK    3  A    between atoms: C_6  and  N_8
REMARK    4  A    between atoms: N_9  and  S_10
REMARK    5  A    between atoms: S_10  and  C_13
REMARK    6  A    between atoms: C_14  and  C_20
REMARK    7  A    between atoms: C_18  and  C_19
REMARK                            x       y       z     vdW  Elec       q    Type
REMARK                         _______ _______ _______ _____ _____    ______ ____
ROOT
ATOM      1  N   UNL     1       0.059  -4.175  -0.034  0.00  0.00    -0.214 N 
ATOM      2  H   UNL     1      -0.449  -4.666   0.632  0.00  0.00    +0.174 HD
ENDROOT
BRANCH   1   7
ATOM      3  C   UNL     1       0.552   1.468   0.361  0.00  0.00    +0.044 C 
ATOM      4  C   UNL     1       0.421  -0.030   0.260  0.00  0.00    -0.049 A 
ATOM      5  C   UNL     1       0.316  -0.630  -0.981  0.00  0.00    +0.005 A 
ATOM      6  C   UNL     1       0.196  -2.004  -1.081  0.00  0.00    +0.026 A 
ATOM      7  C   UNL     1       0.181  -2.784   0.065  0.00  0.00    +0.069 A 
ATOM      8  C   UNL     1       0.287  -2.178   1.317  0.00  0.00    +0.047 A 
ATOM      9  C   UNL     1       0.412  -0.800   1.408  0.00  0.00    +0.028 A 
BRANCH   8  10
ATOM     10  N   UNL     1       0.271  -2.960   2.479  0.00  0.00    -0.356 N 
ATOM     11  H   UNL     1       0.187  -3.924   2.413  0.00  0.00    +0.142 HD
ATOM     12  H   UNL     1       0.345  -2.537   3.349  0.00  0.00    +0.142 HD
ENDBRANCH   8  10
ENDBRANCH   1   7
BRANCH   1  13
ATOM     13  S   UNL     1       0.780  -4.982  -1.287  0.00  0.00    +0.076 S 
ATOM     14  O   UNL     1       0.556  -6.367  -1.060  0.00  0.00    -0.150 OA
ATOM     15  O   UNL     1       0.369  -4.330  -2.481  0.00  0.00    -0.150 OA
BRANCH  13  16
ATOM     16  C   UNL     1       2.517  -4.723  -1.143  0.00  0.00    +0.151 A 
ATOM     17  C   UNL     1       3.218  -3.707  -1.698  0.00  0.00    +0.060 A 
ATOM     18  N   UNL     1       4.513  -3.866  -1.353  0.00  0.00    -0.280 N 
ATOM     19  H   UNL     1       5.247  -3.285  -1.609  0.00  0.00    +0.189 HD
ATOM     20  N   UNL     1       4.611  -5.017  -0.561  0.00  0.00    -0.177 NA
ATOM     21  C   UNL     1       3.413  -5.526  -0.430  0.00  0.00    +0.087 A 
ATOM     22  C   UNL     1       3.060  -6.767   0.349  0.00  0.00    +0.069 C 
ATOM     23  C   UNL     1       2.655  -2.598  -2.548  0.00  0.00    +0.067 C 
ENDBRANCH  13  16
ENDBRANCH   1  13
TORSDOF 4
