REMARK  Name = ZINC44872342
REMARK  8 active torsions:
REMARK  status: ('A' for Active; 'I' for Inactive)
REMARK    1  A    between atoms: C_3  and  C_30
REMARK    2  A    between atoms: C_6  and  C_7
REMARK    3  A    between atoms: C_7  and  N_8
REMARK    4  A    between atoms: C_9  and  C_11
REMARK    5  A    between atoms: N_16  and  S_18
REMARK    6  A    between atoms: S_18  and  C_21
REMARK    7  A    between atoms: C_21  and  C_22
REMARK    8  A    between atoms: C_30  and  N_31
REMARK                            x       y       z     vdW  Elec       q    Type
REMARK                         _______ _______ _______ _____ _____    ______ ____
ROOT
ATOM      1  N   UNL     1      -1.726  -1.018  -1.368  0.00  0.00    -0.311 N 
ATOM      2  C   UNL     1      -2.867  -1.694  -1.606  0.00  0.00    +0.218 C 
ATOM      3  O   UNL     1      -3.535  -2.103  -0.680  0.00  0.00    -0.275 OA
ATOM      4  H   UNL     1      -1.192  -0.691  -2.108  0.00  0.00    +0.149 HD
ENDROOT
BRANCH   2   5
ATOM      5  C   UNL     1      -3.312  -1.944  -3.024  0.00  0.00    +0.091 C 
ATOM      6  C   UNL     1      -2.243  -2.754  -3.761  0.00  0.00    +0.015 C 
ATOM      7  C   UNL     1      -2.680  -2.980  -5.210  0.00  0.00    +0.018 C 
ATOM      8  C   UNL     1      -3.987  -3.777  -5.227  0.00  0.00    +0.109 C 
ATOM      9  N   UNL     1      -4.979  -3.077  -4.400  0.00  0.00    -0.180 NA
ATOM     10  C   UNL     1      -4.628  -2.729  -3.016  0.00  0.00    +0.121 C 
BRANCH   9  11
ATOM     11  S   UNL     1      -6.466  -2.686  -5.015  0.00  0.00    +0.036 S 
ATOM     12  O   UNL     1      -6.886  -1.558  -4.259  0.00  0.00    -0.158 OA
ATOM     13  O   UNL     1      -6.262  -2.581  -6.418  0.00  0.00    -0.158 OA
BRANCH  11  14
ATOM     14  C   UNL     1      -7.517  -4.116  -4.642  0.00  0.00    +0.221 C 
BRANCH  14  15
ATOM     15  C   UNL     1      -8.909  -3.867  -5.162  0.00  0.00    -0.007 A 
ATOM     16  C   UNL     1      -9.848  -3.252  -4.357  0.00  0.00    +0.008 A 
ATOM     17  C   UNL     1     -11.125  -3.023  -4.834  0.00  0.00    +0.020 A 
ATOM     18  C   UNL     1     -11.463  -3.409  -6.119  0.00  0.00    +0.042 A 
ATOM     19  C   UNL     1     -10.524  -4.024  -6.926  0.00  0.00    +0.040 A 
ATOM     20  C   UNL     1      -9.244  -4.249  -6.449  0.00  0.00    +0.047 A 
ATOM     21 CL   UNL     1      -8.062  -5.016  -7.463  0.00  0.00    -0.083 Cl
ATOM     22 CL   UNL     1     -13.067  -3.122  -6.718  0.00  0.00    -0.083 Cl
ENDBRANCH  14  15
ENDBRANCH  11  14
ENDBRANCH   9  11
ENDBRANCH   2   5
BRANCH   1  23
ATOM     23  C   UNL     1      -1.293  -0.775   0.011  0.00  0.00    +0.139 C 
BRANCH  23  29
ATOM     24  C   UNL     1      -0.017   1.378   0.010  0.00  0.00    +0.005 A 
ATOM     25  C   UNL     1       1.171   2.086   0.002  0.00  0.00    +0.002 A 
ATOM     26  C   UNL     1       2.377   1.411  -0.013  0.00  0.00    -0.064 A 
ATOM     27  C   UNL     1       2.396   0.029  -0.020  0.00  0.00    +0.002 A 
ATOM     28  C   UNL     1       1.208  -0.679  -0.012  0.00  0.00    +0.005 A 
ATOM     29  C   UNL     1       0.002  -0.004   0.002  0.00  0.00    -0.030 A 
BRANCH  26  30
ATOM     30  C   UNL     1       3.672   2.182  -0.022  0.00  0.00    -0.043 C 
BRANCH  30  31
ATOM     31  N   UNL     1       4.106   2.426   1.360  0.00  0.00    +0.382 N 
ATOM     32  C   UNL     1       4.512   1.150   2.002  0.00  0.00    -0.078 C 
ATOM     33  C   UNL     1       5.433   1.612   3.159  0.00  0.00    -0.020 C 
ATOM     34  C   UNL     1       6.195   2.806   2.538  0.00  0.00    -0.020 C 
ATOM     35  C   UNL     1       5.311   3.284   1.372  0.00  0.00    -0.078 C 
ATOM     36  H   UNL     1       3.364   2.861   1.887  0.00  0.00    -0.081 HD
ENDBRANCH  30  31
ENDBRANCH  26  30
ENDBRANCH  23  29
ENDBRANCH   1  23
TORSDOF 8
