REMARK  Name = ZINC00835139
REMARK  10 active torsions:
REMARK  status: ('A' for Active; 'I' for Inactive)
REMARK    1  A    between atoms: C_4  and  C_7
REMARK    2  A    between atoms: C_7  and  N_8
REMARK    3  A    between atoms: N_8  and  C_9
REMARK    4  A    between atoms: C_9  and  C_10
REMARK    5  A    between atoms: C_16  and  C_18
REMARK    6  A    between atoms: C_18  and  N_19
REMARK    7  A    between atoms: N_19  and  C_20
REMARK    8  A    between atoms: N_19  and  S_29
REMARK    9  A    between atoms: C_24  and  N_26
REMARK   10  A    between atoms: S_29  and  C_32
REMARK                            x       y       z     vdW  Elec       q    Type
REMARK                         _______ _______ _______ _____ _____    ______ ____
ROOT
ATOM      1  N   UNL     1       5.771   2.405   1.962  0.00  0.00    -0.194 N 
ENDROOT
BRANCH   1   2
ATOM      2  C   UNL     1       7.161   2.449   1.836  0.00  0.00    +0.054 A 
ATOM      3  C   UNL     1       7.942   2.902   2.892  0.00  0.00    +0.025 A 
ATOM      4  C   UNL     1       9.316   2.944   2.764  0.00  0.00    +0.004 A 
ATOM      5  C   UNL     1       9.915   2.537   1.587  0.00  0.00    +0.033 A 
ATOM      6  C   UNL     1       9.141   2.086   0.533  0.00  0.00    +0.128 A 
ATOM      7  C   UNL     1       7.766   2.036   0.656  0.00  0.00    +0.057 A 
BRANCH   6   8
ATOM      8  N   UNL     1       9.787   1.652  -0.726  0.00  0.00    +0.056 N 
ATOM      9  O   UNL     1      10.991   1.691  -0.833  0.00  0.00    -0.126 OA
ATOM     10  O   UNL     1       9.111   1.258  -1.647  0.00  0.00    -0.126 OA
ENDBRANCH   6   8
ENDBRANCH   1   2
BRANCH   1  11
ATOM     11  S   UNL     1       5.000   3.436   3.003  0.00  0.00    +0.075 S 
ATOM     12  O   UNL     1       5.853   4.561   3.167  0.00  0.00    -0.150 OA
ATOM     13  O   UNL     1       3.662   3.556   2.541  0.00  0.00    -0.150 OA
BRANCH  11  14
ATOM     14  C   UNL     1       4.921   2.632   4.570  0.00  0.00    +0.109 A 
ATOM     15  C   UNL     1       3.915   1.721   4.829  0.00  0.00    +0.029 A 
ATOM     16  C   UNL     1       3.853   1.091   6.058  0.00  0.00    +0.002 A 
ATOM     17  C   UNL     1       4.798   1.371   7.027  0.00  0.00    +0.000 A 
ATOM     18  C   UNL     1       5.806   2.281   6.767  0.00  0.00    +0.002 A 
ATOM     19  C   UNL     1       5.870   2.909   5.537  0.00  0.00    +0.029 A 
ENDBRANCH  11  14
ENDBRANCH   1  11
BRANCH   1  20
ATOM     20  C   UNL     1       4.994   1.445   1.173  0.00  0.00    +0.227 C 
BRANCH  20  22
ATOM     21  N   UNL     1       4.292  -0.920   1.346  0.00  0.00    -0.291 N 
ATOM     22  C   UNL     1       4.957   0.120   1.888  0.00  0.00    +0.235 C 
ATOM     23  O   UNL     1       5.525  -0.012   2.952  0.00  0.00    -0.274 OA
BRANCH  21  24
ATOM     24  C   UNL     1       3.695  -0.794   0.014  0.00  0.00    +0.143 C 
BRANCH  24  28
ATOM     25  C   UNL     1      -0.431   0.244   0.394  0.00  0.00    +0.000 A 
ATOM     26  C   UNL     1       0.516   1.233   0.208  0.00  0.00    +0.000 A 
ATOM     27  C   UNL     1       1.851   0.897   0.086  0.00  0.00    +0.005 A 
ATOM     28  C   UNL     1       2.240  -0.428   0.149  0.00  0.00    -0.030 A 
ATOM     29  C   UNL     1       1.292  -1.417   0.335  0.00  0.00    +0.005 A 
ATOM     30  C   UNL     1      -0.043  -1.082   0.456  0.00  0.00    +0.000 A 
ENDBRANCH  24  28
ENDBRANCH  21  24
BRANCH  21  31
ATOM     31  C   UNL     1       4.167  -2.177   2.089  0.00  0.00    +0.143 C 
BRANCH  31  32
ATOM     32  C   UNL     1       5.331  -3.074   1.758  0.00  0.00    -0.030 A 
ATOM     33  C   UNL     1       5.245  -3.955   0.697  0.00  0.00    +0.005 A 
ATOM     34  C   UNL     1       6.313  -4.779   0.394  0.00  0.00    +0.000 A 
ATOM     35  C   UNL     1       7.468  -4.720   1.151  0.00  0.00    +0.000 A 
ATOM     36  C   UNL     1       7.554  -3.838   2.212  0.00  0.00    +0.000 A 
ATOM     37  C   UNL     1       6.488  -3.012   2.513  0.00  0.00    +0.005 A 
ENDBRANCH  31  32
ENDBRANCH  21  31
ENDBRANCH  20  22
ENDBRANCH   1  20
TORSDOF 10
