REMARK  Name = ZINC13063824
REMARK  15 active torsions:
REMARK  status: ('A' for Active; 'I' for Inactive)
REMARK    1  A    between atoms: C_1  and  C_2
REMARK    2  A    between atoms: C_2  and  C_3
REMARK    3  A    between atoms: C_3  and  C_5
REMARK    4  A    between atoms: C_3  and  N_77
REMARK    5  A    between atoms: N_9  and  C_10
REMARK    6  A    between atoms: C_15  and  C_16
REMARK    7  A    between atoms: C_15  and  N_77
REMARK    8  A    between atoms: C_16  and  C_17
REMARK    9  A    between atoms: C_20  and  O_25
REMARK   10  A    between atoms: C_21  and  O_23
REMARK   11  A    between atoms: O_23  and  C_24
REMARK   12  A    between atoms: O_25  and  C_26
REMARK   13  A    between atoms: C_27  and  C_28
REMARK   14  A    between atoms: C_27  and  N_77
REMARK   15  A    between atoms: C_33  and  C_40
REMARK                            x       y       z     vdW  Elec       q    Type
REMARK                         _______ _______ _______ _____ _____    ______ ____
ROOT
ATOM      1  N   UNL     1       4.149   2.107  -1.046  0.00  0.00    +0.389 N 
ATOM      2  H   UNL     1       3.410   2.795  -0.858  0.00  0.00    -0.080 HD
ENDROOT
BRANCH   1   3
ATOM      3  C   UNL     1       3.887   0.891  -0.247  0.00  0.00    +0.003 C 
BRANCH   3   4
ATOM      4  C   UNL     1       3.157   1.292   1.009  0.00  0.00    +0.138 A 
ATOM      5  N   UNL     1       3.048   2.503   1.499  0.00  0.00    -0.115 NA
ATOM      6  N   UNL     1       2.351   2.434   2.581  0.00  0.00    -0.023 NA
ATOM      7  N   UNL     1       2.013   1.210   2.793  0.00  0.00    -0.044 NA
ATOM      8  N   UNL     1       2.490   0.475   1.846  0.00  0.00    -0.228 N 
BRANCH   8   9
ATOM      9  C   UNL     1       2.336  -0.975   1.708  0.00  0.00    +0.111 C 
ATOM     10  C   UNL     1       0.842  -1.355   1.763  0.00  0.00    +0.027 C 
ATOM     11  C   UNL     1       0.821  -2.695   2.542  0.00  0.00    +0.002 C 
ATOM     12  C   UNL     1       1.913  -2.483   3.619  0.00  0.00    +0.002 C 
ATOM     13  C   UNL     1       3.017  -1.692   2.887  0.00  0.00    +0.027 C 
ENDBRANCH   8   9
ENDBRANCH   3   4
BRANCH   3  15
ATOM     14  C   UNL     1       5.877  -0.324  -1.143  0.00  0.00    +0.002 C 
ATOM     15  C   UNL     1       5.202   0.204   0.125  0.00  0.00    -0.011 C 
ENDBRANCH   3  15
ENDBRANCH   1   3
BRANCH   1  16
ATOM     16  C   UNL     1       5.454   2.688  -0.668  0.00  0.00    -0.073 C 
BRANCH  16  17
ATOM     17  C   UNL     1       5.326   3.325   0.718  0.00  0.00    +0.017 C 
BRANCH  17  18
ATOM     18  C   UNL     1       6.620   4.010   1.077  0.00  0.00    -0.045 A 
ATOM     19  C   UNL     1       7.606   3.312   1.749  0.00  0.00    +0.007 A 
ATOM     20  C   UNL     1       8.797   3.934   2.076  0.00  0.00    +0.049 A 
ATOM     21  C   UNL     1       8.999   5.263   1.740  0.00  0.00    +0.161 A 
ATOM     22  C   UNL     1       8.004   5.967   1.069  0.00  0.00    +0.162 A 
ATOM     23  C   UNL     1       6.815   5.336   0.740  0.00  0.00    +0.053 A 
BRANCH  22  24
ATOM     24  O   UNL     1       8.198   7.271   0.738  0.00  0.00    -0.491 OA
ATOM     25  C   UNL     1       7.133   7.931   0.049  0.00  0.00    +0.277 C 
ENDBRANCH  22  24
BRANCH  21  26
ATOM     26  O   UNL     1      10.167   5.878   2.066  0.00  0.00    -0.491 OA
ATOM     27  C   UNL     1      11.143   5.093   2.754  0.00  0.00    +0.277 C 
ENDBRANCH  21  26
ENDBRANCH  17  18
ENDBRANCH  16  17
ENDBRANCH   1  16
BRANCH   1  28
ATOM     28  C   UNL     1       4.142   1.776  -2.486  0.00  0.00    -0.037 C 
BRANCH  28  29
ATOM     29  C   UNL     1       2.712   1.697  -2.956  0.00  0.00    +0.001 A 
ATOM     30  C   UNL     1       2.112   2.794  -3.481  0.00  0.00    +0.017 A 
ATOM     31  C   UNL     1       0.722   2.684  -3.928  0.00  0.00    -0.001 A 
ATOM     32  C   UNL     1       0.050   3.781  -4.479  0.00  0.00    +0.010 A 
ATOM     33  C   UNL     1      -1.246   3.646  -4.886  0.00  0.00    +0.004 A 
ATOM     34  C   UNL     1      -1.904   2.429  -4.759  0.00  0.00    -0.048 A 
ATOM     35  C   UNL     1      -1.262   1.336  -4.219  0.00  0.00    +0.029 A 
ATOM     36  C   UNL     1       0.059   1.450  -3.797  0.00  0.00    +0.049 A 
ATOM     37  N   UNL     1       0.725   0.372  -3.254  0.00  0.00    -0.322 N 
ATOM     38  H   UNL     1       0.267  -0.478  -3.165  0.00  0.00    +0.169 HD
ATOM     39  C   UNL     1       2.003   0.481  -2.852  0.00  0.00    +0.251 A 
ATOM     40  O   UNL     1       2.563  -0.494  -2.381  0.00  0.00    -0.268 OA
ATOM     41  C   UNL     1      -3.335   2.304  -5.215  0.00  0.00    +0.044 C 
ENDBRANCH  28  29
ENDBRANCH   1  28
TORSDOF 11
