REMARK  Name = ZINC09730451
REMARK  9 active torsions:
REMARK  status: ('A' for Active; 'I' for Inactive)
REMARK    1  A    between atoms: C_1  and  C_2
REMARK    2  A    between atoms: C_2  and  C_3
REMARK    3  A    between atoms: C_3  and  C_4
REMARK    4  A    between atoms: C_4  and  N_5
REMARK    5  A    between atoms: C_6  and  N_33
REMARK    6  A    between atoms: C_7  and  N_14
REMARK    7  A    between atoms: N_14  and  C_15
REMARK    8  A    between atoms: C_15  and  C_16
REMARK    9  A    between atoms: C_21  and  C_23
REMARK                            x       y       z     vdW  Elec       q    Type
REMARK                         _______ _______ _______ _____ _____    ______ ____
ROOT
ATOM      1  N   UNL     1       0.419  -0.053  -0.189  0.00  0.00    -0.253 N 
ATOM      2  C   UNL     1      -0.134  -0.765  -1.191  0.00  0.00    +0.252 C 
ATOM      3  O   UNL     1      -0.769  -0.200  -2.061  0.00  0.00    -0.270 OA
ENDROOT
BRANCH   2   4
ATOM      4  C   UNL     1       0.032  -2.231  -1.233  0.00  0.00    +0.042 A 
ATOM      5  C   UNL     1       0.029  -2.902  -2.459  0.00  0.00    +0.062 A 
ATOM      6  C   UNL     1       0.190  -4.273  -2.495  0.00  0.00    +0.168 A 
ATOM      7  C   UNL     1       0.343  -4.989  -1.307  0.00  0.00    +0.184 A 
ATOM      8  C   UNL     1       0.340  -4.322  -0.088  0.00  0.00    +0.087 A 
ATOM      9  C   UNL     1       0.186  -2.953  -0.047  0.00  0.00    +0.037 A 
ATOM     10 CL   UNL     1       0.532  -5.217   1.387  0.00  0.00    -0.080 Cl
ATOM     11  O   UNL     1       0.476  -6.312  -1.610  0.00  0.00    -0.451 OA
ATOM     12  C   UNL     1       0.814  -6.355  -3.009  0.00  0.00    +0.466 C 
ATOM     13  O   UNL     1       0.228  -5.151  -3.540  0.00  0.00    -0.453 OA
ENDBRANCH   2   4
BRANCH   1  16
ATOM     14  N   UNL     1       2.846  -2.086   1.676  0.00  0.00    -0.280 N 
ATOM     15  C   UNL     1       2.224  -1.450   0.626  0.00  0.00    +0.127 A 
ATOM     16  C   UNL     1       1.080  -0.716   0.866  0.00  0.00    +0.140 A 
ATOM     17  C   UNL     1       0.589  -0.634   2.182  0.00  0.00    +0.277 A 
ATOM     18  O   UNL     1      -0.417   0.012   2.423  0.00  0.00    -0.266 OA
ATOM     19  N   UNL     1       1.233  -1.280   3.174  0.00  0.00    -0.273 N 
ATOM     20  H   UNL     1       0.880  -1.230   4.108  0.00  0.00    +0.173 HD
ATOM     21  C   UNL     1       2.346  -1.991   2.921  0.00  0.00    +0.331 A 
ATOM     22  O   UNL     1       2.911  -2.560   3.836  0.00  0.00    -0.246 OA
BRANCH  15  23
ATOM     23  N   UNL     1       2.735  -1.547  -0.646  0.00  0.00    -0.343 N 
ATOM     24  H   UNL     1       2.354  -1.015  -1.363  0.00  0.00    +0.144 HD
ATOM     25  H   UNL     1       3.475  -2.146  -0.828  0.00  0.00    +0.144 HD
ENDBRANCH  15  23
BRANCH  14  26
ATOM     26  C   UNL     1       4.061  -2.869   1.436  0.00  0.00    +0.128 C 
BRANCH  26  27
ATOM     27  C   UNL     1       5.287  -1.967   1.587  0.00  0.00    +0.021 C 
BRANCH  27  29
ATOM     28  C   UNL     1       7.782  -1.883   1.487  0.00  0.00    +0.004 C 
ATOM     29  C   UNL     1       6.556  -2.785   1.336  0.00  0.00    -0.002 C 
ENDBRANCH  27  29
ENDBRANCH  26  27
ENDBRANCH  14  26
ENDBRANCH   1  16
BRANCH   1  30
ATOM     30  C   UNL     1       0.334   1.409  -0.196  0.00  0.00    +0.188 C 
BRANCH  30  31
ATOM     31  C   UNL     1       1.571   1.982  -0.838  0.00  0.00    +0.122 A 
ATOM     32  C   UNL     1       1.695   2.337  -2.129  0.00  0.00    +0.046 A 
ATOM     33  C   UNL     1       3.013   2.822  -2.296  0.00  0.00    +0.041 A 
ATOM     34  C   UNL     1       3.615   2.734  -1.096  0.00  0.00    +0.195 A 
ATOM     35  O   UNL     1       2.735   2.230  -0.215  0.00  0.00    -0.466 OA
ENDBRANCH  30  31
ENDBRANCH   1  30
TORSDOF 8
