REMARK  Name = ZINC64612667
REMARK  5 active torsions:
REMARK  status: ('A' for Active; 'I' for Inactive)
REMARK    1  A    between atoms: C_4  and  C_7
REMARK    2  A    between atoms: C_11  and  C_14
REMARK    3  A    between atoms: C_17  and  S_19
REMARK    4  A    between atoms: S_19  and  N_22
REMARK    5  A    between atoms: N_22  and  C_23
REMARK                            x       y       z     vdW  Elec       q    Type
REMARK                         _______ _______ _______ _____ _____    ______ ____
ROOT
ATOM      1  C   UNL     1       4.830  -3.128   2.299  0.00  0.00    +0.069 C 
ATOM      2  N   UNL     1       4.962  -4.410   2.262  0.00  0.00    -0.258 NA
ATOM      3  C   UNL     1       4.733  -5.011   3.453  0.00  0.00    +0.135 C 
ATOM      4  C   UNL     1       4.421  -4.139   4.406  0.00  0.00    +0.111 C 
ATOM      5  C   UNL     1       4.460  -2.781   3.728  0.00  0.00    +0.113 C 
ENDROOT
BRANCH   1   9
ATOM      6  C   UNL     1       3.711  -0.707  -0.038  0.00  0.00    +0.233 C 
ATOM      7  N   UNL     1       3.561  -2.035  -0.689  0.00  0.00    -0.223 NA
ATOM      8  N   UNL     1       4.660  -2.825  -0.121  0.00  0.00    -0.222 NA
ATOM      9  C   UNL     1       5.014  -2.166   1.154  0.00  0.00    +0.248 C 
ATOM     10  O   UNL     1       4.128  -1.040   1.306  0.00  0.00    -0.332 OA
ATOM     11  H   UNL     1       3.651  -1.959  -1.691  0.00  0.00    +0.144 HD
ATOM     12  H   UNL     1       4.377  -3.781   0.033  0.00  0.00    +0.144 HD
BRANCH   6  16
ATOM     13  C   UNL     1      -0.017   1.378   0.010  0.00  0.00    +0.000 A 
ATOM     14  C   UNL     1       1.171   2.086   0.002  0.00  0.00    +0.000 A 
ATOM     15  C   UNL     1       2.377   1.411  -0.013  0.00  0.00    +0.007 A 
ATOM     16  C   UNL     1       2.396   0.029  -0.020  0.00  0.00    -0.003 A 
ATOM     17  C   UNL     1       1.208  -0.679  -0.012  0.00  0.00    +0.007 A 
ATOM     18  C   UNL     1       0.002  -0.004   0.002  0.00  0.00    +0.000 A 
ENDBRANCH   6  16
ENDBRANCH   1   9
BRANCH   4  19
ATOM     19  S   UNL     1       4.047  -4.483   6.093  0.00  0.00    +0.090 S 
ATOM     20  O   UNL     1       4.345  -5.857   6.302  0.00  0.00    -0.149 OA
ATOM     21  O   UNL     1       4.646  -3.449   6.861  0.00  0.00    -0.149 OA
BRANCH  19  22
ATOM     22  N   UNL     1       2.409  -4.321   6.275  0.00  0.00    -0.095 NA
BRANCH  22  23
ATOM     23  C   UNL     1       1.820  -4.537   7.524  0.00  0.00    +0.109 A 
ATOM     24  C   UNL     1       2.607  -4.882   8.615  0.00  0.00    +0.029 A 
ATOM     25  C   UNL     1       2.022  -5.095   9.848  0.00  0.00    +0.002 A 
ATOM     26  C   UNL     1       0.653  -4.965   9.998  0.00  0.00    +0.003 A 
ATOM     27  C   UNL     1      -0.135  -4.621   8.915  0.00  0.00    +0.040 A 
ATOM     28  C   UNL     1       0.444  -4.401   7.679  0.00  0.00    +0.148 A 
ATOM     29  F   UNL     1      -0.325  -4.060   6.622  0.00  0.00    -0.203 F 
ENDBRANCH  22  23
ENDBRANCH  19  22
ENDBRANCH   4  19
TORSDOF 5
