REMARK  Name = ZINC12943699
REMARK  14 active torsions:
REMARK  status: ('A' for Active; 'I' for Inactive)
REMARK    1  A    between atoms: C_1  and  C_2
REMARK    2  A    between atoms: C_2  and  C_4
REMARK    3  A    between atoms: C_2  and  S_17
REMARK    4  A    between atoms: N_6  and  C_7
REMARK    5  A    between atoms: C_10  and  S_13
REMARK    6  A    between atoms: S_13  and  N_16
REMARK    7  A    between atoms: S_17  and  C_18
REMARK    8  A    between atoms: C_23  and  C_24
REMARK    9  A    between atoms: N_26  and  C_27
REMARK   10  A    between atoms: C_27  and  C_28
REMARK   11  A    between atoms: C_28  and  C_30
REMARK   12  A    between atoms: C_30  and  C_31
REMARK   13  A    between atoms: C_30  and  C_32
REMARK   14  A    between atoms: C_30  and  C_33
REMARK                            x       y       z     vdW  Elec       q    Type
REMARK                         _______ _______ _______ _____ _____    ______ ____
ROOT
ATOM      1  C   UNL     1      -4.910   5.168   6.391  0.00  0.00    +0.029 C 
ATOM      2  C   UNL     1      -3.524   4.601   6.701  0.00  0.00    +0.134 C 
ENDROOT
BRANCH   2   3
ATOM      3  C   UNL     1      -2.831   4.237   5.413  0.00  0.00    +0.230 C 
ATOM      4  O   UNL     1      -2.005   4.986   4.936  0.00  0.00    -0.274 OA
ATOM      5  N   UNL     1      -3.130   3.079   4.791  0.00  0.00    -0.285 N 
ATOM      6  H   UNL     1      -3.842   2.515   5.131  0.00  0.00    +0.155 HD
BRANCH   5   7
ATOM      7  C   UNL     1      -2.412   2.690   3.655  0.00  0.00    +0.034 A 
ATOM      8  C   UNL     1      -1.067   3.016   3.536  0.00  0.00    +0.025 A 
ATOM      9  C   UNL     1      -0.361   2.630   2.413  0.00  0.00    +0.030 A 
ATOM     10  C   UNL     1      -0.992   1.919   1.409  0.00  0.00    +0.105 A 
ATOM     11  C   UNL     1      -2.332   1.597   1.522  0.00  0.00    +0.030 A 
ATOM     12  C   UNL     1      -3.042   1.976   2.644  0.00  0.00    +0.025 A 
BRANCH  10  13
ATOM     13  S   UNL     1      -0.087   1.428  -0.021  0.00  0.00    +0.056 S 
ATOM     14  O   UNL     1       1.008   2.326  -0.138  0.00  0.00    -0.153 OA
ATOM     15  O   UNL     1      -1.039   1.248  -1.062  0.00  0.00    -0.153 OA
BRANCH  13  16
ATOM     16  N   UNL     1       0.556  -0.065   0.294  0.00  0.00    -0.204 NA
ATOM     17  H   UNL     1       1.518  -0.192   0.275  0.00  0.00    +0.144 HD
ATOM     18  H   UNL     1      -0.028  -0.812   0.499  0.00  0.00    +0.144 HD
ENDBRANCH  13  16
ENDBRANCH  10  13
ENDBRANCH   5   7
ENDBRANCH   2   3
BRANCH   2  19
ATOM     19  S   UNL     1      -2.544   5.846   7.584  0.00  0.00    -0.112 S 
BRANCH  19  20
ATOM     20  C   UNL     1      -3.304   5.940   9.170  0.00  0.00    +0.021 A 
ATOM     21  C   UNL     1      -4.323   5.058   9.511  0.00  0.00    +0.015 A 
ATOM     22  C   UNL     1      -4.916   5.134  10.754  0.00  0.00    +0.001 A 
ATOM     23  C   UNL     1      -4.504   6.088  11.671  0.00  0.00    +0.001 A 
ATOM     24  C   UNL     1      -3.496   6.971  11.353  0.00  0.00    +0.014 A 
ATOM     25  C   UNL     1      -2.880   6.904  10.100  0.00  0.00    +0.050 A 
BRANCH  25  26
ATOM     26  C   UNL     1      -1.797   7.842   9.755  0.00  0.00    +0.245 C 
ATOM     27  O   UNL     1      -1.267   7.782   8.662  0.00  0.00    -0.270 OA
ATOM     28  N   UNL     1      -1.394   8.765  10.650  0.00  0.00    -0.304 N 
ATOM     29  H   UNL     1      -1.817   8.812  11.522  0.00  0.00    +0.149 HD
BRANCH  28  30
ATOM     30  C   UNL     1      -0.317   9.697  10.307  0.00  0.00    +0.179 C 
BRANCH  30  31
ATOM     31  C   UNL     1      -0.060  10.618  11.472  0.00  0.00    +0.156 C 
ATOM     32  O   UNL     1      -0.709  10.507  12.484  0.00  0.00    -0.295 OA
BRANCH  31  33
ATOM     33  C   UNL     1       1.008  11.677  11.373  0.00  0.00    +0.022 C 
ATOM     34  C   UNL     1       1.063  12.469  12.681  0.00  0.00    +0.018 C 
ATOM     35  C   UNL     1       2.363  11.014  11.120  0.00  0.00    +0.018 C 
ATOM     36  C   UNL     1       0.680  12.625  10.217  0.00  0.00    +0.018 C 
ENDBRANCH  31  33
ENDBRANCH  30  31
ENDBRANCH  28  30
ENDBRANCH  25  26
ENDBRANCH  19  20
ENDBRANCH   2  19
TORSDOF 10
