REMARK  Name = ZINC11422701
REMARK  12 active torsions:
REMARK  status: ('A' for Active; 'I' for Inactive)
REMARK    1  A    between atoms: C_1  and  C_2
REMARK    2  A    between atoms: C_2  and  O_3
REMARK    3  A    between atoms: O_3  and  C_4
REMARK    4  A    between atoms: C_7  and  N_10
REMARK    5  A    between atoms: N_10  and  S_11
REMARK    6  A    between atoms: S_11  and  C_14
REMARK    7  A    between atoms: C_17  and  C_20
REMARK    8  A    between atoms: N_22  and  C_23
REMARK    9  A    between atoms: C_25  and  C_30
REMARK   10  A    between atoms: C_25  and  C_31
REMARK   11  A    between atoms: C_26  and  C_28
REMARK   12  A    between atoms: C_26  and  C_29
REMARK                            x       y       z     vdW  Elec       q    Type
REMARK                         _______ _______ _______ _____ _____    ______ ____
ROOT
ATOM      1  C   UNL     1       0.290  10.119  -2.137  0.00  0.00    +0.109 A 
ATOM      2  C   UNL     1       0.052   9.212  -3.154  0.00  0.00    +0.029 A 
ATOM      3  C   UNL     1       0.208   7.860  -2.926  0.00  0.00    +0.015 A 
ATOM      4  C   UNL     1       0.605   7.409  -1.667  0.00  0.00    +0.037 A 
ATOM      5  C   UNL     1       0.838   8.329  -0.644  0.00  0.00    +0.015 A 
ATOM      6  C   UNL     1       0.684   9.678  -0.886  0.00  0.00    +0.029 A 
ENDROOT
BRANCH   4   7
ATOM      7  C   UNL     1       0.773   5.961  -1.416  0.00  0.00    +0.244 C 
ATOM      8  O   UNL     1       0.566   5.162  -2.307  0.00  0.00    -0.270 OA
ATOM      9  N   UNL     1       1.157   5.529  -0.198  0.00  0.00    -0.309 N 
ATOM     10  H   UNL     1       1.323   6.167   0.513  0.00  0.00    +0.149 HD
BRANCH   9  11
ATOM     11  C   UNL     1       1.324   4.091   0.051  0.00  0.00    +0.071 C 
ATOM     12  C   UNL     1       2.310   3.891   1.202  0.00  0.00    +0.009 C 
ATOM     13  C   UNL     1       2.488   2.404   1.496  0.00  0.00    -0.072 C 
ATOM     14  C   UNL     1       0.126   1.999   0.743  0.00  0.00    -0.072 C 
ATOM     15  C   UNL     1      -0.022   3.491   0.455  0.00  0.00    +0.009 C 
ATOM     16  C   UNL     1       0.259   1.232  -0.578  0.00  0.00    -0.010 C 
ATOM     17  C   UNL     1      -1.180   1.524   1.418  0.00  0.00    -0.010 C 
ATOM     18  C   UNL     1       3.256   2.282   2.831  0.00  0.00    -0.010 C 
ATOM     19  C   UNL     1       3.362   1.767   0.410  0.00  0.00    -0.010 C 
ATOM     20  N   UNL     1       1.220   1.648   1.688  0.00  0.00    +0.386 N 
ATOM     21  H   UNL     1       0.886   1.825   2.642  0.00  0.00    -0.084 HD
ATOM     22  H   UNL     1       1.427   0.648   1.578  0.00  0.00    -0.084 HD
ENDBRANCH   9  11
ENDBRANCH   4   7
BRANCH   1  23
ATOM     23  S   UNL     1       0.089  11.844  -2.436  0.00  0.00    +0.072 S 
ATOM     24  O   UNL     1       0.797  12.520  -1.406  0.00  0.00    -0.150 OA
ATOM     25  O   UNL     1       0.365  12.052  -3.814  0.00  0.00    -0.150 OA
BRANCH  23  26
ATOM     26  N   UNL     1      -1.514  12.195  -2.217  0.00  0.00    -0.216 N 
ATOM     27  H   UNL     1      -2.047  12.518  -2.961  0.00  0.00    +0.174 HD
BRANCH  26  31
ATOM     28  C   UNL     1      -3.264  11.695   1.534  0.00  0.00    +0.121 A 
ATOM     29  C   UNL     1      -2.409  12.763   1.304  0.00  0.00    +0.047 A 
ATOM     30  C   UNL     1      -1.829  12.930   0.062  0.00  0.00    +0.028 A 
ATOM     31  C   UNL     1      -2.102  12.027  -0.958  0.00  0.00    +0.048 A 
ATOM     32  C   UNL     1      -2.961  10.961  -0.729  0.00  0.00    +0.028 A 
ATOM     33  C   UNL     1      -3.536  10.793   0.516  0.00  0.00    +0.047 A 
BRANCH  28  34
ATOM     34  O   UNL     1      -3.835  11.532   2.757  0.00  0.00    -0.492 OA
BRANCH  34  36
ATOM     35  C   UNL     1      -5.247  10.393   4.353  0.00  0.00    +0.048 C 
ATOM     36  C   UNL     1      -4.705  10.410   2.923  0.00  0.00    +0.225 C 
ENDBRANCH  34  36
ENDBRANCH  28  34
ENDBRANCH  26  31
ENDBRANCH  23  26
ENDBRANCH   1  23
TORSDOF 7
