REMARK  Name = ZINC01611876
REMARK  9 active torsions:
REMARK  status: ('A' for Active; 'I' for Inactive)
REMARK    1  A    between atoms: C_4  and  S_16
REMARK    2  A    between atoms: C_5  and  C_7
REMARK    3  A    between atoms: C_7  and  N_8
REMARK    4  A    between atoms: C_12  and  C_13
REMARK    5  A    between atoms: S_16  and  S_17
REMARK    6  A    between atoms: S_17  and  C_18
REMARK    7  A    between atoms: C_23  and  C_24
REMARK    8  A    between atoms: C_24  and  N_25
REMARK    9  A    between atoms: C_29  and  C_30
REMARK                            x       y       z     vdW  Elec       q    Type
REMARK                         _______ _______ _______ _____ _____    ______ ____
ROOT
ATOM      1  S   UNL     1      -1.114   6.516  -1.370  0.00  0.00    -0.052 S 
ENDROOT
BRANCH   1   5
ATOM      2  C   UNL     1       2.717   5.054  -3.294  0.00  0.00    +0.000 A 
ATOM      3  C   UNL     1       1.932   5.988  -3.945  0.00  0.00    +0.001 A 
ATOM      4  C   UNL     1       0.763   6.437  -3.362  0.00  0.00    +0.016 A 
ATOM      5  C   UNL     1       0.376   5.947  -2.119  0.00  0.00    +0.024 A 
ATOM      6  C   UNL     1       1.169   5.007  -1.468  0.00  0.00    -0.014 A 
ATOM      7  C   UNL     1       2.338   4.568  -2.055  0.00  0.00    +0.006 A 
BRANCH   6   8
ATOM      8  C   UNL     1       0.754   4.473  -0.121  0.00  0.00    +0.158 C 
BRANCH   8   9
ATOM      9  N   UNL     1      -0.192   3.369  -0.304  0.00  0.00    -0.339 N 
ATOM     10  C   UNL     1      -0.566   2.836  -1.493  0.00  0.00    +0.087 A 
ATOM     11  C   UNL     1      -1.447   1.833  -1.266  0.00  0.00    +0.020 A 
ATOM     12  C   UNL     1      -1.642   1.737   0.115  0.00  0.00    +0.032 A 
ATOM     13  C   UNL     1      -0.850   2.700   0.704  0.00  0.00    +0.104 A 
BRANCH  13  14
ATOM     14  C   UNL     1      -0.730   2.964   2.142  0.00  0.00    +0.258 C 
ATOM     15  O   UNL     1      -1.436   2.366   2.931  0.00  0.00    -0.269 OA
ATOM     16  N   UNL     1       0.164   3.869   2.588  0.00  0.00    -0.324 N 
ATOM     17  H   UNL     1       0.674   4.399   1.957  0.00  0.00    +0.145 HD
ATOM     18  H   UNL     1       0.295   3.991   3.542  0.00  0.00    +0.145 HD
ENDBRANCH  13  14
ENDBRANCH   8   9
ENDBRANCH   6   8
ENDBRANCH   1   5
BRANCH   1  19
ATOM     19  S   UNL     1      -1.868   7.857  -2.724  0.00  0.00    -0.052 S 
BRANCH  19  20
ATOM     20  C   UNL     1      -2.772   6.856  -3.858  0.00  0.00    +0.024 A 
ATOM     21  C   UNL     1      -2.822   5.476  -3.684  0.00  0.00    +0.016 A 
ATOM     22  C   UNL     1      -3.536   4.697  -4.571  0.00  0.00    +0.001 A 
ATOM     23  C   UNL     1      -4.191   5.283  -5.639  0.00  0.00    +0.000 A 
ATOM     24  C   UNL     1      -4.138   6.654  -5.819  0.00  0.00    +0.006 A 
ATOM     25  C   UNL     1      -3.432   7.442  -4.933  0.00  0.00    -0.014 A 
BRANCH  25  26
ATOM     26  C   UNL     1      -3.376   8.935  -5.130  0.00  0.00    +0.158 C 
BRANCH  26  27
ATOM     27  N   UNL     1      -2.120   9.293  -5.794  0.00  0.00    -0.339 N 
ATOM     28  C   UNL     1      -1.157   8.424  -6.185  0.00  0.00    +0.087 A 
ATOM     29  C   UNL     1      -0.148   9.119  -6.763  0.00  0.00    +0.020 A 
ATOM     30  C   UNL     1      -0.486  10.476  -6.726  0.00  0.00    +0.032 A 
ATOM     31  C   UNL     1      -1.720  10.570  -6.118  0.00  0.00    +0.104 A 
BRANCH  31  32
ATOM     32  C   UNL     1      -2.469  11.805  -5.864  0.00  0.00    +0.258 C 
ATOM     33  O   UNL     1      -2.040  12.871  -6.265  0.00  0.00    -0.269 OA
ATOM     34  N   UNL     1      -3.634  11.759  -5.188  0.00  0.00    -0.324 N 
ATOM     35  H   UNL     1      -3.940  10.922  -4.805  0.00  0.00    +0.145 HD
ATOM     36  H   UNL     1      -4.166  12.563  -5.084  0.00  0.00    +0.145 HD
ENDBRANCH  31  32
ENDBRANCH  26  27
ENDBRANCH  25  26
ENDBRANCH  19  20
ENDBRANCH   1  19
TORSDOF 9
