REMARK  Name = ZINC36583032
REMARK  18 active torsions:
REMARK  status: ('A' for Active; 'I' for Inactive)
REMARK    1  A    between atoms: C_1  and  C_2
REMARK    2  A    between atoms: C_2  and  C_3
REMARK    3  A    between atoms: C_3  and  C_4
REMARK    4  A    between atoms: C_4  and  N_5
REMARK    5  A    between atoms: C_6  and  C_8
REMARK    6  A    between atoms: C_8  and  C_10
REMARK    7  A    between atoms: C_8  and  N_19
REMARK    8  A    between atoms: C_11  and  O_18
REMARK    9  A    between atoms: C_13  and  O_17
REMARK   10  A    between atoms: C_15  and  O_16
REMARK   11  A    between atoms: N_19  and  C_32
REMARK   12  A    between atoms: C_20  and  C_22
REMARK   13  A    between atoms: C_22  and  C_24
REMARK   14  A    between atoms: C_22  and  C_26
REMARK   15  A    between atoms: C_24  and  C_25
REMARK   16  A    between atoms: C_32  and  C_33
REMARK   17  A    between atoms: C_32  and  C_34
REMARK   18  A    between atoms: C_32  and  C_35
REMARK                            x       y       z     vdW  Elec       q    Type
REMARK                         _______ _______ _______ _____ _____    ______ ____
ROOT
ATOM      1  C   UNL     1      -4.549  -3.585   1.814  0.00  0.00    +0.200 C 
ENDROOT
BRANCH   1   2
ATOM      2  C   UNL     1      -5.478  -4.447   2.630  0.00  0.00    +0.065 A 
ATOM      3  C   UNL     1      -6.463  -5.193   2.001  0.00  0.00    +0.129 A 
ATOM      4  C   UNL     1      -7.318  -5.986   2.751  0.00  0.00    +0.091 A 
ATOM      5  C   UNL     1      -7.187  -6.033   4.131  0.00  0.00    +0.124 A 
ATOM      6  C   UNL     1      -6.201  -5.288   4.760  0.00  0.00    +0.091 A 
ATOM      7  C   UNL     1      -5.344  -4.498   4.009  0.00  0.00    +0.129 A 
BRANCH   7   8
ATOM      8  O   UNL     1      -4.374  -3.772   4.625  0.00  0.00    -0.506 OA
ATOM      9  H   UNL     1      -4.653  -2.882   4.883  0.00  0.00    +0.292 HD
ENDBRANCH   7   8
BRANCH   5  10
ATOM     10  O   UNL     1      -8.026  -6.809   4.867  0.00  0.00    -0.507 OA
ATOM     11  H   UNL     1      -7.707  -7.712   5.003  0.00  0.00    +0.292 HD
ENDBRANCH   5  10
BRANCH   3  12
ATOM     12  O   UNL     1      -6.592  -5.146   0.648  0.00  0.00    -0.506 OA
ATOM     13  H   UNL     1      -6.007  -5.756   0.177  0.00  0.00    +0.292 HD
ENDBRANCH   3  12
ENDBRANCH   1   2
BRANCH   1  15
ATOM     14  N   UNL     1      -6.306  -1.938   1.251  0.00  0.00    -0.313 N 
ATOM     15  C   UNL     1      -5.350  -2.784   0.820  0.00  0.00    +0.238 C 
ATOM     16  O   UNL     1      -5.134  -2.901  -0.368  0.00  0.00    -0.273 OA
ATOM     17  H   UNL     1      -6.479  -1.845   2.201  0.00  0.00    +0.149 HD
BRANCH  14  18
ATOM     18  C   UNL     1      -7.085  -1.159   0.285  0.00  0.00    +0.104 C 
BRANCH  18  19
ATOM     19  C   UNL     1      -8.095  -0.285   1.030  0.00  0.00    +0.018 C 
BRANCH  19  21
ATOM     20  C   UNL     1      -9.919   1.402   0.767  0.00  0.00    +0.004 C 
ATOM     21  C   UNL     1      -8.908   0.528   0.021  0.00  0.00    -0.002 C 
ENDBRANCH  19  21
ENDBRANCH  18  19
ENDBRANCH  14  18
ENDBRANCH   1  15
BRANCH   1  22
ATOM     22  N   UNL     1      -3.595  -4.437   1.099  0.00  0.00    -0.280 N 
ATOM     23  C   UNL     1      -3.818  -5.762   0.998  0.00  0.00    +0.224 C 
ATOM     24  O   UNL     1      -4.738  -6.270   1.604  0.00  0.00    -0.275 OA
BRANCH  22  25
ATOM     25  C   UNL     1      -2.398  -3.848   0.493  0.00  0.00    +0.030 C 
ATOM     26  C   UNL     1      -1.174  -4.191   1.345  0.00  0.00    +0.031 C 
ATOM     27  C   UNL     1      -2.211  -4.410  -0.917  0.00  0.00    +0.031 C 
ATOM     28  C   UNL     1      -2.558  -2.328   0.420  0.00  0.00    +0.031 C 
ENDBRANCH  22  25
BRANCH  23  29
ATOM     29  C   UNL     1      -2.925  -6.613   0.133  0.00  0.00    +0.105 C 
BRANCH  29  30
ATOM     30  C   UNL     1      -3.337  -8.058   0.254  0.00  0.00    -0.036 A 
ATOM     31  C   UNL     1      -3.309  -8.683   1.487  0.00  0.00    +0.004 A 
ATOM     32  C   UNL     1      -3.686 -10.008   1.599  0.00  0.00    +0.000 A 
ATOM     33  C   UNL     1      -4.091 -10.708   0.478  0.00  0.00    +0.000 A 
ATOM     34  C   UNL     1      -4.120 -10.083  -0.755  0.00  0.00    +0.000 A 
ATOM     35  C   UNL     1      -3.747  -8.757  -0.866  0.00  0.00    +0.004 A 
ENDBRANCH  29  30
BRANCH  29  36
ATOM     36  C   UNL     1      -1.473  -6.456   0.588  0.00  0.00    +0.014 C 
ATOM     37  C   UNL     1      -0.659  -7.665   0.123  0.00  0.00    +0.005 C 
ENDBRANCH  29  36
ENDBRANCH  23  29
ENDBRANCH   1  22
TORSDOF 13
