REMARK  Name = ZINC25445122
REMARK  10 active torsions:
REMARK  status: ('A' for Active; 'I' for Inactive)
REMARK    1  A    between atoms: C_1  and  C_2
REMARK    2  A    between atoms: C_2  and  C_3
REMARK    3  A    between atoms: C_3  and  C_29
REMARK    4  A    between atoms: N_6  and  C_10
REMARK    5  A    between atoms: C_10  and  C_11
REMARK    6  A    between atoms: N_13  and  C_14
REMARK    7  A    between atoms: C_15  and  C_25
REMARK    8  A    between atoms: C_20  and  C_24
REMARK    9  A    between atoms: C_25  and  O_27
REMARK   10  A    between atoms: O_27  and  C_28
REMARK                            x       y       z     vdW  Elec       q    Type
REMARK                         _______ _______ _______ _____ _____    ______ ____
ROOT
ATOM      1  C   UNL     1       2.997  -4.752   5.090  0.00  0.00    +0.214 C 
ENDROOT
BRANCH   1   5
ATOM      2  C   UNL     1       5.179  -4.214   8.046  0.00  0.00    +0.138 C 
ATOM      3  C   UNL     1       3.821  -4.217   7.373  0.00  0.00    +0.251 C 
ATOM      4  O   UNL     1       2.756  -3.928   7.874  0.00  0.00    -0.272 OA
ATOM      5  N   UNL     1       4.045  -4.608   6.103  0.00  0.00    -0.215 N 
ATOM      6  C   UNL     1       5.341  -4.854   5.884  0.00  0.00    +0.310 C 
ATOM      7  O   UNL     1       5.788  -5.224   4.815  0.00  0.00    -0.252 OA
ATOM      8  N   UNL     1       6.097  -4.644   6.977  0.00  0.00    -0.281 N 
ATOM      9  H   UNL     1       7.175  -4.731   7.179  0.00  0.00    +0.152 HD
BRANCH   2  10
ATOM     10  C   UNL     1       5.205  -5.189   9.195  0.00  0.00    -0.015 A 
ATOM     11  C   UNL     1       4.866  -4.768  10.467  0.00  0.00    +0.009 A 
ATOM     12  C   UNL     1       4.883  -5.662  11.520  0.00  0.00    +0.039 A 
ATOM     13  C   UNL     1       5.250  -6.980  11.302  0.00  0.00    +0.123 A 
ATOM     14  C   UNL     1       5.595  -7.400  10.028  0.00  0.00    +0.039 A 
ATOM     15  C   UNL     1       5.572  -6.504   8.976  0.00  0.00    +0.009 A 
ATOM     16  F   UNL     1       5.273  -7.854  12.331  0.00  0.00    -0.205 F 
ENDBRANCH   2  10
BRANCH   2  18
ATOM     17  C   UNL     1       5.556  -1.848   7.338  0.00  0.00    +0.007 C 
ATOM     18  C   UNL     1       5.537  -2.807   8.529  0.00  0.00    +0.037 C 
ENDBRANCH   2  18
ENDBRANCH   1   5
BRANCH   1  19
ATOM     19  C   UNL     1       2.824  -3.446   4.358  0.00  0.00    +0.236 C 
ATOM     20  O   UNL     1       3.508  -2.489   4.654  0.00  0.00    -0.274 OA
ATOM     21  N   UNL     1       1.908  -3.341   3.374  0.00  0.00    -0.278 N 
ATOM     22  H   UNL     1       1.287  -4.208   3.106  0.00  0.00    +0.155 HD
BRANCH  21  23
ATOM     23  C   UNL     1       1.749  -2.139   2.701  0.00  0.00    +0.086 A 
ATOM     24  C   UNL     1       0.868  -1.838   1.670  0.00  0.00    +0.091 A 
ATOM     25  C   UNL     1       0.903  -0.489   1.132  0.00  0.00    -0.021 A 
ATOM     26  C   UNL     1       1.804   0.337   1.705  0.00  0.00    -0.004 A 
ATOM     27  S   UNL     1       2.600  -0.650   2.941  0.00  0.00    -0.077 S 
ATOM     28  C   UNL     1       2.064   1.771   1.359  0.00  0.00    +0.046 C 
ATOM     29  C   UNL     1       1.414   2.066  -0.000  0.00  0.00    -0.009 C 
ATOM     30  C   UNL     1      -0.019   1.525   0.010  0.00  0.00    +0.008 C 
ATOM     31  C   UNL     1       0.002  -0.004   0.002  0.00  0.00    +0.037 C 
ATOM     32  C   UNL     1       1.391   3.577  -0.240  0.00  0.00    +0.008 C 
BRANCH  24  33
ATOM     33  C   UNL     1      -0.060  -2.842   1.146  0.00  0.00    +0.342 C 
ATOM     34  O   UNL     1       0.278  -3.559   0.223  0.00  0.00    -0.245 OA
BRANCH  33  35
ATOM     35  O   UNL     1      -1.289  -2.972   1.687  0.00  0.00    -0.464 OA
ATOM     36  C   UNL     1      -2.155  -3.988   1.117  0.00  0.00    +0.280 C 
ENDBRANCH  33  35
ENDBRANCH  24  33
ENDBRANCH  21  23
ENDBRANCH   1  19
TORSDOF 7
