REMARK  Name = ZINC13976442
REMARK  16 active torsions:
REMARK  status: ('A' for Active; 'I' for Inactive)
REMARK    1  A    between atoms: C_1  and  C_2
REMARK    2  A    between atoms: C_5  and  N_9
REMARK    3  A    between atoms: C_7  and  C_8
REMARK    4  A    between atoms: C_10  and  C_12
REMARK    5  A    between atoms: C_12  and  C_13
REMARK    6  A    between atoms: C_13  and  C_14
REMARK    7  A    between atoms: N_16  and  N_17
REMARK    8  A    between atoms: N_17  and  C_18
REMARK    9  A    between atoms: C_18  and  N_20
REMARK   10  A    between atoms: C_21  and  C_23
REMARK   11  A    between atoms: C_23  and  O_24
REMARK   12  A    between atoms: O_24  and  C_25
REMARK   13  A    between atoms: C_28  and  C_31
REMARK   14  A    between atoms: C_31  and  C_32
REMARK   15  A    between atoms: C_31  and  C_33
REMARK   16  A    between atoms: C_31  and  C_34
REMARK                            x       y       z     vdW  Elec       q    Type
REMARK                         _______ _______ _______ _____ _____    ______ ____
ROOT
ATOM      1  N   UNL     1       6.117   1.777   0.476  0.00  0.00    -0.246 N 
ATOM      2  H   UNL     1       6.118   2.740   0.358  0.00  0.00    +0.172 HD
ENDROOT
BRANCH   1   5
ATOM      3  C   UNL     1       3.740   1.737   0.337  0.00  0.00    +0.230 C 
ATOM      4  O   UNL     1       3.742   2.941   0.190  0.00  0.00    -0.274 OA
ATOM      5  N   UNL     1       4.904   1.075   0.488  0.00  0.00    -0.235 N 
ATOM      6  H   UNL     1       4.903   0.112   0.606  0.00  0.00    +0.173 HD
BRANCH   3   7
ATOM      7  C   UNL     1       2.437   0.981   0.351  0.00  0.00    +0.106 C 
BRANCH   7   8
ATOM      8  C   UNL     1       1.277   1.961   0.161  0.00  0.00    +0.105 C 
BRANCH   8  10
ATOM      9  N   UNL     1      -1.191   1.867   0.018  0.00  0.00    -0.285 N 
ATOM     10  C   UNL     1      -0.027   1.205   0.175  0.00  0.00    +0.218 C 
ATOM     11  O   UNL     1      -0.028   0.001   0.322  0.00  0.00    -0.275 OA
ATOM     12  H   UNL     1      -1.196   2.836  -0.023  0.00  0.00    +0.155 HD
BRANCH   9  17
ATOM     13  C   UNL     1      -6.058  -1.018  -0.403  0.00  0.00    +0.044 C 
ATOM     14  C   UNL     1      -4.765  -0.251  -0.292  0.00  0.00    -0.047 A 
ATOM     15  C   UNL     1      -3.597  -0.790  -0.800  0.00  0.00    +0.005 A 
ATOM     16  C   UNL     1      -2.412  -0.089  -0.704  0.00  0.00    +0.023 A 
ATOM     17  C   UNL     1      -2.391   1.155  -0.086  0.00  0.00    +0.034 A 
ATOM     18  C   UNL     1      -3.565   1.694   0.423  0.00  0.00    +0.027 A 
ATOM     19  C   UNL     1      -4.749   0.989   0.319  0.00  0.00    -0.046 A 
ATOM     20  C   UNL     1      -6.023   1.573   0.872  0.00  0.00    +0.044 C 
ENDBRANCH   9  17
ENDBRANCH   8  10
ENDBRANCH   7   8
ENDBRANCH   3   7
ENDBRANCH   1   5
BRANCH   1  21
ATOM     21  C   UNL     1       7.281   1.115   0.627  0.00  0.00    +0.153 C 
ATOM     22  S   UNL     1       8.762   1.974   0.611  0.00  0.00    -0.017 S 
BRANCH  21  23
ATOM     23  N   UNL     1       7.279  -0.223   0.790  0.00  0.00    -0.264 N 
ATOM     24  C   UNL     1       8.443  -0.885   0.941  0.00  0.00    +0.256 C 
ATOM     25  O   UNL     1       9.492  -0.277   0.930  0.00  0.00    -0.272 OA
ATOM     26  H   UNL     1       6.440  -0.709   0.799  0.00  0.00    +0.157 HD
BRANCH  24  27
ATOM     27  C   UNL     1       8.441  -2.381   1.124  0.00  0.00    +0.324 C 
BRANCH  27  28
ATOM     28  O   UNL     1       9.786  -2.845   1.262  0.00  0.00    -0.483 OA
BRANCH  28  29
ATOM     29  C   UNL     1       9.961  -4.182   1.436  0.00  0.00    +0.121 A 
ATOM     30  C   UNL     1       8.863  -5.027   1.478  0.00  0.00    +0.046 A 
ATOM     31  C   UNL     1       9.044  -6.386   1.649  0.00  0.00    +0.008 A 
ATOM     32  C   UNL     1      10.320  -6.902   1.790  0.00  0.00    -0.042 A 
ATOM     33  C   UNL     1      11.416  -6.060   1.753  0.00  0.00    +0.008 A 
ATOM     34  C   UNL     1      11.240  -4.702   1.576  0.00  0.00    +0.046 A 
BRANCH  32  35
ATOM     35  C   UNL     1      10.515  -8.384   1.982  0.00  0.00    -0.013 C 
ATOM     36  C   UNL     1      11.220  -8.636   3.316  0.00  0.00    +0.015 C 
ATOM     37  C   UNL     1       9.153  -9.081   1.985  0.00  0.00    +0.015 C 
ATOM     38  C   UNL     1      11.369  -8.938   0.841  0.00  0.00    +0.015 C 
ENDBRANCH  32  35
ENDBRANCH  28  29
ENDBRANCH  27  28
ENDBRANCH  24  27
ENDBRANCH  21  23
ENDBRANCH   1  21
TORSDOF 11
