REMARK  Name = ZINC19900237
REMARK  10 active torsions:
REMARK  status: ('A' for Active; 'I' for Inactive)
REMARK    1  A    between atoms: C_1  and  C_2
REMARK    2  A    between atoms: C_5  and  S_8
REMARK    3  A    between atoms: S_8  and  N_11
REMARK    4  A    between atoms: C_12  and  C_13
REMARK    5  A    between atoms: C_13  and  N_14
REMARK    6  A    between atoms: N_23  and  S_29
REMARK    7  A    between atoms: C_24  and  C_26
REMARK    8  A    between atoms: C_26  and  C_27
REMARK    9  A    between atoms: C_26  and  C_28
REMARK   10  A    between atoms: S_29  and  C_32
REMARK                            x       y       z     vdW  Elec       q    Type
REMARK                         _______ _______ _______ _____ _____    ______ ____
ROOT
ATOM      1  N   UNL     1      -0.056  -4.697   0.821  0.00  0.00    -0.117 NA
ATOM      2  C   UNL     1       0.482  -5.692   0.195  0.00  0.00    +0.135 C 
ATOM      3  N   UNL     1      -0.208  -6.866   0.051  0.00  0.00    -0.297 N 
ATOM      4  C   UNL     1      -1.672  -7.011  -0.022  0.00  0.00    +0.125 C 
ATOM      5  C   UNL     1      -1.905  -8.416  -0.611  0.00  0.00    +0.130 C 
ATOM      6  N   UNL     1      -0.716  -9.183  -0.193  0.00  0.00    -0.154 NA
ATOM      7  C   UNL     1       0.376  -8.208  -0.063  0.00  0.00    +0.169 C 
ENDROOT
BRANCH   1   8
ATOM      8  S   UNL     1      -1.487  -4.903   1.628  0.00  0.00    +0.100 S 
ATOM      9  O   UNL     1      -1.252  -5.887   2.626  0.00  0.00    -0.146 OA
ATOM     10  O   UNL     1      -2.495  -5.049   0.638  0.00  0.00    -0.146 OA
BRANCH   8  15
ATOM     11  C   UNL     1      -2.660   0.253   4.534  0.00  0.00    +0.044 C 
ATOM     12  C   UNL     1      -2.367  -1.035   3.808  0.00  0.00    -0.050 A 
ATOM     13  C   UNL     1      -2.739  -1.183   2.485  0.00  0.00    +0.005 A 
ATOM     14  C   UNL     1      -2.470  -2.364   1.819  0.00  0.00    +0.029 A 
ATOM     15  C   UNL     1      -1.829  -3.397   2.476  0.00  0.00    +0.113 A 
ATOM     16  C   UNL     1      -1.456  -3.249   3.799  0.00  0.00    +0.029 A 
ATOM     17  C   UNL     1      -1.721  -2.066   4.464  0.00  0.00    +0.005 A 
ENDBRANCH   8  15
ENDBRANCH   1   8
BRANCH   7  18
ATOM     18  C   UNL     1       1.279  -8.273  -1.297  0.00  0.00    +0.020 C 
ATOM     19  C   UNL     1       1.867  -9.680  -1.424  0.00  0.00    +0.010 C 
ATOM     20  C   UNL     1       0.458  -7.948  -2.547  0.00  0.00    +0.010 C 
ENDBRANCH   7  18
BRANCH   6  21
ATOM     21  S   UNL     1      -0.628 -10.816   0.070  0.00  0.00    +0.063 S 
ATOM     22  O   UNL     1       0.669 -11.075   0.588  0.00  0.00    -0.153 OA
ATOM     23  O   UNL     1      -1.813 -11.179   0.767  0.00  0.00    -0.153 OA
BRANCH  21  24
ATOM     24  C   UNL     1      -0.709 -11.602  -1.504  0.00  0.00    +0.106 A 
ATOM     25  C   UNL     1      -1.850 -11.489  -2.276  0.00  0.00    +0.028 A 
ATOM     26  C   UNL     1      -1.913 -12.106  -3.511  0.00  0.00    +0.002 A 
ATOM     27  C   UNL     1      -0.835 -12.836  -3.975  0.00  0.00    +0.000 A 
ATOM     28  C   UNL     1       0.306 -12.948  -3.204  0.00  0.00    +0.002 A 
ATOM     29  C   UNL     1       0.371 -12.328  -1.971  0.00  0.00    +0.028 A 
ENDBRANCH  21  24
ENDBRANCH   6  21
BRANCH   2  30
ATOM     30  C   UNL     1       1.871  -5.560  -0.377  0.00  0.00    +0.157 C 
BRANCH  30  31
ATOM     31  N   UNL     1       2.348  -4.183  -0.191  0.00  0.00    -0.295 NA
ATOM     32  C   UNL     1       1.548  -3.237  -0.980  0.00  0.00    +0.085 C 
ATOM     33  C   UNL     1       1.977  -1.806  -0.651  0.00  0.00    +0.015 C 
ATOM     34  C   UNL     1       3.465  -1.637  -0.972  0.00  0.00    +0.002 C 
ATOM     35  C   UNL     1       4.271  -2.666  -0.174  0.00  0.00    +0.015 C 
ATOM     36  C   UNL     1       3.776  -4.072  -0.517  0.00  0.00    +0.085 C 
ENDBRANCH  30  31
ENDBRANCH   2  30
TORSDOF 7
