REMARK  Name = ZINC39596931
REMARK  7 active torsions:
REMARK  status: ('A' for Active; 'I' for Inactive)
REMARK    1  A    between atoms: C_1  and  C_2
REMARK    2  A    between atoms: C_2  and  C_4
REMARK    3  A    between atoms: C_2  and  N_10
REMARK    4  A    between atoms: C_11  and  C_13
REMARK    5  A    between atoms: C_24  and  C_26
REMARK    6  A    between atoms: C_31  and  O_32
REMARK    7  A    between atoms: O_32  and  C_33
REMARK                            x       y       z     vdW  Elec       q    Type
REMARK                         _______ _______ _______ _____ _____    ______ ____
ROOT
ATOM      1  C   UNL     1      -3.923  -0.908  -0.936  0.00  0.00    +0.100 C 
ATOM      2  C   UNL     1      -3.744  -2.404  -0.593  0.00  0.00    +0.121 C 
ATOM      3  N   UNL     1      -4.688  -3.110  -1.491  0.00  0.00    -0.296 N 
ATOM      4  C   UNL     1      -4.590  -2.379  -2.776  0.00  0.00    +0.115 C 
ATOM      5  C   UNL     1      -4.477  -0.896  -2.370  0.00  0.00    -0.004 C 
ATOM      6  C   UNL     1      -3.515  -0.166  -3.302  0.00  0.00    -0.010 C 
ATOM      7  C   UNL     1      -4.116  -0.115  -4.710  0.00  0.00    -0.082 C 
ATOM      8  N   UNL     1      -5.409   0.578  -4.668  0.00  0.00    +0.379 N 
ATOM      9  C   UNL     1      -6.357  -0.181  -3.844  0.00  0.00    -0.082 C 
ATOM     10  C   UNL     1      -5.852  -0.234  -2.399  0.00  0.00    -0.010 C 
ATOM     11  C   UNL     1      -5.461  -4.176  -1.203  0.00  0.00    +0.252 C 
ATOM     12  O   UNL     1      -6.119  -4.704  -2.079  0.00  0.00    -0.270 OA
ATOM     13  H   UNL     1      -5.284   1.498  -4.273  0.00  0.00    -0.086 HD
ATOM     14  H   UNL     1      -5.774   0.664  -5.605  0.00  0.00    -0.086 HD
ENDROOT
BRANCH  11  15
ATOM     15  C   UNL     1      -5.510  -4.702   0.174  0.00  0.00    +0.099 A 
ATOM     16  C   UNL     1      -4.371  -4.676   0.988  0.00  0.00    +0.020 A 
ATOM     17  C   UNL     1      -4.469  -5.181   2.272  0.00  0.00    +0.021 A 
ATOM     18  C   UNL     1      -5.677  -5.692   2.712  0.00  0.00    +0.114 A 
ATOM     19  N   UNL     1      -6.738  -5.707   1.928  0.00  0.00    -0.220 NA
ATOM     20  C   UNL     1      -6.700  -5.231   0.695  0.00  0.00    +0.233 A 
BRANCH  20  21
ATOM     21  O   UNL     1      -7.816  -5.261  -0.072  0.00  0.00    -0.437 OA
BRANCH  21  22
ATOM     22  C   UNL     1      -8.922  -5.869   0.433  0.00  0.00    +0.130 A 
ATOM     23  C   UNL     1      -9.720  -5.205   1.353  0.00  0.00    +0.048 A 
ATOM     24  C   UNL     1     -10.844  -5.824   1.865  0.00  0.00    +0.023 A 
ATOM     25  C   UNL     1     -11.173  -7.106   1.461  0.00  0.00    +0.041 A 
ATOM     26  C   UNL     1     -10.378  -7.770   0.543  0.00  0.00    +0.023 A 
ATOM     27  C   UNL     1      -9.257  -7.152   0.025  0.00  0.00    +0.048 A 
ATOM     28 CL   UNL     1     -12.586  -7.882   2.106  0.00  0.00    -0.084 Cl
ENDBRANCH  21  22
ENDBRANCH  20  21
ENDBRANCH  11  15
BRANCH   1  30
ATOM     29  N   UNL     1      -2.551   1.123  -0.605  0.00  0.00    -0.308 N 
ATOM     30  C   UNL     1      -2.596  -0.195  -0.880  0.00  0.00    +0.219 C 
ATOM     31  O   UNL     1      -1.569  -0.808  -1.082  0.00  0.00    -0.275 OA
ATOM     32  H   UNL     1      -3.373   1.613  -0.443  0.00  0.00    +0.149 HD
BRANCH  29  34
ATOM     33  C   UNL     1      -0.854   2.247  -1.961  0.00  0.00    +0.033 C 
ATOM     34  C   UNL     1      -1.262   1.817  -0.550  0.00  0.00    +0.100 C 
BRANCH  34  35
ATOM     35  C   UNL     1      -1.383   3.034   0.330  0.00  0.00    -0.027 A 
ATOM     36  C   UNL     1      -2.524   3.812   0.280  0.00  0.00    +0.005 A 
ATOM     37  C   UNL     1      -2.635   4.929   1.088  0.00  0.00    +0.000 A 
ATOM     38  C   UNL     1      -1.605   5.266   1.946  0.00  0.00    +0.000 A 
ATOM     39  C   UNL     1      -0.464   4.487   1.996  0.00  0.00    +0.000 A 
ATOM     40  C   UNL     1      -0.355   3.369   1.192  0.00  0.00    +0.005 A 
ENDBRANCH  34  35
ENDBRANCH  29  34
ENDBRANCH   1  30
TORSDOF 6
