REMARK  Name = ZINC20912088
REMARK  12 active torsions:
REMARK  status: ('A' for Active; 'I' for Inactive)
REMARK    1  A    between atoms: C_1  and  C_2
REMARK    2  A    between atoms: C_3  and  C_11
REMARK    3  A    between atoms: C_4  and  C_10
REMARK    4  A    between atoms: N_5  and  C_7
REMARK    5  A    between atoms: C_7  and  C_8
REMARK    6  A    between atoms: C_7  and  C_9
REMARK    7  A    between atoms: N_12  and  N_13
REMARK    8  A    between atoms: C_17  and  S_20
REMARK    9  A    between atoms: N_18  and  N_19
REMARK   10  A    between atoms: S_20  and  C_21
REMARK   11  A    between atoms: C_21  and  C_22
REMARK   12  A    between atoms: N_24  and  C_25
REMARK                            x       y       z     vdW  Elec       q    Type
REMARK                         _______ _______ _______ _____ _____    ______ ____
ROOT
ATOM      1  N   UNL     1       8.787   8.951   3.127  0.00  0.00    -0.204 N 
ATOM      2  C   UNL     1       7.947   7.876   2.872  0.00  0.00    +0.254 A 
ATOM      3  N   UNL     1       7.636   6.924   3.717  0.00  0.00    -0.109 NA
ATOM      4  N   UNL     1       6.766   6.037   3.069  0.00  0.00    -0.119 NA
ATOM      5  C   UNL     1       6.574   6.477   1.849  0.00  0.00    +0.210 A 
ATOM      6  N   UNL     1       7.303   7.622   1.693  0.00  0.00    -0.211 N 
ATOM      7  H   UNL     1       8.981   9.696   2.341  0.00  0.00    +0.177 HD
ENDROOT
BRANCH   6   8
ATOM      8  N   UNL     1       7.374   8.380   0.559  0.00  0.00    -0.294 N 
ATOM      9  H   UNL     1       6.812   8.082  -0.338  0.00  0.00    +0.163 HD
ATOM     10  H   UNL     1       7.993   9.290   0.543  0.00  0.00    +0.163 HD
ENDBRANCH   6   8
BRANCH   1  12
ATOM     11  C   UNL     1      10.173  10.092   4.623  0.00  0.00    +0.141 C 
ATOM     12  N   UNL     1       9.388   9.087   4.385  0.00  0.00    -0.187 NA
BRANCH  11  15
ATOM     13  C   UNL     1       9.808   8.116   7.077  0.00  0.00    +0.068 C 
ATOM     14  C   UNL     1      10.653   9.364   7.049  0.00  0.00    +0.069 A 
ATOM     15  C   UNL     1      10.806  10.236   5.949  0.00  0.00    +0.038 A 
ATOM     16  C   UNL     1      11.662  11.242   6.341  0.00  0.00    +0.045 A 
ATOM     17  N   UNL     1      12.007  11.001   7.622  0.00  0.00    -0.265 N 
ATOM     18  N   UNL     1      11.369   9.827   8.037  0.00  0.00    -0.175 NA
ATOM     19  C   UNL     1      12.123  12.401   5.495  0.00  0.00    +0.066 C 
BRANCH  17  20
ATOM     20  C   UNL     1      12.902  11.826   8.439  0.00  0.00    +0.101 C 
ATOM     21  C   UNL     1      12.148  12.329   9.672  0.00  0.00    +0.032 C 
ATOM     22  C   UNL     1      14.104  10.989   8.882  0.00  0.00    +0.032 C 
ENDBRANCH  17  20
ENDBRANCH  11  15
ENDBRANCH   1  12
BRANCH   5  23
ATOM     23  S   UNL     1       5.561   5.719   0.622  0.00  0.00    -0.075 S 
BRANCH  23  24
ATOM     24  C   UNL     1       4.890   4.253   1.452  0.00  0.00    +0.173 C 
BRANCH  24  25
ATOM     25  C   UNL     1       3.993   3.503   0.501  0.00  0.00    +0.224 C 
ATOM     26  O   UNL     1       3.822   3.918  -0.626  0.00  0.00    -0.275 OA
ATOM     27  N   UNL     1       3.379   2.373   0.903  0.00  0.00    -0.308 N 
ATOM     28  H   UNL     1       3.533   1.996   1.925  0.00  0.00    +0.149 HD
BRANCH  27  29
ATOM     29  C   UNL     1       2.507   1.644  -0.022  0.00  0.00    +0.103 C 
ATOM     30  C   UNL     1       2.446   0.176   0.394  0.00  0.00    +0.027 C 
ATOM     31  C   UNL     1       1.368  -0.520  -0.446  0.00  0.00    +0.007 C 
ATOM     32  C   UNL     1       0.002  -0.004   0.002  0.00  0.00    +0.035 C 
ATOM     33  C   UNL     1      -0.018   1.502   0.010  0.00  0.00    -0.042 A 
ATOM     34  C   UNL     1       1.132   2.259   0.003  0.00  0.00    -0.024 A 
ATOM     35  C   UNL     1       1.043   3.645   0.018  0.00  0.00    +0.006 A 
ATOM     36  C   UNL     1      -0.187   4.269   0.034  0.00  0.00    +0.000 A 
ATOM     37  C   UNL     1      -1.342   3.509   0.037  0.00  0.00    +0.000 A 
ATOM     38  C   UNL     1      -1.256   2.132   0.032  0.00  0.00    +0.004 A 
ENDBRANCH  27  29
ENDBRANCH  24  25
ENDBRANCH  23  24
ENDBRANCH   5  23
TORSDOF 8
