REMARK  Name = ZINC14539545
REMARK  11 active torsions:
REMARK  status: ('A' for Active; 'I' for Inactive)
REMARK    1  A    between atoms: C_1  and  C_2
REMARK    2  A    between atoms: C_2  and  C_3
REMARK    3  A    between atoms: C_2  and  C_4
REMARK    4  A    between atoms: C_4  and  C_5
REMARK    5  A    between atoms: C_5  and  N_6
REMARK    6  A    between atoms: N_9  and  C_28
REMARK    7  A    between atoms: C_17  and  C_18
REMARK    8  A    between atoms: C_17  and  N_65
REMARK    9  A    between atoms: C_21  and  N_24
REMARK   10  A    between atoms: C_25  and  C_27
REMARK   11  A    between atoms: C_28  and  C_29
REMARK                            x       y       z     vdW  Elec       q    Type
REMARK                         _______ _______ _______ _____ _____    ______ ____
ROOT
ATOM      1  N   UNL     1       1.600   9.994   2.875  0.00  0.00    -0.271 N 
ATOM      2  C   UNL     1       2.184  10.631   3.908  0.00  0.00    +0.312 C 
ATOM      3  O   UNL     1       3.329  11.039   3.891  0.00  0.00    -0.252 OA
ATOM      4  N   UNL     1       1.363  10.765   4.956  0.00  0.00    -0.215 N 
ATOM      5  C   UNL     1       0.151  10.225   4.710  0.00  0.00    +0.247 C 
ATOM      6  O   UNL     1      -0.802  10.188   5.458  0.00  0.00    -0.273 OA
ATOM      7  C   UNL     1       0.233   9.676   3.305  0.00  0.00    +0.112 C 
ATOM      8  C   UNL     1      -0.786  10.365   2.402  0.00  0.00    +0.017 C 
ATOM      9  C   UNL     1      -0.699   9.770   0.994  0.00  0.00    -0.076 C 
ATOM     10  C   UNL     1       0.071   7.644   1.869  0.00  0.00    -0.076 C 
ATOM     11  C   UNL     1       0.010   8.167   3.307  0.00  0.00    +0.017 C 
ATOM     12  N   UNL     1      -0.974   8.319   1.070  0.00  0.00    +0.382 N 
ATOM     13  H   UNL     1      -1.884   8.176   1.523  0.00  0.00    -0.081 HD
ENDROOT
BRANCH   1  14
ATOM     14  C   UNL     1       2.209   9.681   1.580  0.00  0.00    +0.110 C 
BRANCH  14  15
ATOM     15  C   UNL     1       3.335   8.664   1.778  0.00  0.00    +0.022 C 
BRANCH  15  17
ATOM     16  C   UNL     1       4.541   9.444  -0.266  0.00  0.00    +0.007 C 
ATOM     17  C   UNL     1       3.885   8.241   0.415  0.00  0.00    -0.016 C 
ATOM     18  C   UNL     1       4.924   7.134   0.606  0.00  0.00    +0.007 C 
ENDBRANCH  15  17
ENDBRANCH  14  15
ENDBRANCH   1  14
BRANCH  12  19
ATOM     19  C   UNL     1      -1.020   7.743  -0.290  0.00  0.00    -0.043 C 
BRANCH  19  20
ATOM     20  C   UNL     1      -1.028   6.239  -0.189  0.00  0.00    -0.064 A 
ATOM     21  C   UNL     1      -2.228   5.561  -0.082  0.00  0.00    +0.003 A 
ATOM     22  C   UNL     1      -2.239   4.183   0.011  0.00  0.00    +0.023 A 
ATOM     23  C   UNL     1      -1.042   3.478  -0.003  0.00  0.00    +0.033 A 
ATOM     24  C   UNL     1       0.162   4.163  -0.104  0.00  0.00    +0.023 A 
ATOM     25  C   UNL     1       0.165   5.540  -0.203  0.00  0.00    +0.003 A 
BRANCH  23  26
ATOM     26  N   UNL     1      -1.050   2.082   0.092  0.00  0.00    -0.286 N 
ATOM     27  C   UNL     1      -2.041   1.373  -0.484  0.00  0.00    +0.214 C 
ATOM     28  O   UNL     1      -2.969   1.948  -1.013  0.00  0.00    -0.276 OA
ATOM     29  C   UNL     1      -1.999  -0.133  -0.466  0.00  0.00    +0.109 C 
ATOM     30  H   UNL     1      -0.342   1.625   0.571  0.00  0.00    +0.155 HD
ENDBRANCH  23  26
ENDBRANCH  19  20
ENDBRANCH  12  19
BRANCH   4  31
ATOM     31  C   UNL     1       1.733  11.417   6.215  0.00  0.00    +0.213 C 
BRANCH  31  32
ATOM     32  C   UNL     1       1.409  12.887   6.133  0.00  0.00    +0.228 C 
ATOM     33  O   UNL     1       0.918  13.344   5.123  0.00  0.00    -0.274 OA
ATOM     34  N   UNL     1       1.666  13.693   7.183  0.00  0.00    -0.328 N 
ATOM     35  H   UNL     1       2.059  13.327   7.991  0.00  0.00    +0.145 HD
ATOM     36  H   UNL     1       1.458  14.639   7.130  0.00  0.00    +0.145 HD
ENDBRANCH  31  32
ENDBRANCH   4  31
TORSDOF 8
