REMARK  Name = ZINC40145978
REMARK  8 active torsions:
REMARK  status: ('A' for Active; 'I' for Inactive)
REMARK    1  A    between atoms: C_1  and  N_2
REMARK    2  A    between atoms: N_2  and  C_3
REMARK    3  A    between atoms: N_2  and  C_26
REMARK    4  A    between atoms: C_6  and  N_10
REMARK    5  A    between atoms: N_13  and  C_14
REMARK    6  A    between atoms: C_14  and  C_15
REMARK    7  A    between atoms: N_19  and  C_21
REMARK    8  A    between atoms: C_21  and  C_22
REMARK                            x       y       z     vdW  Elec       q    Type
REMARK                         _______ _______ _______ _____ _____    ______ ____
ROOT
ATOM      1  N   UNL     1       0.084  -2.815   4.814  0.00  0.00    -0.269 N 
ATOM      2  C   UNL     1      -0.958  -3.599   5.154  0.00  0.00    +0.304 C 
ATOM      3  O   UNL     1      -1.874  -3.765   4.372  0.00  0.00    -0.253 OA
ATOM      4  N   UNL     1      -0.986  -4.198   6.361  0.00  0.00    -0.299 N 
ATOM      5  H   UNL     1       0.850  -2.743   5.405  0.00  0.00    +0.156 HD
ATOM      6  H   UNL     1      -0.255  -4.065   6.985  0.00  0.00    +0.150 HD
ENDROOT
BRANCH   1  10
ATOM      7  C   UNL     1       0.015  -0.695   1.221  0.00  0.00    +0.065 A 
ATOM      8  C   UNL     1      -1.164  -0.918   1.919  0.00  0.00    +0.028 A 
ATOM      9  C   UNL     1      -1.141  -1.620   3.108  0.00  0.00    +0.025 A 
ATOM     10  C   UNL     1       0.062  -2.103   3.607  0.00  0.00    +0.038 A 
ATOM     11  C   UNL     1       1.242  -1.881   2.910  0.00  0.00    +0.063 A 
ATOM     12  C   UNL     1       1.219  -1.184   1.716  0.00  0.00    +0.146 A 
ATOM     13  F   UNL     1       2.366  -0.972   1.035  0.00  0.00    -0.203 F 
BRANCH   7  15
ATOM     14  C   UNL     1       0.156   1.473   0.020  0.00  0.00    +0.129 C 
ATOM     15  N   UNL     1      -0.009   0.017   0.015  0.00  0.00    -0.328 N 
BRANCH  15  16
ATOM     16  C   UNL     1      -0.199  -0.694  -1.252  0.00  0.00    +0.073 C 
ATOM     17  C   UNL     1       1.011  -0.456  -2.157  0.00  0.00    +0.022 C 
ATOM     18  C   UNL     1       0.812  -1.198  -3.480  0.00  0.00    +0.002 C 
ATOM     19  C   UNL     1      -0.451  -0.680  -4.171  0.00  0.00    +0.000 C 
ATOM     20  C   UNL     1      -1.661  -0.918  -3.266  0.00  0.00    +0.002 C 
ATOM     21  C   UNL     1      -1.462  -0.176  -1.943  0.00  0.00    +0.022 C 
ENDBRANCH  15  16
ENDBRANCH   7  15
ENDBRANCH   1  10
BRANCH   4  22
ATOM     22  C   UNL     1      -2.119  -5.050   6.730  0.00  0.00    +0.107 C 
BRANCH  22  23
ATOM     23  C   UNL     1      -1.903  -5.603   8.140  0.00  0.00    -0.012 C 
ATOM     24  C   UNL     1      -2.007  -4.470   9.195  0.00  0.00    -0.016 C 
ATOM     25  C   UNL     1      -2.440  -5.258  10.457  0.00  0.00    -0.078 C 
ATOM     26  N   UNL     1      -3.360  -6.300   9.955  0.00  0.00    +0.386 N 
ATOM     27  C   UNL     1      -3.050  -6.557   8.534  0.00  0.00    -0.074 C 
ATOM     28  H   UNL     1      -4.314  -5.983  10.044  0.00  0.00    -0.081 HD
BRANCH  26  29
ATOM     29  C   UNL     1      -3.177  -7.535  10.729  0.00  0.00    +0.036 C 
BRANCH  29  30
ATOM     30  C   UNL     1      -3.629  -7.305  12.172  0.00  0.00    +0.376 C 
ATOM     31  F   UNL     1      -4.980  -6.942  12.185  0.00  0.00    -0.173 F 
ATOM     32  F   UNL     1      -3.455  -8.481  12.909  0.00  0.00    -0.173 F 
ATOM     33  F   UNL     1      -2.865  -6.280  12.742  0.00  0.00    -0.173 F 
ENDBRANCH  29  30
ENDBRANCH  26  29
ENDBRANCH  22  23
ENDBRANCH   4  22
TORSDOF 7
