REMARK  Name = ZINC06720150
REMARK  8 active torsions:
REMARK  status: ('A' for Active; 'I' for Inactive)
REMARK    1  A    between atoms: C_1  and  O_2
REMARK    2  A    between atoms: O_2  and  C_3
REMARK    3  A    between atoms: C_7  and  C_9
REMARK    4  A    between atoms: C_10  and  C_22
REMARK    5  A    between atoms: C_12  and  C_15
REMARK    6  A    between atoms: C_18  and  O_21
REMARK    7  A    between atoms: C_26  and  O_28
REMARK    8  A    between atoms: O_28  and  C_29
REMARK                            x       y       z     vdW  Elec       q    Type
REMARK                         _______ _______ _______ _____ _____    ______ ____
ROOT
ATOM      1  C   UNL     1      -2.555  -4.145   0.016  0.00  0.00    +0.072 A 
ATOM      2  C   UNL     1      -3.375  -4.935   0.805  0.00  0.00    +0.072 A 
ATOM      3  N   UNL     1      -3.110  -6.228   0.479  0.00  0.00    -0.339 N 
ATOM      4  C   UNL     1      -2.170  -6.239  -0.465  0.00  0.00    +0.117 A 
ATOM      5  N   UNL     1      -1.825  -4.987  -0.762  0.00  0.00    -0.339 N 
ATOM      6  H   UNL     1      -1.164  -4.721  -1.421  0.00  0.00    +0.167 HD
ATOM      7  H   UNL     1      -3.533  -7.009   0.869  0.00  0.00    +0.167 HD
ENDROOT
BRANCH   1  12
ATOM      8  C   UNL     1      -1.200  -0.637   0.010  0.00  0.00    +0.121 A 
ATOM      9  C   UNL     1      -2.375   0.103   0.020  0.00  0.00    +0.045 A 
ATOM     10  C   UNL     1      -3.601  -0.536   0.028  0.00  0.00    +0.004 A 
ATOM     11  C   UNL     1      -3.665  -1.914   0.027  0.00  0.00    +0.010 A 
ATOM     12  C   UNL     1      -2.490  -2.667   0.017  0.00  0.00    +0.004 A 
ATOM     13  C   UNL     1      -1.254  -2.021   0.003  0.00  0.00    +0.055 A 
BRANCH   8  15
ATOM     14  C   UNL     1      -0.017   1.425   0.010  0.00  0.00    +0.277 C 
ATOM     15  O   UNL     1       0.002  -0.004   0.002  0.00  0.00    -0.495 OA
ENDBRANCH   8  15
ENDBRANCH   1  12
BRANCH   4  16
ATOM     16  C   UNL     1      -1.603  -7.452  -1.091  0.00  0.00    +0.016 A 
ATOM     17  C   UNL     1      -2.054  -8.716  -0.703  0.00  0.00    +0.015 A 
ATOM     18  C   UNL     1      -1.523  -9.844  -1.289  0.00  0.00    +0.046 A 
ATOM     19  C   UNL     1      -0.540  -9.726  -2.263  0.00  0.00    +0.117 A 
ATOM     20  C   UNL     1      -0.089  -8.471  -2.651  0.00  0.00    +0.046 A 
ATOM     21  C   UNL     1      -0.619  -7.338  -2.074  0.00  0.00    +0.015 A 
BRANCH  19  22
ATOM     22  O   UNL     1      -0.019 -10.841  -2.838  0.00  0.00    -0.507 OA
ATOM     23  H   UNL     1      -0.491 -11.133  -3.630  0.00  0.00    +0.292 HD
ENDBRANCH  19  22
ENDBRANCH   4  16
BRANCH   2  24
ATOM     24  C   UNL     1      -4.353  -4.462   1.809  0.00  0.00    +0.004 A 
ATOM     25  C   UNL     1      -4.001  -3.454   2.708  0.00  0.00    +0.010 A 
ATOM     26  C   UNL     1      -4.915  -3.015   3.644  0.00  0.00    +0.004 A 
ATOM     27  C   UNL     1      -6.180  -3.571   3.695  0.00  0.00    +0.045 A 
ATOM     28  C   UNL     1      -6.538  -4.575   2.805  0.00  0.00    +0.121 A 
ATOM     29  C   UNL     1      -5.631  -5.019   1.858  0.00  0.00    +0.055 A 
BRANCH  28  30
ATOM     30  O   UNL     1      -7.782  -5.119   2.861  0.00  0.00    -0.495 OA
ATOM     31  C   UNL     1      -8.669  -4.610   3.859  0.00  0.00    +0.277 C 
ENDBRANCH  28  30
ENDBRANCH   2  24
TORSDOF 6
