REMARK  Name = ZINC39694790
REMARK  6 active torsions:
REMARK  status: ('A' for Active; 'I' for Inactive)
REMARK    1  A    between atoms: C_1  and  C_2
REMARK    2  A    between atoms: C_4  and  C_33
REMARK    3  A    between atoms: C_6  and  C_8
REMARK    4  A    between atoms: C_8  and  N_9
REMARK    5  A    between atoms: C_10  and  C_12
REMARK    6  A    between atoms: C_23  and  C_25
REMARK                            x       y       z     vdW  Elec       q    Type
REMARK                         _______ _______ _______ _____ _____    ______ ____
ROOT
ATOM      1  C   UNL     1       3.529  -3.618   4.817  0.00  0.00    +0.100 C 
ATOM      2  C   UNL     1       4.017  -4.606   3.734  0.00  0.00    +0.121 C 
ATOM      3  N   UNL     1       4.790  -5.627   4.480  0.00  0.00    -0.296 N 
ATOM      4  C   UNL     1       4.015  -5.839   5.726  0.00  0.00    +0.115 C 
ATOM      5  C   UNL     1       3.528  -4.431   6.122  0.00  0.00    -0.004 C 
ATOM      6  C   UNL     1       4.485  -3.807   7.134  0.00  0.00    -0.010 C 
ATOM      7  C   UNL     1       4.424  -4.599   8.443  0.00  0.00    -0.082 C 
ATOM      8  N   UNL     1       3.051  -4.584   8.963  0.00  0.00    +0.379 N 
ATOM      9  C   UNL     1       2.152  -5.268   8.025  0.00  0.00    -0.082 C 
ATOM     10  C   UNL     1       2.118  -4.504   6.699  0.00  0.00    -0.010 C 
ATOM     11  C   UNL     1       5.939  -6.227   4.110  0.00  0.00    +0.248 C 
ATOM     12  O   UNL     1       6.405  -7.119   4.791  0.00  0.00    -0.270 OA
ATOM     13  H   UNL     1       3.026  -5.054   9.855  0.00  0.00    -0.086 HD
ATOM     14  H   UNL     1       2.748  -3.628   9.080  0.00  0.00    -0.086 HD
ENDROOT
BRANCH  11  15
ATOM     15  C   UNL     1       6.632  -5.800   2.877  0.00  0.00    +0.057 A 
ATOM     16  C   UNL     1       5.894  -5.401   1.760  0.00  0.00    +0.014 A 
ATOM     17  C   UNL     1       6.545  -5.003   0.612  0.00  0.00    +0.002 A 
ATOM     18  C   UNL     1       7.929  -4.999   0.563  0.00  0.00    +0.021 A 
ATOM     19  C   UNL     1       8.668  -5.393   1.664  0.00  0.00    +0.060 A 
ATOM     20  C   UNL     1       8.027  -5.788   2.824  0.00  0.00    +0.071 A 
ATOM     21 CL   UNL     1       8.955  -6.275   4.208  0.00  0.00    -0.081 Cl
ATOM     22 CL   UNL     1      10.402  -5.384   1.591  0.00  0.00    -0.082 Cl
ENDBRANCH  11  15
BRANCH   1  24
ATOM     23  N   UNL     1       1.737  -1.915   4.904  0.00  0.00    -0.311 N 
ATOM     24  C   UNL     1       2.137  -3.136   4.498  0.00  0.00    +0.218 C 
ATOM     25  O   UNL     1       1.377  -3.847   3.875  0.00  0.00    -0.275 OA
ATOM     26  H   UNL     1       2.344  -1.346   5.402  0.00  0.00    +0.149 HD
BRANCH  23  27
ATOM     27  C   UNL     1       0.384  -1.447   4.594  0.00  0.00    +0.139 C 
BRANCH  27  33
ATOM     28  C   UNL     1      -1.009   1.549   8.353  0.00  0.00    +0.044 C 
ATOM     29  C   UNL     1      -0.477   1.371   6.954  0.00  0.00    -0.050 A 
ATOM     30  C   UNL     1      -0.167   2.478   6.187  0.00  0.00    +0.006 A 
ATOM     31  C   UNL     1       0.322   2.315   4.904  0.00  0.00    -0.050 A 
ATOM     32  C   UNL     1       0.499   1.045   4.388  0.00  0.00    +0.008 A 
ATOM     33  C   UNL     1       0.190  -0.062   5.156  0.00  0.00    -0.030 A 
ATOM     34  C   UNL     1      -0.294   0.101   6.441  0.00  0.00    +0.008 A 
ATOM     35  C   UNL     1       0.659   3.522   4.067  0.00  0.00    +0.044 C 
ENDBRANCH  27  33
ENDBRANCH  23  27
ENDBRANCH   1  24
TORSDOF 4
