REMARK  Name = ZINC44699930
REMARK  14 active torsions:
REMARK  status: ('A' for Active; 'I' for Inactive)
REMARK    1  A    between atoms: C_1  and  C_2
REMARK    2  A    between atoms: C_2  and  C_3
REMARK    3  A    between atoms: C_3  and  N_4
REMARK    4  A    between atoms: C_5  and  C_7
REMARK    5  A    between atoms: C_7  and  C_8
REMARK    6  A    between atoms: C_8  and  C_9
REMARK    7  A    between atoms: C_9  and  C_10
REMARK    8  A    between atoms: C_14  and  C_39
REMARK    9  A    between atoms: C_15  and  C_38
REMARK   10  A    between atoms: C_16  and  O_37
REMARK   11  A    between atoms: C_23  and  O_36
REMARK   12  A    between atoms: C_26  and  C_35
REMARK   13  A    between atoms: C_27  and  C_34
REMARK   14  A    between atoms: C_30  and  O_33
REMARK                            x       y       z     vdW  Elec       q    Type
REMARK                         _______ _______ _______ _____ _____    ______ ____
ROOT
ATOM      1  C   UNL     1      -5.314  -7.003  -0.010  0.00  0.00    -0.002 C 
ATOM      2  C   UNL     1      -5.903  -7.032   1.416  0.00  0.00    +0.005 C 
ATOM      3  C   UNL     1      -6.299  -8.495   1.700  0.00  0.00    +0.008 C 
ATOM      4  C   UNL     1      -6.378  -9.173   0.305  0.00  0.00    -0.019 C 
ATOM      5  C   UNL     1      -5.225  -8.474  -0.439  0.00  0.00    +0.002 C 
ATOM      6  C   UNL     1      -5.248  -8.665  -1.932  0.00  0.00    +0.122 C 
ATOM      7  C   UNL     1      -6.630  -8.365  -2.514  0.00  0.00    +0.036 C 
ATOM      8  C   UNL     1      -7.662  -9.268  -1.847  0.00  0.00    +0.004 C 
ATOM      9  C   UNL     1      -7.733  -8.979  -0.348  0.00  0.00    +0.028 C 
ATOM     10  C   UNL     1      -8.402  -7.640  -0.101  0.00  0.00    +0.119 C 
ATOM     11  C   UNL     1      -9.818  -7.665  -0.691  0.00  0.00    +0.039 C 
ATOM     12  C   UNL     1      -9.801  -7.925  -2.197  0.00  0.00    -0.022 C 
ATOM     13  C   UNL     1      -9.017  -9.179  -2.534  0.00  0.00    -0.023 C 
ATOM     14  C   UNL     1      -8.875  -9.363  -4.043  0.00  0.00    +0.010 C 
ATOM     15  C   UNL     1      -8.484  -8.132  -4.826  0.00  0.00    +0.032 C 
ATOM     16  C   UNL     1      -9.199  -6.859  -4.412  0.00  0.00    +0.115 C 
ATOM     17  C   UNL     1      -9.273  -6.688  -2.907  0.00  0.00    +0.038 C 
ATOM     18  C   UNL     1      -9.858 -10.389  -2.043  0.00  0.00    +0.012 C 
ATOM     19  C   UNL     1     -11.272  -8.150  -2.614  0.00  0.00    +0.012 C 
ATOM     20  C   UNL     1      -3.898  -9.043   0.089  0.00  0.00    +0.014 C 
ATOM     21  C   UNL     1      -6.072 -10.686   0.456  0.00  0.00    +0.012 C 
ENDROOT
BRANCH  16  22
ATOM     22  O   UNL     1     -10.492  -6.790  -5.014  0.00  0.00    -0.392 OA
ATOM     23  H   UNL     1     -10.476  -6.795  -5.981  0.00  0.00    +0.210 HD
ENDBRANCH  16  22
BRANCH  10  24
ATOM     24  O   UNL     1      -8.583  -7.398   1.301  0.00  0.00    -0.391 OA
ATOM     25  H   UNL     1      -9.007  -6.553   1.503  0.00  0.00    +0.210 HD
ENDBRANCH  10  24
BRANCH   6  26
ATOM     26  O   UNL     1      -4.869 -10.000  -2.266  0.00  0.00    -0.391 OA
ATOM     27  H   UNL     1      -4.866 -10.182  -3.216  0.00  0.00    +0.210 HD
ENDBRANCH   6  26
BRANCH   1  28
ATOM     28  C   UNL     1      -3.918  -6.375   0.015  0.00  0.00    +0.004 C 
BRANCH  28  29
ATOM     29  C   UNL     1      -4.033  -4.890   0.363  0.00  0.00    +0.009 C 
BRANCH  29  30
ATOM     30  C   UNL     1      -2.638  -4.262   0.388  0.00  0.00    +0.096 C 
BRANCH  30  32
ATOM     31  N   UNL     1      -1.642  -2.038   0.811  0.00  0.00    -0.315 N 
ATOM     32  C   UNL     1      -2.751  -2.799   0.732  0.00  0.00    +0.213 C 
ATOM     33  O   UNL     1      -3.840  -2.307   0.936  0.00  0.00    -0.276 OA
ATOM     34  H   UNL     1      -0.770  -2.432   0.647  0.00  0.00    +0.149 HD
BRANCH  31  35
ATOM     35  C   UNL     1      -1.752  -0.616   1.145  0.00  0.00    +0.104 C 
BRANCH  35  37
ATOM     36  C   UNL     1      -0.471   1.497   1.518  0.00  0.00    +0.005 C 
ATOM     37  C   UNL     1      -0.357   0.012   1.169  0.00  0.00    +0.015 C 
ENDBRANCH  35  37
ENDBRANCH  31  35
ENDBRANCH  30  32
ENDBRANCH  29  30
ENDBRANCH  28  29
ENDBRANCH   1  28
TORSDOF 9
