REMARK  Name = ZINC25533442
REMARK  9 active torsions:
REMARK  status: ('A' for Active; 'I' for Inactive)
REMARK    1  A    between atoms: C_1  and  C_2
REMARK    2  A    between atoms: C_4  and  N_24
REMARK    3  A    between atoms: C_6  and  C_7
REMARK    4  A    between atoms: N_9  and  N_10
REMARK    5  A    between atoms: C_11  and  C_13
REMARK    6  A    between atoms: C_25  and  C_27
REMARK    7  A    between atoms: C_27  and  C_28
REMARK    8  A    between atoms: C_27  and  C_29
REMARK    9  A    between atoms: C_27  and  C_30
REMARK                            x       y       z     vdW  Elec       q    Type
REMARK                         _______ _______ _______ _____ _____    ______ ____
ROOT
ATOM      1  C   UNL     1      -7.188   1.892  -0.209  0.00  0.00    +0.267 C 
ATOM      2  O   UNL     1      -7.299   0.845  -0.821  0.00  0.00    -0.268 OA
ATOM      3  N   UNL     1      -5.965   2.358   0.111  0.00  0.00    -0.230 N 
ATOM      4  H   UNL     1      -5.864   3.304   0.664  0.00  0.00    +0.173 HD
ENDROOT
BRANCH   1  10
ATOM      5  C   UNL     1     -10.119   1.090  -0.793  0.00  0.00    +0.045 C 
ATOM      6  C   UNL     1      -9.715   2.338  -0.051  0.00  0.00    -0.029 A 
ATOM      7  C   UNL     1     -10.650   3.218   0.424  0.00  0.00    +0.035 A 
ATOM      8  C   UNL     1     -10.222   4.343   1.095  0.00  0.00    +0.073 A 
ATOM      9  S   UNL     1      -8.496   4.179   1.077  0.00  0.00    -0.069 S 
ATOM     10  C   UNL     1      -8.381   2.642   0.179  0.00  0.00    +0.080 A 
BRANCH   8  11
ATOM     11  N   UNL     1     -10.987   5.359   1.655  0.00  0.00    -0.280 N 
ATOM     12  C   UNL     1     -10.385   6.390   2.279  0.00  0.00    +0.223 C 
ATOM     13  O   UNL     1      -9.175   6.432   2.352  0.00  0.00    -0.275 OA
ATOM     14  H   UNL     1     -12.084   5.321   1.589  0.00  0.00    +0.155 HD
BRANCH  12  15
ATOM     15  C   UNL     1     -11.214   7.492   2.887  0.00  0.00    +0.039 C 
ATOM     16  C   UNL     1     -10.292   8.531   3.528  0.00  0.00    +0.020 C 
ATOM     17  C   UNL     1     -12.053   8.159   1.795  0.00  0.00    +0.020 C 
ATOM     18  C   UNL     1     -12.140   6.904   3.953  0.00  0.00    +0.020 C 
ENDBRANCH  12  15
ENDBRANCH   8  11
ENDBRANCH   1  10
BRANCH   3  19
ATOM     19  N   UNL     1      -4.821   1.639  -0.261  0.00  0.00    -0.231 N 
ATOM     20  C   UNL     1      -3.598   2.106   0.059  0.00  0.00    +0.273 C 
ATOM     21  O   UNL     1      -3.487   3.148   0.669  0.00  0.00    -0.270 OA
ATOM     22  H   UNL     1      -4.922   0.694  -0.814  0.00  0.00    +0.173 HD
BRANCH  20  23
ATOM     23  C   UNL     1      -2.368   1.333  -0.341  0.00  0.00    +0.297 C 
ATOM     24  C   UNL     1      -2.343  -0.015   0.393  0.00  0.00    +0.283 C 
ATOM     25  O   UNL     1      -1.158  -0.716   0.002  0.00  0.00    -0.484 OA
ATOM     26  C   UNL     1       0.002  -0.004   0.002  0.00  0.00    +0.162 A 
ATOM     27  C   UNL     1       1.215  -0.677  -0.009  0.00  0.00    +0.049 A 
ATOM     28  C   UNL     1       2.401   0.032  -0.015  0.00  0.00    +0.004 A 
ATOM     29  C   UNL     1       2.382   1.414  -0.011  0.00  0.00    +0.004 A 
ATOM     30  C   UNL     1       1.177   2.091   0.002  0.00  0.00    +0.049 A 
ATOM     31  C   UNL     1      -0.017   1.385   0.010  0.00  0.00    +0.163 A 
ATOM     32  O   UNL     1      -1.195   2.066   0.030  0.00  0.00    -0.472 OA
ENDBRANCH  20  23
ENDBRANCH   3  19
TORSDOF 5
