REMARK  Name = ZINC40920946
REMARK  9 active torsions:
REMARK  status: ('A' for Active; 'I' for Inactive)
REMARK    1  A    between atoms: C_1  and  C_2
REMARK    2  A    between atoms: C_2  and  O_3
REMARK    3  A    between atoms: O_3  and  C_4
REMARK    4  A    between atoms: C_6  and  C_19
REMARK    5  A    between atoms: C_9  and  O_10
REMARK    6  A    between atoms: O_10  and  C_11
REMARK    7  A    between atoms: C_11  and  C_12
REMARK    8  A    between atoms: C_21  and  C_30
REMARK    9  A    between atoms: C_22  and  C_29
REMARK                            x       y       z     vdW  Elec       q    Type
REMARK                         _______ _______ _______ _____ _____    ______ ____
ROOT
ATOM      1  C   UNL     1       1.275  -1.933  -1.346  0.00  0.00    +0.162 A 
ATOM      2  C   UNL     1       0.565  -2.721  -0.453  0.00  0.00    +0.055 A 
ATOM      3  C   UNL     1       0.605  -4.098  -0.564  0.00  0.00    -0.015 A 
ATOM      4  C   UNL     1       1.352  -4.693  -1.563  0.00  0.00    +0.010 A 
ATOM      5  C   UNL     1       2.062  -3.914  -2.457  0.00  0.00    +0.050 A 
ATOM      6  C   UNL     1       2.022  -2.532  -2.355  0.00  0.00    +0.162 A 
ENDROOT
BRANCH   3   7
ATOM      7  C   UNL     1      -0.168  -4.953   0.408  0.00  0.00    +0.179 C 
ATOM      8  C   UNL     1      -1.167  -5.791  -0.345  0.00  0.00    +0.060 C 
ATOM      9  C   UNL     1      -1.033  -7.114  -0.516  0.00  0.00    +0.018 C 
ATOM     10  N   UNL     1       0.031  -7.816  -0.004  0.00  0.00    -0.286 N 
ATOM     11  C   UNL     1       0.838  -7.166   0.919  0.00  0.00    +0.240 A 
ATOM     12  N   UNL     1       0.753  -5.826   1.126  0.00  0.00    -0.201 N 
ATOM     13  N   UNL     1       1.694  -5.539   2.113  0.00  0.00    -0.042 NA
ATOM     14  N   UNL     1       2.260  -6.662   2.418  0.00  0.00    -0.021 NA
ATOM     15  N   UNL     1       1.761  -7.622   1.717  0.00  0.00    -0.092 NA
ATOM     16  C   UNL     1      -2.086  -7.857  -1.297  0.00  0.00    +0.061 C 
ATOM     17  H   UNL     1       0.211  -8.729  -0.276  0.00  0.00    +0.155 HD
BRANCH   8  18
ATOM     18  C   UNL     1      -2.303  -5.152  -0.897  0.00  0.00    +0.241 C 
ATOM     19  O   UNL     1      -3.211  -4.790  -0.172  0.00  0.00    -0.271 OA
ATOM     20  N   UNL     1      -2.378  -4.943  -2.227  0.00  0.00    -0.325 N 
ATOM     21  H   UNL     1      -1.655  -5.232  -2.805  0.00  0.00    +0.145 HD
ATOM     22  H   UNL     1      -3.156  -4.505  -2.606  0.00  0.00    +0.145 HD
ENDBRANCH   8  18
ENDBRANCH   3   7
BRANCH   1  23
ATOM     23  O   UNL     1       1.236  -0.578  -1.239  0.00  0.00    -0.489 OA
BRANCH  23  25
ATOM     24  C   UNL     1       0.527   1.494  -0.218  0.00  0.00    +0.048 C 
ATOM     25  C   UNL     1       0.449  -0.033  -0.178  0.00  0.00    +0.226 C 
ENDBRANCH  23  25
ENDBRANCH   1  23
BRANCH   6  26
ATOM     26  O   UNL     1       2.716  -1.764  -3.237  0.00  0.00    -0.484 OA
BRANCH  26  27
ATOM     27  C   UNL     1       3.461  -2.447  -4.247  0.00  0.00    +0.264 C 
BRANCH  27  28
ATOM     28  C   UNL     1       4.159  -1.440  -5.124  0.00  0.00    -0.010 A 
ATOM     29  C   UNL     1       3.523  -0.943  -6.247  0.00  0.00    +0.008 A 
ATOM     30  C   UNL     1       4.163  -0.019  -7.052  0.00  0.00    +0.015 A 
ATOM     31  C   UNL     1       5.439   0.409  -6.733  0.00  0.00    +0.018 A 
ATOM     32  C   UNL     1       6.074  -0.088  -5.610  0.00  0.00    +0.015 A 
ATOM     33  C   UNL     1       5.432  -1.008  -4.803  0.00  0.00    +0.008 A 
ATOM     34 BR   UNL     1       6.314   1.673  -7.834  0.00  0.00    -0.050 Br
ENDBRANCH  27  28
ENDBRANCH  26  27
ENDBRANCH   6  26
TORSDOF 7
