REMARK  Name = ZINC25401427
REMARK  9 active torsions:
REMARK  status: ('A' for Active; 'I' for Inactive)
REMARK    1  A    between atoms: C_1  and  C_2
REMARK    2  A    between atoms: C_10  and  C_11
REMARK    3  A    between atoms: N_13  and  N_14
REMARK    4  A    between atoms: C_15  and  C_17
REMARK    5  A    between atoms: C_17  and  C_18
REMARK    6  A    between atoms: C_19  and  C_30
REMARK    7  A    between atoms: C_23  and  S_28
REMARK    8  A    between atoms: C_26  and  C_27
REMARK    9  A    between atoms: S_28  and  C_29
REMARK                            x       y       z     vdW  Elec       q    Type
REMARK                         _______ _______ _______ _____ _____    ______ ____
ROOT
ATOM      1  N   UNL     1       4.744   6.040  -1.679  0.00  0.00    -0.234 N 
ATOM      2  C   UNL     1       4.150   4.855  -1.433  0.00  0.00    +0.234 C 
ATOM      3  O   UNL     1       3.786   4.157  -2.355  0.00  0.00    -0.274 OA
ATOM      4  H   UNL     1       5.074   6.673  -0.842  0.00  0.00    +0.173 HD
ENDROOT
BRANCH   1   7
ATOM      5  C   UNL     1       5.537   7.648  -3.245  0.00  0.00    +0.296 C 
ATOM      6  O   UNL     1       5.902   8.349  -2.320  0.00  0.00    -0.265 OA
ATOM      7  N   UNL     1       4.942   6.463  -2.999  0.00  0.00    -0.228 N 
ATOM      8  H   UNL     1       4.612   5.830  -3.836  0.00  0.00    +0.173 HD
BRANCH   5  18
ATOM      9  C   UNL     1       6.867  10.332  -4.081  0.00  0.00    +0.048 C 
ATOM     10  C   UNL     1       6.325   9.264  -4.996  0.00  0.00    +0.008 A 
ATOM     11  C   UNL     1       6.321   9.279  -6.459  0.00  0.00    +0.024 A 
ATOM     12  C   UNL     1       6.767  10.185  -7.424  0.00  0.00    +0.012 A 
ATOM     13  C   UNL     1       6.605   9.896  -8.750  0.00  0.00    +0.001 A 
ATOM     14  C   UNL     1       6.001   8.709  -9.142  0.00  0.00    +0.004 A 
ATOM     15  C   UNL     1       5.554   7.802  -8.205  0.00  0.00    +0.047 A 
ATOM     16  C   UNL     1       5.708   8.075  -6.851  0.00  0.00    +0.136 A 
ATOM     17  O   UNL     1       5.381   7.401  -5.731  0.00  0.00    -0.450 OA
ATOM     18  C   UNL     1       5.745   8.093  -4.630  0.00  0.00    +0.195 A 
ENDBRANCH   5  18
ENDBRANCH   1   7
BRANCH   2  19
ATOM     19  C   UNL     1       3.937   4.399  -0.013  0.00  0.00    +0.136 C 
BRANCH  19  20
ATOM     20  C   UNL     1       3.258   3.054  -0.013  0.00  0.00    +0.004 A 
ATOM     21  C   UNL     1       4.017   1.878  -0.027  0.00  0.00    +0.047 A 
ATOM     22  N   UNL     1       3.423   0.706  -0.027  0.00  0.00    -0.216 NA
ATOM     23  C   UNL     1       2.088   0.612  -0.015  0.00  0.00    +0.254 A 
ATOM     24  N   UNL     1       1.263  -0.430  -0.012  0.00  0.00    -0.183 NA
ATOM     25  C   UNL     1       0.002  -0.004   0.002  0.00  0.00    +0.211 A 
ATOM     26  N   UNL     1      -0.016   1.314   0.009  0.00  0.00    -0.137 NA
ATOM     27  N   UNL     1       1.318   1.742  -0.001  0.00  0.00    -0.200 N 
ATOM     28  C   UNL     1       1.902   2.968  -0.001  0.00  0.00    +0.049 A 
ATOM     29  C   UNL     1       1.058   4.216   0.014  0.00  0.00    +0.066 C 
ATOM     30  C   UNL     1       5.522   1.956  -0.041  0.00  0.00    +0.066 C 
BRANCH  25  31
ATOM     31  S   UNL     1      -1.422  -1.041   0.009  0.00  0.00    -0.088 S 
ATOM     32  C   UNL     1      -0.741  -2.723  -0.006  0.00  0.00    +0.093 C 
ENDBRANCH  25  31
ENDBRANCH  19  20
ENDBRANCH   2  19
TORSDOF 5
