REMARK  Name = ZINC22804639
REMARK  9 active torsions:
REMARK  status: ('A' for Active; 'I' for Inactive)
REMARK    1  A    between atoms: C_1  and  C_2
REMARK    2  A    between atoms: C_2  and  C_25
REMARK    3  A    between atoms: N_5  and  C_9
REMARK    4  A    between atoms: C_9  and  N_10
REMARK    5  A    between atoms: N_13  and  C_16
REMARK    6  A    between atoms: C_16  and  C_17
REMARK    7  A    between atoms: C_18  and  C_19
REMARK    8  A    between atoms: C_30  and  O_35
REMARK    9  A    between atoms: O_35  and  C_36
REMARK                            x       y       z     vdW  Elec       q    Type
REMARK                         _______ _______ _______ _____ _____    ______ ____
ROOT
ATOM      1  C   UNL     1       0.129  -4.917  -0.941  0.00  0.00    +0.047 C 
ATOM      2  C   UNL     1      -1.194  -4.149  -0.963  0.00  0.00    +0.135 C 
ATOM      3  C   UNL     1      -1.175  -3.025   0.054  0.00  0.00    +0.252 C 
ATOM      4  O   UNL     1      -1.053  -3.127   1.256  0.00  0.00    -0.272 OA
ATOM      5  N   UNL     1      -1.323  -1.889  -0.655  0.00  0.00    -0.210 N 
ATOM      6  C   UNL     1      -1.436  -2.136  -1.965  0.00  0.00    +0.311 C 
ATOM      7  O   UNL     1      -1.583  -1.271  -2.806  0.00  0.00    -0.252 OA
ATOM      8  N   UNL     1      -1.367  -3.449  -2.248  0.00  0.00    -0.281 N 
ATOM      9  H   UNL     1      -1.413  -4.024  -3.185  0.00  0.00    +0.152 HD
ENDROOT
BRANCH   2  10
ATOM     10  C   UNL     1      -2.350  -5.080  -0.703  0.00  0.00    -0.015 A 
ATOM     11  C   UNL     1      -2.814  -5.251   0.600  0.00  0.00    +0.007 A 
ATOM     12  C   UNL     1      -3.857  -6.083   0.869  0.00  0.00    +0.009 A 
ATOM     13  C   UNL     1      -4.476  -6.783  -0.181  0.00  0.00    -0.014 A 
ATOM     14  C   UNL     1      -5.555  -7.651   0.059  0.00  0.00    +0.054 A 
ATOM     15  C   UNL     1      -6.133  -8.314  -0.986  0.00  0.00    +0.121 A 
ATOM     16  C   UNL     1      -5.665  -8.141  -2.292  0.00  0.00    +0.046 A 
ATOM     17  C   UNL     1      -4.623  -7.309  -2.557  0.00  0.00    +0.012 A 
ATOM     18  C   UNL     1      -4.004  -6.610  -1.506  0.00  0.00    -0.017 A 
ATOM     19  C   UNL     1      -2.929  -5.737  -1.745  0.00  0.00    +0.014 A 
BRANCH  15  20
ATOM     20  O   UNL     1      -7.176  -9.153  -0.752  0.00  0.00    -0.495 OA
ATOM     21  C   UNL     1      -7.739  -9.819  -1.885  0.00  0.00    +0.277 C 
ENDBRANCH  15  20
ENDBRANCH   2  10
BRANCH   5  22
ATOM     22  C   UNL     1      -1.361  -0.549  -0.064  0.00  0.00    +0.205 C 
BRANCH  22  23
ATOM     23  N   UNL     1       0.002  -0.004   0.002  0.00  0.00    -0.290 NA
ATOM     24  C   UNL     1      -0.018   1.465   0.010  0.00  0.00    +0.067 C 
ATOM     25  C   UNL     1       1.419   1.992  -0.001  0.00  0.00    -0.063 C 
ATOM     26  N   UNL     1       2.138   1.472   1.171  0.00  0.00    +0.384 N 
ATOM     27  C   UNL     1       2.158   0.003   1.162  0.00  0.00    -0.063 C 
ATOM     28  C   UNL     1       0.721  -0.525   1.173  0.00  0.00    +0.067 C 
ATOM     29  H   UNL     1       1.600   1.799   2.072  0.00  0.00    -0.081 HD
BRANCH  26  30
ATOM     30  C   UNL     1       3.501   2.017   1.237  0.00  0.00    -0.051 C 
BRANCH  30  31
ATOM     31  C   UNL     1       3.459   3.504   0.997  0.00  0.00    -0.045 C 
ATOM     32  C   UNL     1       3.992   4.333   1.883  0.00  0.00    +0.002 C 
BRANCH  32  33
ATOM     33  C   UNL     1       3.952   5.792   1.648  0.00  0.00    -0.025 A 
ATOM     34  C   UNL     1       3.358   6.299   0.491  0.00  0.00    +0.008 A 
ATOM     35  C   UNL     1       3.319   7.662   0.281  0.00  0.00    +0.001 A 
ATOM     36  C   UNL     1       3.876   8.524   1.207  0.00  0.00    +0.000 A 
ATOM     37  C   UNL     1       4.471   8.028   2.354  0.00  0.00    +0.001 A 
ATOM     38  C   UNL     1       4.512   6.667   2.579  0.00  0.00    +0.008 A 
ENDBRANCH  32  33
ENDBRANCH  30  31
ENDBRANCH  26  30
ENDBRANCH  22  23
ENDBRANCH   5  22
TORSDOF 7
