REMARK  Name = ZINC23584076
REMARK  7 active torsions:
REMARK  status: ('A' for Active; 'I' for Inactive)
REMARK    1  A    between atoms: C_1  and  C_2
REMARK    2  A    between atoms: C_7  and  N_8
REMARK    3  A    between atoms: C_18  and  S_19
REMARK    4  A    between atoms: S_19  and  C_20
REMARK    5  A    between atoms: C_20  and  C_21
REMARK    6  A    between atoms: N_23  and  N_24
REMARK    7  A    between atoms: C_25  and  C_27
REMARK                            x       y       z     vdW  Elec       q    Type
REMARK                         _______ _______ _______ _____ _____    ______ ____
ROOT
ATOM      1  N   UNL     1       0.081  -2.769  -0.019  0.00  0.00    -0.239 N 
ATOM      2  C   UNL     1       1.278  -2.166  -0.201  0.00  0.00    +0.268 A 
ATOM      3  O   UNL     1       2.293  -2.815  -0.371  0.00  0.00    -0.267 OA
ATOM      4  C   UNL     1       1.307  -0.697  -0.187  0.00  0.00    +0.065 A 
ATOM      5  C   UNL     1       2.491   0.018  -0.366  0.00  0.00    +0.015 A 
ATOM      6  C   UNL     1       2.462   1.385  -0.343  0.00  0.00    +0.001 A 
ATOM      7  C   UNL     1       1.269   2.067  -0.146  0.00  0.00    +0.002 A 
ATOM      8  C   UNL     1       0.094   1.392   0.033  0.00  0.00    +0.028 A 
ATOM      9  C   UNL     1       0.091  -0.006   0.016  0.00  0.00    +0.079 A 
ATOM     10  N   UNL     1      -1.050  -0.715   0.188  0.00  0.00    -0.223 NA
ATOM     11  C   UNL     1      -1.052  -2.025   0.172  0.00  0.00    +0.178 A 
ENDROOT
BRANCH   1  18
ATOM     12  C   UNL     1      -0.261  -4.077  -2.524  0.00  0.00    +0.047 C 
ATOM     13  C   UNL     1      -0.167  -4.839  -1.227  0.00  0.00    -0.007 A 
ATOM     14  C   UNL     1      -0.246  -6.221  -1.219  0.00  0.00    +0.008 A 
ATOM     15  C   UNL     1      -0.154  -6.881  -0.002  0.00  0.00    +0.020 A 
ATOM     16  C   UNL     1       0.012  -6.146   1.156  0.00  0.00    +0.113 A 
ATOM     17  N   UNL     1       0.089  -4.830   1.116  0.00  0.00    -0.237 NA
ATOM     18  C   UNL     1      -0.000  -4.164  -0.024  0.00  0.00    +0.145 A 
ENDBRANCH   1  18
BRANCH  11  19
ATOM     19  S   UNL     1      -2.582  -2.866   0.404  0.00  0.00    -0.078 S 
BRANCH  19  20
ATOM     20  C   UNL     1      -3.693  -1.450   0.599  0.00  0.00    +0.174 C 
BRANCH  20  21
ATOM     21  C   UNL     1      -5.100  -1.942   0.817  0.00  0.00    +0.239 C 
ATOM     22  O   UNL     1      -5.330  -3.133   0.839  0.00  0.00    -0.273 OA
ATOM     23  N   UNL     1      -6.104  -1.059   0.989  0.00  0.00    -0.233 N 
ATOM     24  H   UNL     1      -5.896   0.021   0.969  0.00  0.00    +0.173 HD
BRANCH  23  25
ATOM     25  N   UNL     1      -7.413  -1.517   1.191  0.00  0.00    -0.228 N 
ATOM     26  C   UNL     1      -8.416  -0.633   1.362  0.00  0.00    +0.295 C 
ATOM     27  O   UNL     1      -8.186   0.561   1.341  0.00  0.00    -0.265 OA
ATOM     28  H   UNL     1      -7.621  -2.596   1.210  0.00  0.00    +0.173 HD
BRANCH  26  29
ATOM     29  C   UNL     1      -9.786  -1.112   1.574  0.00  0.00    +0.190 A 
ATOM     30  C   UNL     1     -10.890  -0.330   1.760  0.00  0.00    +0.054 A 
ATOM     31  C   UNL     1     -11.979  -1.201   1.921  0.00  0.00    +0.042 A 
ATOM     32  C   UNL     1     -11.498  -2.460   1.828  0.00  0.00    +0.196 A 
ATOM     33  O   UNL     1     -10.178  -2.403   1.614  0.00  0.00    -0.458 OA
ENDBRANCH  26  29
ENDBRANCH  23  25
ENDBRANCH  20  21
ENDBRANCH  19  20
ENDBRANCH  11  19
TORSDOF 6
