REMARK  Name = ZINC08682947
REMARK  9 active torsions:
REMARK  status: ('A' for Active; 'I' for Inactive)
REMARK    1  A    between atoms: C_7  and  C_11
REMARK    2  A    between atoms: C_11  and  C_12
REMARK    3  A    between atoms: C_12  and  N_13
REMARK    4  A    between atoms: C_14  and  C_16
REMARK    5  A    between atoms: C_16  and  C_17
REMARK    6  A    between atoms: C_17  and  C_18
REMARK    7  A    between atoms: C_18  and  C_19
REMARK    8  A    between atoms: C_19  and  C_20
REMARK    9  A    between atoms: C_20  and  N_21
REMARK                            x       y       z     vdW  Elec       q    Type
REMARK                         _______ _______ _______ _____ _____    ______ ____
ROOT
ATOM      1  C   UNL     1      -2.553  -6.689  -4.043  0.00  0.00    +0.009 C 
ENDROOT
BRANCH   1   2
ATOM      2  C   UNL     1      -2.123  -6.375  -2.609  0.00  0.00    +0.096 C 
BRANCH   2   4
ATOM      3  N   UNL     1      -0.675  -4.736  -1.452  0.00  0.00    -0.315 N 
ATOM      4  C   UNL     1      -1.186  -5.195  -2.612  0.00  0.00    +0.213 C 
ATOM      5  O   UNL     1      -0.891  -4.657  -3.659  0.00  0.00    -0.276 OA
ATOM      6  H   UNL     1      -0.911  -5.166  -0.615  0.00  0.00    +0.149 HD
BRANCH   3   7
ATOM      7  C   UNL     1       0.236  -3.589  -1.455  0.00  0.00    +0.109 C 
BRANCH   7   8
ATOM      8  C   UNL     1       0.666  -3.275  -0.021  0.00  0.00    +0.056 C 
BRANCH   8  15
ATOM      9  C   UNL     1      -0.017   1.362   0.009  0.00  0.00    +0.001 A 
ATOM     10  C   UNL     1       1.170   2.083   0.002  0.00  0.00    +0.002 A 
ATOM     11  C   UNL     1       2.386   1.436  -0.013  0.00  0.00    +0.026 A 
ATOM     12  C   UNL     1       2.428   0.046  -0.021  0.00  0.00    +0.047 A 
ATOM     13  C   UNL     1       1.223  -0.681  -0.013  0.00  0.00    +0.003 A 
ATOM     14  C   UNL     1       0.002  -0.004   0.002  0.00  0.00    +0.010 A 
ATOM     15  C   UNL     1       1.604  -2.095  -0.025  0.00  0.00    -0.021 A 
ATOM     16  C   UNL     1       2.945  -2.141  -0.038  0.00  0.00    +0.087 A 
ATOM     17  N   UNL     1       3.455  -0.871  -0.036  0.00  0.00    -0.360 N 
ATOM     18  H   UNL     1       4.399  -0.650  -0.044  0.00  0.00    +0.165 HD
ENDBRANCH   8  15
ENDBRANCH   7   8
ENDBRANCH   3   7
ENDBRANCH   2   4
ENDBRANCH   1   2
BRANCH   1  19
ATOM     19  C   UNL     1      -3.505  -7.887  -4.040  0.00  0.00    +0.002 C 
BRANCH  19  20
ATOM     20  C   UNL     1      -3.935  -8.200  -5.474  0.00  0.00    +0.019 C 
BRANCH  20  21
ATOM     21  C   UNL     1      -4.886  -9.399  -5.470  0.00  0.00    +0.103 C 
BRANCH  21  22
ATOM     22  N   UNL     1      -5.298  -9.699  -6.844  0.00  0.00    -0.328 N 
ATOM     23  C   UNL     1      -6.156 -10.739  -7.090  0.00  0.00    +0.131 A 
ATOM     24  C   UNL     1      -6.576 -11.060  -8.462  0.00  0.00    +0.038 A 
ATOM     25  C   UNL     1      -6.125 -10.328  -9.560  0.00  0.00    +0.013 A 
ATOM     26  C   UNL     1      -6.551 -10.672 -10.825  0.00  0.00    +0.001 A 
ATOM     27  C   UNL     1      -7.421 -11.737 -11.010  0.00  0.00    +0.002 A 
ATOM     28  C   UNL     1      -7.875 -12.470  -9.932  0.00  0.00    +0.026 A 
ATOM     29  C   UNL     1      -7.459 -12.140  -8.651  0.00  0.00    +0.052 A 
ATOM     30  N   UNL     1      -7.886 -12.844  -7.541  0.00  0.00    -0.333 N 
ATOM     31  C   UNL     1      -7.460 -12.495  -6.313  0.00  0.00    +0.179 A 
ATOM     32  N   UNL     1      -6.622 -11.483  -6.098  0.00  0.00    -0.207 NA
ATOM     33  S   UNL     1      -8.016 -13.397  -4.968  0.00  0.00    -0.011 S 
ATOM     34  H   UNL     1      -4.964  -9.162  -7.579  0.00  0.00    +0.147 HD
ATOM     35  H   UNL     1      -8.494 -13.592  -7.647  0.00  0.00    +0.168 HD
ENDBRANCH  21  22
ENDBRANCH  20  21
ENDBRANCH  19  20
ENDBRANCH   1  19
TORSDOF 9
