REMARK  Name = ZINC63362261
REMARK  9 active torsions:
REMARK  status: ('A' for Active; 'I' for Inactive)
REMARK    1  A    between atoms: C_1  and  C_2
REMARK    2  A    between atoms: N_18  and  C_21
REMARK    3  A    between atoms: C_25  and  C_27
REMARK    4  A    between atoms: N_29  and  C_30
REMARK    5  A    between atoms: C_30  and  C_31
REMARK    6  A    between atoms: C_34  and  O_39
REMARK    7  A    between atoms: C_35  and  O_37
REMARK    8  A    between atoms: O_37  and  C_38
REMARK    9  A    between atoms: O_39  and  C_40
REMARK                            x       y       z     vdW  Elec       q    Type
REMARK                         _______ _______ _______ _____ _____    ______ ____
ROOT
ATOM      1  C   UNL     1      -2.541  -1.934   1.774  0.00  0.00    +0.046 A 
ATOM      2  C   UNL     1      -3.755  -1.845   1.104  0.00  0.00    +0.024 A 
ATOM      3  C   UNL     1      -4.869  -2.502   1.592  0.00  0.00    +0.003 A 
ATOM      4  C   UNL     1      -4.783  -3.251   2.748  0.00  0.00    +0.013 A 
ATOM      5  C   UNL     1      -3.568  -3.347   3.428  0.00  0.00    +0.038 A 
ATOM      6  C   UNL     1      -2.443  -2.688   2.933  0.00  0.00    +0.037 A 
ENDROOT
BRANCH   1  23
ATOM      7  C   UNL     1       1.864  -1.276   0.507  0.00  0.00    +0.044 C 
ATOM      8  C   UNL     1       0.691  -0.423   0.995  0.00  0.00    +0.137 C 
ATOM      9  C   UNL     1       1.166   0.867   1.674  0.00  0.00    +0.139 C 
ATOM     10  C   UNL     1       1.601   1.807   0.556  0.00  0.00    -0.034 C 
ATOM     11  C   UNL     1       2.869   2.121   0.803  0.00  0.00    -0.001 A 
ATOM     12  C   UNL     1       3.802   3.029   0.117  0.00  0.00    +0.010 A 
ATOM     13  C   UNL     1       5.054   3.109   0.642  0.00  0.00    +0.001 A 
ATOM     14  C   UNL     1       5.465   2.385   1.765  0.00  0.00    +0.002 A 
ATOM     15  C   UNL     1       4.672   1.532   2.460  0.00  0.00    +0.026 A 
ATOM     16  C   UNL     1       3.330   1.366   2.007  0.00  0.00    +0.043 A 
ATOM     17  N   UNL     1       2.358   0.631   2.493  0.00  0.00    -0.375 N 
ATOM     18  C   UNL     1       0.708   2.188  -0.600  0.00  0.00    +0.052 C 
ATOM     19  C   UNL     1       0.171   0.878  -1.210  0.00  0.00    +0.115 C 
ATOM     20  N   UNL     1      -0.203  -0.021  -0.114  0.00  0.00    -0.268 N 
ATOM     21  C   UNL     1      -1.383  -0.612   0.106  0.00  0.00    +0.316 C 
ATOM     22  O   UNL     1      -2.320  -0.564  -0.667  0.00  0.00    -0.252 OA
ATOM     23  N   UNL     1      -1.414  -1.265   1.276  0.00  0.00    -0.192 N 
ATOM     24  C   UNL     1      -0.228  -1.200   1.914  0.00  0.00    +0.253 C 
ATOM     25  O   UNL     1       0.046  -1.666   2.999  0.00  0.00    -0.272 OA
ATOM     26  H   UNL     1       2.412   0.035   3.256  0.00  0.00    +0.160 HD
ENDBRANCH   1  23
BRANCH   5  27
ATOM     27  C   UNL     1      -3.473  -4.148   4.667  0.00  0.00    +0.244 C 
ATOM     28  O   UNL     1      -2.414  -4.231   5.258  0.00  0.00    -0.270 OA
ATOM     29  N   UNL     1      -4.560  -4.788   5.142  0.00  0.00    -0.307 N 
ATOM     30  H   UNL     1      -5.406  -4.722   4.670  0.00  0.00    +0.149 HD
BRANCH  29  31
ATOM     31  C   UNL     1      -4.466  -5.582   6.369  0.00  0.00    +0.140 C 
BRANCH  31  32
ATOM     32  C   UNL     1      -5.810  -6.187   6.680  0.00  0.00    -0.027 A 
ATOM     33  C   UNL     1      -6.714  -5.495   7.465  0.00  0.00    +0.009 A 
ATOM     34  C   UNL     1      -7.948  -6.046   7.754  0.00  0.00    +0.050 A 
ATOM     35  C   UNL     1      -8.283  -7.295   7.255  0.00  0.00    +0.162 A 
ATOM     36  C   UNL     1      -7.373  -7.992   6.465  0.00  0.00    +0.162 A 
ATOM     37  C   UNL     1      -6.140  -7.431   6.176  0.00  0.00    +0.054 A 
BRANCH  36  38
ATOM     38  O   UNL     1      -7.697  -9.218   5.973  0.00  0.00    -0.491 OA
ATOM     39  C   UNL     1      -6.715  -9.874   5.169  0.00  0.00    +0.277 C 
ENDBRANCH  36  38
BRANCH  35  40
ATOM     40  O   UNL     1      -9.496  -7.839   7.538  0.00  0.00    -0.491 OA
ATOM     41  C   UNL     1     -10.378  -7.068   8.356  0.00  0.00    +0.277 C 
ENDBRANCH  35  40
ENDBRANCH  31  32
ENDBRANCH  29  31
ENDBRANCH   5  27
TORSDOF 6
