REMARK  Name = ZINC44098185
REMARK  4 active torsions:
REMARK  status: ('A' for Active; 'I' for Inactive)
REMARK    1  A    between atoms: C_4  and  N_11
REMARK    2  A    between atoms: C_5  and  C_7
REMARK    3  A    between atoms: C_23  and  C_26
REMARK    4  A    between atoms: C_28  and  C_31
REMARK                            x       y       z     vdW  Elec       q    Type
REMARK                         _______ _______ _______ _____ _____    ______ ____
ROOT
ATOM      1  N   UNL     1       3.583  -0.706  -0.117  0.00  0.00    -0.269 N 
ATOM      2  C   UNL     1       4.742  -0.021  -0.151  0.00  0.00    +0.307 C 
ATOM      3  O   UNL     1       4.734   1.193  -0.076  0.00  0.00    -0.252 OA
ATOM      4  N   UNL     1       5.912  -0.681  -0.268  0.00  0.00    -0.282 N 
ATOM      5  C   UNL     1       5.933  -2.137  -0.463  0.00  0.00    +0.128 C 
ATOM      6  C   UNL     1       6.739  -2.450  -1.730  0.00  0.00    +0.125 C 
ATOM      7  N   UNL     1       8.016  -1.726  -1.664  0.00  0.00    -0.314 N 
ATOM      8  C   UNL     1       7.995  -0.270  -1.468  0.00  0.00    +0.125 C 
ATOM      9  C   UNL     1       7.189   0.044  -0.208  0.00  0.00    +0.128 C 
ATOM     10  C   UNL     1       9.220  -2.406  -1.784  0.00  0.00    +0.099 A 
ATOM     11  C   UNL     1       9.225  -3.798  -1.802  0.00  0.00    +0.042 A 
ATOM     12  C   UNL     1      10.427  -4.467  -1.921  0.00  0.00    +0.016 A 
ATOM     13  C   UNL     1      11.602  -3.712  -2.021  0.00  0.00    +0.038 A 
ATOM     14  C   UNL     1      11.518  -2.323  -1.996  0.00  0.00    +0.095 A 
ATOM     15  N   UNL     1      10.350  -1.721  -1.886  0.00  0.00    -0.349 N 
ATOM     16  H   UNL     1       3.591  -1.676  -0.145  0.00  0.00    +0.156 HD
ATOM     17  H   UNL     1      10.317  -0.752  -1.875  0.00  0.00    +0.167 HD
ENDROOT
BRANCH   1  21
ATOM     18  C   UNL     1      -0.040   1.340   0.103  0.00  0.00    +0.001 A 
ATOM     19  C   UNL     1       1.115   1.927   0.588  0.00  0.00    +0.002 A 
ATOM     20  C   UNL     1       2.317   1.251   0.517  0.00  0.00    +0.024 A 
ATOM     21  C   UNL     1       2.366  -0.019  -0.043  0.00  0.00    +0.046 A 
ATOM     22  C   UNL     1       1.205  -0.605  -0.529  0.00  0.00    +0.076 A 
ATOM     23  C   UNL     1       0.005   0.076  -0.455  0.00  0.00    +0.014 A 
BRANCH  22  24
ATOM     24  C   UNL     1       1.253  -1.983  -1.138  0.00  0.00    +0.419 C 
ATOM     25  F   UNL     1      -0.030  -2.355  -1.552  0.00  0.00    -0.166 F 
ATOM     26  F   UNL     1       2.115  -1.975  -2.240  0.00  0.00    -0.166 F 
ATOM     27  F   UNL     1       1.720  -2.897  -0.188  0.00  0.00    -0.166 F 
ENDBRANCH  22  24
ENDBRANCH   1  21
BRANCH  13  28
ATOM     28  C   UNL     1      12.918  -4.383  -2.151  0.00  0.00    +0.203 A 
ATOM     29  N   UNL     1      14.108  -3.764  -2.249  0.00  0.00    -0.191 NA
ATOM     30  C   UNL     1      15.062  -4.645  -2.349  0.00  0.00    +0.231 A 
ATOM     31  O   UNL     1      14.516  -5.868  -2.319  0.00  0.00    -0.337 OA
ATOM     32  N   UNL     1      13.116  -5.678  -2.185  0.00  0.00    -0.056 NA
BRANCH  30  33
ATOM     33  C   UNL     1      16.532  -4.340  -2.477  0.00  0.00    +0.078 C 
ATOM     34  C   UNL     1      17.096  -4.984  -3.760  0.00  0.00    +0.013 C 
ATOM     35  C   UNL     1      18.515  -5.455  -3.358  0.00  0.00    +0.001 C 
ATOM     36  C   UNL     1      18.309  -5.960  -1.908  0.00  0.00    +0.001 C 
ATOM     37  C   UNL     1      17.304  -4.961  -1.299  0.00  0.00    +0.013 C 
ENDBRANCH  30  33
ENDBRANCH  13  28
TORSDOF 4
