REMARK  Name = ZINC16689115
REMARK  9 active torsions:
REMARK  status: ('A' for Active; 'I' for Inactive)
REMARK    1  A    between atoms: C_1  and  C_2
REMARK    2  A    between atoms: C_2  and  O_3
REMARK    3  A    between atoms: O_3  and  C_4
REMARK    4  A    between atoms: C_6  and  C_20
REMARK    5  A    between atoms: C_9  and  O_10
REMARK    6  A    between atoms: O_10  and  C_11
REMARK    7  A    between atoms: C_11  and  C_12
REMARK    8  A    between atoms: N_21  and  N_22
REMARK    9  A    between atoms: N_24  and  N_25
REMARK                            x       y       z     vdW  Elec       q    Type
REMARK                         _______ _______ _______ _____ _____    ______ ____
ROOT
ATOM      1  C   UNL     1      -1.386  -1.825  -0.511  0.00  0.00    +0.163 A 
ATOM      2  C   UNL     1      -0.340  -2.709  -0.689  0.00  0.00    +0.059 A 
ATOM      3  C   UNL     1      -0.506  -4.059  -0.364  0.00  0.00    -0.002 A 
ATOM      4  C   UNL     1      -1.732  -4.508   0.139  0.00  0.00    +0.013 A 
ATOM      5  C   UNL     1      -2.771  -3.619   0.314  0.00  0.00    +0.050 A 
ATOM      6  C   UNL     1      -2.603  -2.278  -0.003  0.00  0.00    +0.162 A 
ENDROOT
BRANCH   3   7
ATOM      7  C   UNL     1       0.604  -5.006  -0.552  0.00  0.00    +0.140 C 
ATOM      8  N   UNL     1       0.486  -6.238  -0.148  0.00  0.00    -0.179 NA
BRANCH   8   9
ATOM      9  N   UNL     1       1.579  -7.110  -0.228  0.00  0.00    -0.245 N 
ATOM     10  C   UNL     1       1.429  -8.409   0.093  0.00  0.00    +0.240 C 
ATOM     11  N   UNL     1       2.502  -9.214   0.156  0.00  0.00    -0.058 NA
ATOM     12  N   UNL     1       0.190  -8.907   0.353  0.00  0.00    -0.367 N 
ATOM     13  H   UNL     1       2.444  -6.778  -0.515  0.00  0.00    +0.192 HD
ATOM     14  H   UNL     1      -0.586  -8.326   0.307  0.00  0.00    +0.159 HD
ATOM     15  H   UNL     1       0.082  -9.843   0.584  0.00  0.00    +0.159 HD
BRANCH  11  16
ATOM     16  N   UNL     1       3.685  -8.706   0.249  0.00  0.00    +0.157 N 
ATOM     17  O   UNL     1       3.832  -7.413   0.452  0.00  0.00    -0.106 OA
ATOM     18  O   UNL     1       4.745  -9.480   0.141  0.00  0.00    -0.106 OA
ENDBRANCH  11  16
ENDBRANCH   8   9
ENDBRANCH   3   7
BRANCH   1  19
ATOM     19  O   UNL     1      -1.228  -0.511  -0.825  0.00  0.00    -0.489 OA
BRANCH  19  21
ATOM     20  C   UNL     1       0.034   1.385  -1.633  0.00  0.00    +0.048 C 
ATOM     21  C   UNL     1       0.046  -0.117  -1.340  0.00  0.00    +0.226 C 
ENDBRANCH  19  21
ENDBRANCH   1  19
BRANCH   6  22
ATOM     22  O   UNL     1      -3.629  -1.406   0.176  0.00  0.00    -0.484 OA
BRANCH  22  23
ATOM     23  C   UNL     1      -4.848  -1.937   0.700  0.00  0.00    +0.266 C 
BRANCH  23  24
ATOM     24  C   UNL     1      -5.864  -0.831   0.829  0.00  0.00    +0.008 A 
ATOM     25  C   UNL     1      -5.533   0.458   0.454  0.00  0.00    +0.010 A 
ATOM     26  C   UNL     1      -6.463   1.473   0.572  0.00  0.00    +0.020 A 
ATOM     27  C   UNL     1      -7.727   1.200   1.066  0.00  0.00    +0.042 A 
ATOM     28  C   UNL     1      -8.058  -0.090   1.441  0.00  0.00    +0.040 A 
ATOM     29  C   UNL     1      -7.128  -1.106   1.317  0.00  0.00    +0.049 A 
ATOM     30 CL   UNL     1      -7.545  -2.726   1.782  0.00  0.00    -0.083 Cl
ATOM     31 CL   UNL     1      -8.896   2.475   1.215  0.00  0.00    -0.083 Cl
ENDBRANCH  23  24
ENDBRANCH  22  23
ENDBRANCH   6  22
TORSDOF 8
