REMARK  Name = ZINC36603805
REMARK  17 active torsions:
REMARK  status: ('A' for Active; 'I' for Inactive)
REMARK    1  A    between atoms: C_1  and  C_2
REMARK    2  A    between atoms: C_2  and  C_3
REMARK    3  A    between atoms: C_3  and  C_4
REMARK    4  A    between atoms: C_4  and  C_5
REMARK    5  A    between atoms: N_7  and  C_8
REMARK    6  A    between atoms: N_7  and  C_15
REMARK    7  A    between atoms: C_8  and  C_9
REMARK    8  A    between atoms: C_12  and  C_14
REMARK    9  A    between atoms: C_15  and  C_17
REMARK   10  A    between atoms: C_15  and  C_26
REMARK   11  A    between atoms: C_18  and  O_25
REMARK   12  A    between atoms: C_20  and  O_24
REMARK   13  A    between atoms: C_22  and  O_23
REMARK   14  A    between atoms: N_28  and  C_29
REMARK   15  A    between atoms: C_29  and  C_30
REMARK   16  A    between atoms: C_29  and  C_31
REMARK   17  A    between atoms: C_29  and  C_32
REMARK                            x       y       z     vdW  Elec       q    Type
REMARK                         _______ _______ _______ _____ _____    ______ ____
ROOT
ATOM      1  C   UNL     1       1.287  -4.979  -2.002  0.00  0.00    +0.200 C 
ENDROOT
BRANCH   1   2
ATOM      2  C   UNL     1       0.197  -3.986  -1.692  0.00  0.00    +0.065 A 
ATOM      3  C   UNL     1       0.456  -2.626  -1.770  0.00  0.00    +0.129 A 
ATOM      4  C   UNL     1      -0.548  -1.712  -1.486  0.00  0.00    +0.091 A 
ATOM      5  C   UNL     1      -1.810  -2.158  -1.124  0.00  0.00    +0.124 A 
ATOM      6  C   UNL     1      -2.069  -3.518  -1.047  0.00  0.00    +0.091 A 
ATOM      7  C   UNL     1      -1.067  -4.432  -1.336  0.00  0.00    +0.129 A 
BRANCH   7   8
ATOM      8  O   UNL     1      -1.322  -5.765  -1.266  0.00  0.00    -0.506 OA
ATOM      9  H   UNL     1      -1.156  -6.152  -0.395  0.00  0.00    +0.292 HD
ENDBRANCH   7   8
BRANCH   5  10
ATOM     10  O   UNL     1      -2.793  -1.262  -0.844  0.00  0.00    -0.507 OA
ATOM     11  H   UNL     1      -3.320  -1.004  -1.613  0.00  0.00    +0.292 HD
ENDBRANCH   5  10
BRANCH   3  12
ATOM     12  O   UNL     1       1.693  -2.189  -2.124  0.00  0.00    -0.506 OA
ATOM     13  H   UNL     1       1.780  -1.974  -3.063  0.00  0.00    +0.292 HD
ENDBRANCH   3  12
ENDBRANCH   1   2
BRANCH   1  14
ATOM     14  C   UNL     1       2.276  -5.010  -0.865  0.00  0.00    +0.239 C 
ATOM     15  O   UNL     1       3.059  -4.096  -0.718  0.00  0.00    -0.273 OA
ATOM     16  N   UNL     1       2.289  -6.053  -0.011  0.00  0.00    -0.309 N 
ATOM     17  H   UNL     1       1.663  -6.784  -0.129  0.00  0.00    +0.149 HD
BRANCH  16  18
ATOM     18  C   UNL     1       3.251  -6.082   1.094  0.00  0.00    +0.026 C 
ATOM     19  C   UNL     1       3.026  -4.868   1.998  0.00  0.00    +0.031 C 
ATOM     20  C   UNL     1       3.055  -7.365   1.905  0.00  0.00    +0.031 C 
ATOM     21  C   UNL     1       4.674  -6.045   0.533  0.00  0.00    +0.031 C 
ENDBRANCH  16  18
ENDBRANCH   1  14
BRANCH   1  24
ATOM     22  C   UNL     1       1.267  -4.396  -4.367  0.00  0.00    +0.217 C 
ATOM     23  O   UNL     1       1.842  -4.149  -5.406  0.00  0.00    -0.276 OA
ATOM     24  N   UNL     1       1.973  -4.584  -3.235  0.00  0.00    -0.278 N 
BRANCH  22  25
ATOM     25  C   UNL     1      -0.236  -4.495  -4.344  0.00  0.00    +0.096 C 
BRANCH  25  26
ATOM     26  C   UNL     1      -0.783  -4.295  -5.759  0.00  0.00    +0.009 C 
BRANCH  26  28
ATOM     27  C   UNL     1      -2.856  -4.196  -7.150  0.00  0.00    +0.004 C 
ATOM     28  C   UNL     1      -2.310  -4.395  -5.735  0.00  0.00    -0.003 C 
ENDBRANCH  26  28
ENDBRANCH  25  26
ENDBRANCH  22  25
BRANCH  24  29
ATOM     29  C   UNL     1       3.425  -4.392  -3.236  0.00  0.00    +0.183 C 
BRANCH  29  30
ATOM     30  C   UNL     1       3.738  -2.920  -3.318  0.00  0.00    +0.122 A 
ATOM     31  C   UNL     1       4.056  -2.125  -2.281  0.00  0.00    +0.046 A 
ATOM     32  C   UNL     1       4.268  -0.830  -2.808  0.00  0.00    +0.045 A 
ATOM     33  C   UNL     1       4.066  -0.912  -4.135  0.00  0.00    +0.102 A 
ATOM     34  O   UNL     1       3.751  -2.182  -4.439  0.00  0.00    -0.463 OA
ATOM     35  C   UNL     1       4.180   0.227  -5.116  0.00  0.00    +0.086 C 
ENDBRANCH  29  30
ENDBRANCH  24  29
ENDBRANCH   1  24
TORSDOF 12
