REMARK  Name = ZINC01309857
REMARK  8 active torsions:
REMARK  status: ('A' for Active; 'I' for Inactive)
REMARK    1  A    between atoms: C_4  and  N_7
REMARK    2  A    between atoms: N_7  and  N_19
REMARK    3  A    between atoms: C_8  and  C_10
REMARK    4  A    between atoms: C_13  and  N_16
REMARK    5  A    between atoms: C_20  and  C_22
REMARK    6  A    between atoms: C_22  and  C_23
REMARK    7  A    between atoms: C_22  and  C_30
REMARK    8  A    between atoms: C_22  and  O_37
REMARK                            x       y       z     vdW  Elec       q    Type
REMARK                         _______ _______ _______ _____ _____    ______ ____
ROOT
ATOM      1  N   UNL     1       3.543  -2.409   0.568  0.00  0.00    -0.224 N 
ATOM      2  C   UNL     1       3.600  -2.874  -0.696  0.00  0.00    +0.270 C 
ATOM      3  O   UNL     1       3.819  -2.112  -1.613  0.00  0.00    -0.270 OA
ATOM      4  H   UNL     1       3.451  -3.028   1.309  0.00  0.00    +0.174 HD
ENDROOT
BRANCH   1   5
ATOM      5  N   UNL     1       3.617  -1.031   0.811  0.00  0.00    -0.184 N 
ATOM      6  C   UNL     1       4.761  -0.489   1.274  0.00  0.00    +0.267 C 
ATOM      7  O   UNL     1       4.800   0.690   1.567  0.00  0.00    -0.268 OA
BRANCH   5  11
ATOM      8  C   UNL     1       0.304   1.391   0.102  0.00  0.00    +0.000 A 
ATOM      9  C   UNL     1       0.970   1.470   1.311  0.00  0.00    +0.002 A 
ATOM     10  C   UNL     1       2.069   0.668   1.550  0.00  0.00    +0.025 A 
ATOM     11  C   UNL     1       2.505  -0.218   0.573  0.00  0.00    +0.056 A 
ATOM     12  C   UNL     1       1.833  -0.295  -0.640  0.00  0.00    +0.025 A 
ATOM     13  C   UNL     1       0.735   0.510  -0.872  0.00  0.00    +0.002 A 
ENDBRANCH   5  11
BRANCH   6  14
ATOM     14  C   UNL     1       5.968  -1.329   1.426  0.00  0.00    +0.039 A 
ATOM     15  C   UNL     1       5.920  -2.688   1.114  0.00  0.00    +0.015 A 
ATOM     16  C   UNL     1       7.051  -3.466   1.258  0.00  0.00    +0.033 A 
ATOM     17  C   UNL     1       8.230  -2.901   1.711  0.00  0.00    +0.126 A 
ATOM     18  C   UNL     1       8.284  -1.554   2.022  0.00  0.00    +0.033 A 
ATOM     19  C   UNL     1       7.163  -0.764   1.877  0.00  0.00    +0.015 A 
BRANCH  17  20
ATOM     20  N   UNL     1       9.438  -3.742   1.864  0.00  0.00    +0.056 N 
ATOM     21  O   UNL     1       9.394  -4.919   1.593  0.00  0.00    -0.126 OA
ATOM     22  O   UNL     1      10.470  -3.251   2.259  0.00  0.00    -0.126 OA
ENDBRANCH  17  20
ENDBRANCH   6  14
ENDBRANCH   1   5
BRANCH   2  23
ATOM     23  C   UNL     1       3.390  -4.341  -0.968  0.00  0.00    +0.194 C 
BRANCH  23  24
ATOM     24  C   UNL     1       2.849  -4.521  -2.364  0.00  0.00    -0.003 A 
ATOM     25  C   UNL     1       3.715  -4.561  -3.440  0.00  0.00    +0.009 A 
ATOM     26  C   UNL     1       3.220  -4.725  -4.720  0.00  0.00    +0.020 A 
ATOM     27  C   UNL     1       1.857  -4.850  -4.923  0.00  0.00    +0.041 A 
ATOM     28  C   UNL     1       0.991  -4.810  -3.845  0.00  0.00    +0.020 A 
ATOM     29  C   UNL     1       1.488  -4.651  -2.565  0.00  0.00    +0.009 A 
ATOM     30 CL   UNL     1       1.234  -5.056  -6.531  0.00  0.00    -0.084 Cl
ENDBRANCH  23  24
BRANCH  23  31
ATOM     31  C   UNL     1       4.704  -5.068  -0.842  0.00  0.00    -0.003 A 
ATOM     32  C   UNL     1       5.851  -4.522  -1.386  0.00  0.00    +0.009 A 
ATOM     33  C   UNL     1       7.057  -5.188  -1.270  0.00  0.00    +0.020 A 
ATOM     34  C   UNL     1       7.115  -6.402  -0.609  0.00  0.00    +0.041 A 
ATOM     35  C   UNL     1       5.967  -6.948  -0.064  0.00  0.00    +0.020 A 
ATOM     36  C   UNL     1       4.763  -6.278  -0.176  0.00  0.00    +0.009 A 
ATOM     37 CL   UNL     1       8.629  -7.240  -0.463  0.00  0.00    -0.084 Cl
ENDBRANCH  23  31
BRANCH  23  38
ATOM     38  O   UNL     1       2.458  -4.873  -0.024  0.00  0.00    -0.371 OA
ATOM     39  H   UNL     1       1.589  -4.451  -0.050  0.00  0.00    +0.212 HD
ENDBRANCH  23  38
ENDBRANCH   2  23
TORSDOF 8
