REMARK  Name = ZINC09526748
REMARK  8 active torsions:
REMARK  status: ('A' for Active; 'I' for Inactive)
REMARK    1  A    between atoms: C_1  and  C_2
REMARK    2  A    between atoms: C_5  and  C_8
REMARK    3  A    between atoms: C_15  and  C_16
REMARK    4  A    between atoms: C_15  and  N_59
REMARK    5  A    between atoms: N_18  and  C_19
REMARK    6  A    between atoms: C_19  and  C_20
REMARK    7  A    between atoms: C_23  and  O_26
REMARK    8  A    between atoms: O_26  and  C_27
REMARK                            x       y       z     vdW  Elec       q    Type
REMARK                         _______ _______ _______ _____ _____    ______ ____
ROOT
ATOM      1  C   UNL     1      -2.443  -1.532   2.227  0.00  0.00    +0.130 C 
ATOM      2  N   UNL     1      -1.895  -1.011   1.175  0.00  0.00    -0.253 NA
ATOM      3  C   UNL     1      -1.838   0.441   1.358  0.00  0.00    +0.124 C 
ATOM      4  C   UNL     1      -0.385   0.918   1.322  0.00  0.00    +0.031 C 
ATOM      5  C   UNL     1       0.200   0.651  -0.067  0.00  0.00    -0.074 C 
ATOM      6  C   UNL     1      -1.984   0.868  -1.096  0.00  0.00    -0.074 C 
ATOM      7  C   UNL     1      -2.639   1.141   0.260  0.00  0.00    +0.031 C 
ATOM      8  N   UNL     1      -2.427   0.727   2.670  0.00  0.00    -0.286 N 
ATOM      9  C   UNL     1      -2.792  -0.462   3.195  0.00  0.00    +0.264 C 
ATOM     10  O   UNL     1      -3.318  -0.628   4.277  0.00  0.00    -0.268 OA
ATOM     11  H   UNL     1      -2.534   1.600   3.080  0.00  0.00    +0.151 HD
ATOM     12  N   UNL     1      -0.599   1.384  -1.072  0.00  0.00    +0.386 N 
ATOM     13  H   UNL     1      -0.620   2.379  -0.820  0.00  0.00    -0.081 HD
ENDROOT
BRANCH   1  18
ATOM     14  C   UNL     1      -3.379  -7.155   3.030  0.00  0.00    +0.044 C 
ATOM     15  C   UNL     1      -3.134  -5.683   2.820  0.00  0.00    -0.050 A 
ATOM     16  C   UNL     1      -3.505  -4.777   3.797  0.00  0.00    +0.004 A 
ATOM     17  C   UNL     1      -3.284  -3.428   3.611  0.00  0.00    +0.010 A 
ATOM     18  C   UNL     1      -2.684  -2.978   2.434  0.00  0.00    +0.005 A 
ATOM     19  C   UNL     1      -2.317  -3.897   1.450  0.00  0.00    +0.010 A 
ATOM     20  C   UNL     1      -2.539  -5.244   1.651  0.00  0.00    +0.004 A 
ENDBRANCH   1  18
BRANCH  12  21
ATOM     21  C   UNL     1       0.016   1.241  -2.408  0.00  0.00    +0.019 C 
BRANCH  21  22
ATOM     22  C   UNL     1       1.328   1.981  -2.419  0.00  0.00    +0.197 C 
ATOM     23  O   UNL     1       1.661   2.640  -1.457  0.00  0.00    -0.278 OA
ATOM     24  N   UNL     1       2.133   1.909  -3.498  0.00  0.00    -0.313 N 
ATOM     25  H   UNL     1       1.867   1.382  -4.267  0.00  0.00    +0.149 HD
BRANCH  24  26
ATOM     26  C   UNL     1       3.409   2.629  -3.509  0.00  0.00    +0.139 C 
BRANCH  26  27
ATOM     27  C   UNL     1       4.111   2.386  -4.820  0.00  0.00    -0.030 A 
ATOM     28  C   UNL     1       4.982   1.319  -4.950  0.00  0.00    +0.009 A 
ATOM     29  C   UNL     1       5.622   1.091  -6.152  0.00  0.00    +0.046 A 
ATOM     30  C   UNL     1       5.401   1.940  -7.227  0.00  0.00    +0.120 A 
ATOM     31  C   UNL     1       4.531   3.013  -7.093  0.00  0.00    +0.046 A 
ATOM     32  C   UNL     1       3.889   3.233  -5.890  0.00  0.00    +0.009 A 
BRANCH  30  33
ATOM     33  O   UNL     1       6.033   1.721  -8.409  0.00  0.00    -0.495 OA
ATOM     34  C   UNL     1       6.914   0.597  -8.475  0.00  0.00    +0.277 C 
ENDBRANCH  30  33
ENDBRANCH  26  27
ENDBRANCH  24  26
ENDBRANCH  21  22
ENDBRANCH  12  21
TORSDOF 6
