REMARK  Name = ZINC08632868
REMARK  8 active torsions:
REMARK  status: ('A' for Active; 'I' for Inactive)
REMARK    1  A    between atoms: C_5  and  N_7
REMARK    2  A    between atoms: N_12  and  C_15
REMARK    3  A    between atoms: C_15  and  C_16
REMARK    4  A    between atoms: C_16  and  O_18
REMARK    5  A    between atoms: O_18  and  C_19
REMARK    6  A    between atoms: C_19  and  C_20
REMARK    7  A    between atoms: N_22  and  C_23
REMARK    8  A    between atoms: C_24  and  C_32
REMARK                            x       y       z     vdW  Elec       q    Type
REMARK                         _______ _______ _______ _____ _____    ______ ____
ROOT
ATOM      1  C   UNL     1      -3.049  -2.120  -3.039  0.00  0.00    +0.328 C 
ENDROOT
BRANCH   1   2
ATOM      2  C   UNL     1      -4.279  -2.988  -3.111  0.00  0.00    +0.255 C 
ATOM      3  O   UNL     1      -4.808  -3.375  -2.091  0.00  0.00    -0.272 OA
ATOM      4  N   UNL     1      -4.790  -3.334  -4.309  0.00  0.00    -0.277 N 
ATOM      5  H   UNL     1      -4.367  -3.025  -5.125  0.00  0.00    +0.155 HD
BRANCH   4   6
ATOM      6  C   UNL     1      -5.922  -4.133  -4.375  0.00  0.00    +0.084 A 
ATOM      7  C   UNL     1      -6.593  -4.586  -5.502  0.00  0.00    +0.068 A 
ATOM      8  C   UNL     1      -7.763  -5.422  -5.296  0.00  0.00    -0.023 A 
ATOM      9  C   UNL     1      -8.079  -5.661  -4.004  0.00  0.00    -0.004 A 
ATOM     10  S   UNL     1      -6.846  -4.801  -3.070  0.00  0.00    -0.077 S 
ATOM     11  C   UNL     1      -9.226  -6.476  -3.491  0.00  0.00    +0.043 C 
ATOM     12  C   UNL     1     -10.216  -6.698  -4.644  0.00  0.00    +0.005 C 
ATOM     13  C   UNL     1      -9.438  -7.159  -5.880  0.00  0.00    +0.005 C 
ATOM     14  C   UNL     1      -8.601  -6.002  -6.429  0.00  0.00    +0.037 C 
BRANCH   7  15
ATOM     15  C   UNL     1      -6.136  -4.237  -6.850  0.00  0.00    +0.244 C 
ATOM     16  O   UNL     1      -5.338  -4.953  -7.427  0.00  0.00    -0.270 OA
ATOM     17  N   UNL     1      -6.599  -3.123  -7.452  0.00  0.00    -0.325 N 
ATOM     18  H   UNL     1      -7.235  -2.553  -6.992  0.00  0.00    +0.145 HD
ATOM     19  H   UNL     1      -6.297  -2.892  -8.344  0.00  0.00    +0.145 HD
ENDBRANCH   7  15
ENDBRANCH   4   6
ENDBRANCH   1   2
BRANCH   1  20
ATOM     20  O   UNL     1      -2.699  -1.891  -1.649  0.00  0.00    -0.454 OA
BRANCH  20  21
ATOM     21  C   UNL     1      -1.619  -1.131  -1.409  0.00  0.00    +0.326 C 
ATOM     22  O   UNL     1      -0.986  -0.673  -2.332  0.00  0.00    -0.249 OA
BRANCH  21  23
ATOM     23  C   UNL     1      -1.194  -0.849   0.009  0.00  0.00    +0.237 C 
BRANCH  23  32
ATOM     24  C   UNL     1       3.344   3.203  -0.012  0.00  0.00    +0.003 A 
ATOM     25  C   UNL     1       1.962   3.087  -0.000  0.00  0.00    +0.014 A 
ATOM     26  C   UNL     1       1.378   1.831  -0.001  0.00  0.00    +0.052 A 
ATOM     27  C   UNL     1       2.192   0.679  -0.015  0.00  0.00    +0.080 A 
ATOM     28  C   UNL     1       3.571   0.810  -0.027  0.00  0.00    +0.139 A 
ATOM     29  C   UNL     1       4.141   2.074  -0.026  0.00  0.00    +0.033 A 
ATOM     30  C   UNL     1       1.264  -0.471  -0.013  0.00  0.00    +0.257 C 
ATOM     31  O   UNL     1       1.586  -1.642  -0.022  0.00  0.00    -0.269 OA
ATOM     32  N   UNL     1       0.002  -0.004   0.002  0.00  0.00    -0.223 N 
ATOM     33  C   UNL     1      -0.016   1.341   0.009  0.00  0.00    +0.254 C 
ATOM     34  O   UNL     1      -1.012   2.036   0.018  0.00  0.00    -0.270 OA
BRANCH  28  35
ATOM     35  N   UNL     1       4.431  -0.394  -0.042  0.00  0.00    +0.057 N 
ATOM     36  O   UNL     1       5.644  -0.276  -0.052  0.00  0.00    -0.126 OA
ATOM     37  O   UNL     1       3.927  -1.503  -0.043  0.00  0.00    -0.126 OA
ENDBRANCH  28  35
ENDBRANCH  23  32
ENDBRANCH  21  23
ENDBRANCH  20  21
ENDBRANCH   1  20
TORSDOF 8
