REMARK  Name = ZINC39659513
REMARK  9 active torsions:
REMARK  status: ('A' for Active; 'I' for Inactive)
REMARK    1  A    between atoms: C_1  and  C_2
REMARK    2  A    between atoms: C_2  and  C_37
REMARK    3  A    between atoms: C_5  and  C_8
REMARK    4  A    between atoms: C_8  and  N_9
REMARK    5  A    between atoms: C_10  and  C_12
REMARK    6  A    between atoms: C_23  and  C_25
REMARK    7  A    between atoms: C_28  and  O_35
REMARK    8  A    between atoms: C_29  and  C_31
REMARK    9  A    between atoms: O_35  and  C_36
REMARK                            x       y       z     vdW  Elec       q    Type
REMARK                         _______ _______ _______ _____ _____    ______ ____
ROOT
ATOM      1  C   UNL     1       3.281  -2.822   4.696  0.00  0.00    +0.100 C 
ATOM      2  C   UNL     1       4.418  -1.806   4.448  0.00  0.00    +0.121 C 
ATOM      3  N   UNL     1       5.523  -2.260   5.325  0.00  0.00    -0.296 N 
ATOM      4  C   UNL     1       5.488  -3.739   5.226  0.00  0.00    +0.115 C 
ATOM      5  C   UNL     1       3.987  -4.089   5.206  0.00  0.00    -0.004 C 
ATOM      6  C   UNL     1       3.731  -5.255   4.256  0.00  0.00    -0.010 C 
ATOM      7  C   UNL     1       4.394  -6.518   4.814  0.00  0.00    -0.082 C 
ATOM      8  N   UNL     1       3.846  -6.814   6.143  0.00  0.00    +0.379 N 
ATOM      9  C   UNL     1       4.178  -5.729   7.074  0.00  0.00    -0.082 C 
ATOM     10  C   UNL     1       3.506  -4.433   6.612  0.00  0.00    -0.010 C 
ATOM     11  C   UNL     1       6.369  -1.500   6.049  0.00  0.00    +0.247 C 
ATOM     12  O   UNL     1       6.191  -0.300   6.129  0.00  0.00    -0.270 OA
ATOM     13  H   UNL     1       2.843  -6.905   6.079  0.00  0.00    -0.086 HD
ATOM     14  H   UNL     1       4.239  -7.679   6.482  0.00  0.00    -0.086 HD
ENDROOT
BRANCH  11  15
ATOM     15  C   UNL     1       7.511  -2.125   6.744  0.00  0.00    +0.038 A 
ATOM     16  C   UNL     1       7.985  -3.374   6.332  0.00  0.00    +0.016 A 
ATOM     17  C   UNL     1       9.051  -3.953   6.983  0.00  0.00    +0.047 A 
ATOM     18  C   UNL     1       9.656  -3.298   8.049  0.00  0.00    +0.132 A 
ATOM     19  C   UNL     1       9.188  -2.056   8.462  0.00  0.00    +0.097 A 
ATOM     20  C   UNL     1       8.126  -1.468   7.813  0.00  0.00    +0.029 A 
BRANCH  19  21
ATOM     21  C   UNL     1       9.847  -1.351   9.619  0.00  0.00    +0.421 C 
ATOM     22  F   UNL     1       9.206  -0.128   9.846  0.00  0.00    -0.166 F 
ATOM     23  F   UNL     1       9.753  -2.147  10.766  0.00  0.00    -0.166 F 
ATOM     24  F   UNL     1      11.195  -1.122   9.319  0.00  0.00    -0.166 F 
ENDBRANCH  19  21
BRANCH  18  25
ATOM     25  O   UNL     1      10.706  -3.872   8.688  0.00  0.00    -0.495 OA
ATOM     26  C   UNL     1      11.136  -5.149   8.212  0.00  0.00    +0.277 C 
ENDBRANCH  18  25
ENDBRANCH  11  15
BRANCH   1  28
ATOM     27  N   UNL     1       1.239  -3.437   3.442  0.00  0.00    -0.312 N 
ATOM     28  C   UNL     1       2.546  -3.111   3.412  0.00  0.00    +0.218 C 
ATOM     29  O   UNL     1       3.132  -3.049   2.352  0.00  0.00    -0.275 OA
ATOM     30  H   UNL     1       0.771  -3.487   4.291  0.00  0.00    +0.149 HD
BRANCH  27  31
ATOM     31  C   UNL     1       0.525  -3.718   2.194  0.00  0.00    +0.138 C 
BRANCH  31  36
ATOM     32  C   UNL     1      -4.026  -2.956   3.428  0.00  0.00    +0.074 C 
ATOM     33  C   UNL     1      -2.956  -2.946   2.334  0.00  0.00    +0.165 C 
ATOM     34  O   UNL     1      -3.052  -4.149   1.554  0.00  0.00    -0.347 OA
ATOM     35  C   UNL     1      -1.684  -4.484   1.220  0.00  0.00    +0.196 C 
ATOM     36  C   UNL     1      -0.933  -4.061   2.507  0.00  0.00    +0.164 C 
ATOM     37  O   UNL     1      -1.655  -2.888   2.934  0.00  0.00    -0.342 OA
ATOM     38  C   UNL     1      -3.158  -1.730   1.428  0.00  0.00    +0.074 C 
ENDBRANCH  31  36
ENDBRANCH  27  31
ENDBRANCH   1  28
TORSDOF 6
