REMARK  Name = ZINC36598993
REMARK  14 active torsions:
REMARK  status: ('A' for Active; 'I' for Inactive)
REMARK    1  A    between atoms: C_1  and  C_2
REMARK    2  A    between atoms: C_5  and  C_7
REMARK    3  A    between atoms: C_7  and  N_8
REMARK    4  A    between atoms: N_8  and  C_9
REMARK    5  A    between atoms: C_9  and  C_11
REMARK    6  A    between atoms: C_9  and  C_17
REMARK    7  A    between atoms: N_19  and  C_20
REMARK    8  A    between atoms: C_20  and  C_21
REMARK    9  A    between atoms: C_20  and  C_22
REMARK   10  A    between atoms: C_20  and  C_23
REMARK   11  A    between atoms: C_24  and  C_26
REMARK   12  A    between atoms: C_26  and  C_27
REMARK   13  A    between atoms: C_26  and  C_33
REMARK   14  A    between atoms: C_26  and  O_39
REMARK                            x       y       z     vdW  Elec       q    Type
REMARK                         _______ _______ _______ _____ _____    ______ ____
ROOT
ATOM      1  N   UNL     1       2.388  -2.776  -1.734  0.00  0.00    -0.279 N 
ATOM      2  C   UNL     1       1.257  -2.929  -2.452  0.00  0.00    +0.258 C 
ATOM      3  O   UNL     1       0.226  -2.412  -2.076  0.00  0.00    -0.272 OA
ENDROOT
BRANCH   1   4
ATOM      4  C   UNL     1       2.408  -1.872  -0.582  0.00  0.00    +0.182 C 
BRANCH   4   9
ATOM      5  C   UNL     1       5.567   1.929  -1.587  0.00  0.00    +0.086 C 
ATOM      6  C   UNL     1       4.296   1.131  -1.448  0.00  0.00    +0.102 A 
ATOM      7  C   UNL     1       3.059   1.562  -1.751  0.00  0.00    +0.045 A 
ATOM      8  C   UNL     1       2.173   0.497  -1.469  0.00  0.00    +0.046 A 
ATOM      9  C   UNL     1       2.923  -0.522  -1.011  0.00  0.00    +0.122 A 
ATOM     10  O   UNL     1       4.208  -0.134  -1.006  0.00  0.00    -0.463 OA
ENDBRANCH   4   9
ENDBRANCH   1   4
BRANCH   1  11
ATOM     11  C   UNL     1       3.597  -3.514  -2.107  0.00  0.00    +0.165 C 
BRANCH  11  12
ATOM     12  C   UNL     1       3.360  -5.013  -1.912  0.00  0.00    +0.018 C 
ATOM     13  C   UNL     1       2.977  -5.283  -0.456  0.00  0.00    +0.006 C 
ATOM     14  C   UNL     1       2.740  -6.782  -0.260  0.00  0.00    +0.000 C 
ATOM     15  C   UNL     1       4.019  -7.550  -0.602  0.00  0.00    +0.000 C 
ATOM     16  C   UNL     1       4.402  -7.279  -2.059  0.00  0.00    +0.000 C 
ATOM     17  C   UNL     1       4.639  -5.780  -2.254  0.00  0.00    +0.006 C 
ENDBRANCH  11  12
BRANCH  11  18
ATOM     18  C   UNL     1       4.745  -3.070  -1.238  0.00  0.00    +0.234 C 
ATOM     19  O   UNL     1       4.596  -2.977  -0.037  0.00  0.00    -0.274 OA
ATOM     20  N   UNL     1       5.937  -2.775  -1.794  0.00  0.00    -0.309 N 
ATOM     21  H   UNL     1       6.056  -2.849  -2.753  0.00  0.00    +0.149 HD
BRANCH  20  22
ATOM     22  C   UNL     1       7.053  -2.343  -0.948  0.00  0.00    +0.026 C 
ATOM     23  C   UNL     1       7.379  -3.441   0.066  0.00  0.00    +0.031 C 
ATOM     24  C   UNL     1       8.280  -2.074  -1.822  0.00  0.00    +0.031 C 
ATOM     25  C   UNL     1       6.664  -1.062  -0.206  0.00  0.00    +0.031 C 
ENDBRANCH  20  22
ENDBRANCH  11  18
ENDBRANCH   1  11
BRANCH   2  26
ATOM     26  C   UNL     1       1.274  -3.741  -3.721  0.00  0.00    +0.192 C 
BRANCH  26  27
ATOM     27  C   UNL     1       0.948  -5.178  -3.401  0.00  0.00    -0.003 A 
ATOM     28  C   UNL     1       0.081  -5.477  -2.367  0.00  0.00    +0.007 A 
ATOM     29  C   UNL     1      -0.218  -6.794  -2.074  0.00  0.00    +0.000 A 
ATOM     30  C   UNL     1       0.350  -7.813  -2.816  0.00  0.00    +0.000 A 
ATOM     31  C   UNL     1       1.217  -7.514  -3.851  0.00  0.00    +0.000 A 
ATOM     32  C   UNL     1       1.512  -6.197  -4.146  0.00  0.00    +0.007 A 
ENDBRANCH  26  27
BRANCH  26  33
ATOM     33  C   UNL     1       0.248  -3.195  -4.681  0.00  0.00    -0.003 A 
ATOM     34  C   UNL     1      -1.063  -3.036  -4.274  0.00  0.00    +0.007 A 
ATOM     35  C   UNL     1      -2.004  -2.535  -5.155  0.00  0.00    +0.000 A 
ATOM     36  C   UNL     1      -1.633  -2.193  -6.442  0.00  0.00    +0.000 A 
ATOM     37  C   UNL     1      -0.321  -2.351  -6.848  0.00  0.00    +0.000 A 
ATOM     38  C   UNL     1       0.621  -2.848  -5.966  0.00  0.00    +0.007 A 
ENDBRANCH  26  33
BRANCH  26  39
ATOM     39  O   UNL     1       2.571  -3.668  -4.316  0.00  0.00    -0.371 OA
ATOM     40  H   UNL     1       2.847  -2.771  -4.548  0.00  0.00    +0.212 HD
ENDBRANCH  26  39
ENDBRANCH   2  26
TORSDOF 10
