REMARK  Name = ZINC37381591
REMARK  12 active torsions:
REMARK  status: ('A' for Active; 'I' for Inactive)
REMARK    1  A    between atoms: C_1  and  C_2
REMARK    2  A    between atoms: C_2  and  C_3
REMARK    3  A    between atoms: C_2  and  C_4
REMARK    4  A    between atoms: C_2  and  C_5
REMARK    5  A    between atoms: C_8  and  C_11
REMARK    6  A    between atoms: C_11  and  C_13
REMARK    7  A    between atoms: C_11  and  C_24
REMARK    8  A    between atoms: C_13  and  C_14
REMARK    9  A    between atoms: N_16  and  C_17
REMARK   10  A    between atoms: C_17  and  C_18
REMARK   11  A    between atoms: C_18  and  N_19
REMARK   12  A    between atoms: C_31  and  N_34
REMARK                            x       y       z     vdW  Elec       q    Type
REMARK                         _______ _______ _______ _____ _____    ______ ____
ROOT
ATOM      1  C   UNL     1       2.707  -1.868  -4.752  0.00  0.00    +0.060 C 
ENDROOT
BRANCH   1   2
ATOM      2  C   UNL     1       3.162  -0.686  -5.568  0.00  0.00    -0.014 A 
ATOM      3  C   UNL     1       4.011   0.277  -5.174  0.00  0.00    +0.087 A 
ATOM      4  N   UNL     1       4.187   1.185  -6.183  0.00  0.00    -0.360 N 
ATOM      5  H   UNL     1       4.756   1.969  -6.134  0.00  0.00    +0.165 HD
ATOM      6  C   UNL     1       3.438   0.818  -7.279  0.00  0.00    +0.047 A 
ATOM      7  C   UNL     1       2.768  -0.373  -6.944  0.00  0.00    +0.006 A 
ATOM      8  C   UNL     1       1.930  -0.986  -7.876  0.00  0.00    +0.043 A 
ATOM      9  C   UNL     1       1.767  -0.428  -9.113  0.00  0.00    +0.127 A 
ATOM     10  C   UNL     1       2.429   0.745  -9.450  0.00  0.00    +0.035 A 
ATOM     11  C   UNL     1       3.254   1.372  -8.541  0.00  0.00    +0.028 A 
BRANCH   9  12
ATOM     12  N   UNL     1       0.878  -1.079 -10.101  0.00  0.00    +0.056 N 
ATOM     13  O   UNL     1       0.299  -2.100  -9.813  0.00  0.00    -0.126 OA
ATOM     14  O   UNL     1       0.730  -0.589 -11.197  0.00  0.00    -0.126 OA
ENDBRANCH   9  12
ENDBRANCH   1   2
BRANCH   1  18
ATOM     15  C   UNL     1       0.707  -0.490  -1.238  0.00  0.00    -0.042 A 
ATOM     16  C   UNL     1       0.036  -1.284  -2.148  0.00  0.00    +0.004 A 
ATOM     17  C   UNL     1       0.683  -1.730  -3.286  0.00  0.00    +0.004 A 
ATOM     18  C   UNL     1       2.001  -1.381  -3.513  0.00  0.00    -0.039 A 
ATOM     19  C   UNL     1       2.672  -0.586  -2.603  0.00  0.00    +0.004 A 
ATOM     20  C   UNL     1       2.024  -0.137  -1.467  0.00  0.00    +0.004 A 
BRANCH  15  22
ATOM     21  C   UNL     1      -0.019   1.526   0.010  0.00  0.00    +0.015 C 
ATOM     22  C   UNL     1       0.002  -0.004   0.002  0.00  0.00    -0.013 C 
ATOM     23  C   UNL     1       0.742  -0.511   1.242  0.00  0.00    +0.015 C 
ATOM     24  C   UNL     1      -1.433  -0.534   0.013  0.00  0.00    +0.015 C 
ENDBRANCH  15  22
ENDBRANCH   1  18
BRANCH   1  25
ATOM     25  C   UNL     1       3.921  -2.709  -4.351  0.00  0.00    +0.108 C 
BRANCH  25  26
ATOM     26  C   UNL     1       4.555  -3.296  -5.585  0.00  0.00    +0.214 C 
ATOM     27  O   UNL     1       4.082  -3.066  -6.678  0.00  0.00    -0.276 OA
ATOM     28  N   UNL     1       5.647  -4.079  -5.475  0.00  0.00    -0.317 N 
ATOM     29  H   UNL     1       6.025  -4.263  -4.601  0.00  0.00    +0.149 HD
BRANCH  28  30
ATOM     30  C   UNL     1       6.263  -4.650  -6.675  0.00  0.00    +0.085 C 
BRANCH  30  31
ATOM     31  C   UNL     1       7.477  -5.490  -6.273  0.00  0.00    -0.060 C 
BRANCH  31  32
ATOM     32  N   UNL     1       8.095  -6.064  -7.476  0.00  0.00    +0.381 N 
ATOM     33  C   UNL     1       8.719  -4.991  -8.292  0.00  0.00    -0.079 C 
ATOM     34  C   UNL     1       9.759  -5.756  -9.149  0.00  0.00    -0.020 C 
ATOM     35  C   UNL     1      10.294  -6.825  -8.169  0.00  0.00    -0.020 C 
ATOM     36  C   UNL     1       9.197  -6.975  -7.099  0.00  0.00    -0.079 C 
ATOM     37  H   UNL     1       7.405  -6.559  -8.021  0.00  0.00    -0.082 HD
ENDBRANCH  31  32
ENDBRANCH  30  31
ENDBRANCH  28  30
ENDBRANCH  25  26
ENDBRANCH   1  25
TORSDOF 9
