REMARK  Name = ZINC10401053
REMARK  12 active torsions:
REMARK  status: ('A' for Active; 'I' for Inactive)
REMARK    1  A    between atoms: C_1  and  C_2
REMARK    2  A    between atoms: C_2  and  C_4
REMARK    3  A    between atoms: C_2  and  O_10
REMARK    4  A    between atoms: O_10  and  C_11
REMARK    5  A    between atoms: C_11  and  C_13
REMARK    6  A    between atoms: C_16  and  O_19
REMARK    7  A    between atoms: O_19  and  C_20
REMARK    8  A    between atoms: C_23  and  C_26
REMARK    9  A    between atoms: C_26  and  O_28
REMARK   10  A    between atoms: O_28  and  C_29
REMARK   11  A    between atoms: C_29  and  C_31
REMARK   12  A    between atoms: C_29  and  C_32
REMARK                            x       y       z     vdW  Elec       q    Type
REMARK                         _______ _______ _______ _____ _____    ______ ____
ROOT
ATOM      1  O   UNL     1       1.154   3.443   0.009  0.00  0.00    -0.456 OA
ENDROOT
BRANCH   1   5
ATOM      2  C   UNL     1       1.090  -0.582   0.922  0.00  0.00    +0.059 A 
ATOM      3  C   UNL     1      -0.081   0.063   0.515  0.00  0.00    +0.018 A 
ATOM      4  C   UNL     1      -0.056   1.405   0.211  0.00  0.00    +0.047 A 
ATOM      5  C   UNL     1       1.133   2.120   0.310  0.00  0.00    +0.128 A 
ATOM      6  C   UNL     1       2.300   1.482   0.714  0.00  0.00    +0.047 A 
ATOM      7  C   UNL     1       2.283   0.140   1.020  0.00  0.00    +0.018 A 
BRANCH   2   8
ATOM      8  C   UNL     1       1.067  -2.020   1.249  0.00  0.00    +0.340 C 
ATOM      9  O   UNL     1       0.029  -2.646   1.164  0.00  0.00    -0.245 OA
BRANCH   8  10
ATOM     10  O   UNL     1       2.197  -2.640   1.641  0.00  0.00    -0.449 OA
BRANCH  10  12
ATOM     11  C   UNL     1       1.764  -4.237   3.428  0.00  0.00    +0.062 C 
ATOM     12  C   UNL     1       2.101  -4.056   1.947  0.00  0.00    +0.259 C 
BRANCH  12  13
ATOM     13  C   UNL     1       3.417  -4.726   1.646  0.00  0.00    +0.261 C 
ATOM     14  O   UNL     1       4.371  -4.061   1.303  0.00  0.00    -0.271 OA
ATOM     15  N   UNL     1       3.533  -6.064   1.758  0.00  0.00    -0.237 N 
ATOM     16  C   UNL     1       4.710  -6.663   1.489  0.00  0.00    +0.303 C 
ATOM     17  O   UNL     1       5.667  -5.997   1.145  0.00  0.00    -0.253 OA
ATOM     18  N   UNL     1       4.826  -8.001   1.600  0.00  0.00    -0.313 N 
ATOM     19  H   UNL     1       2.769  -6.596   2.032  0.00  0.00    +0.159 HD
ATOM     20  H   UNL     1       4.063  -8.533   1.874  0.00  0.00    +0.146 HD
ATOM     21  H   UNL     1       5.673  -8.432   1.407  0.00  0.00    +0.146 HD
ENDBRANCH  12  13
ENDBRANCH  10  12
ENDBRANCH   8  10
ENDBRANCH   2   8
ENDBRANCH   1   5
BRANCH   1  22
ATOM     22  C   UNL     1       2.338   4.099   0.106  0.00  0.00    +0.128 A 
ATOM     23  C   UNL     1       2.699   4.705   1.304  0.00  0.00    +0.047 A 
ATOM     24  C   UNL     1       3.901   5.368   1.408  0.00  0.00    +0.018 A 
ATOM     25  C   UNL     1       4.754   5.440   0.303  0.00  0.00    +0.059 A 
ATOM     26  C   UNL     1       4.385   4.835  -0.902  0.00  0.00    +0.018 A 
ATOM     27  C   UNL     1       3.183   4.169  -0.995  0.00  0.00    +0.047 A 
BRANCH  25  28
ATOM     28  C   UNL     1       6.041   6.154   0.408  0.00  0.00    +0.340 C 
ATOM     29  O   UNL     1       6.781   6.216  -0.553  0.00  0.00    -0.245 OA
BRANCH  28  30
ATOM     30  O   UNL     1       6.395   6.737   1.570  0.00  0.00    -0.449 OA
BRANCH  30  31
ATOM     31  C   UNL     1       7.675   7.422   1.601  0.00  0.00    +0.259 C 
ATOM     32  C   UNL     1       8.768   6.441   2.029  0.00  0.00    +0.062 C 
BRANCH  31  33
ATOM     33  C   UNL     1       7.611   8.563   2.583  0.00  0.00    +0.261 C 
ATOM     34  O   UNL     1       6.620   8.722   3.263  0.00  0.00    -0.271 OA
ATOM     35  N   UNL     1       8.655   9.405   2.707  0.00  0.00    -0.237 N 
ATOM     36  C   UNL     1       8.598  10.425   3.586  0.00  0.00    +0.303 C 
ATOM     37  O   UNL     1       7.604  10.585   4.267  0.00  0.00    -0.253 OA
ATOM     38  N   UNL     1       9.643  11.268   3.709  0.00  0.00    -0.313 N 
ATOM     39  H   UNL     1       9.448   9.277   2.163  0.00  0.00    +0.159 HD
ATOM     40  H   UNL     1      10.436  11.140   3.165  0.00  0.00    +0.146 HD
ATOM     41  H   UNL     1       9.601  12.002   4.341  0.00  0.00    +0.146 HD
ENDBRANCH  31  33
ENDBRANCH  30  31
ENDBRANCH  28  30
ENDBRANCH  25  28
ENDBRANCH   1  22
TORSDOF 10
