REMARK  Name = ZINC64581434
REMARK  14 active torsions:
REMARK  status: ('A' for Active; 'I' for Inactive)
REMARK    1  A    between atoms: C_1  and  C_2
REMARK    2  A    between atoms: C_2  and  C_3
REMARK    3  A    between atoms: C_3  and  C_5
REMARK    4  A    between atoms: C_3  and  N_6
REMARK    5  A    between atoms: C_7  and  C_9
REMARK    6  A    between atoms: N_18  and  C_21
REMARK    7  A    between atoms: C_21  and  C_22
REMARK    8  A    between atoms: N_24  and  C_25
REMARK    9  A    between atoms: C_28  and  C_31
REMARK   10  A    between atoms: C_31  and  C_32
REMARK   11  A    between atoms: C_31  and  C_33
REMARK   12  A    between atoms: N_34  and  C_37
REMARK   13  A    between atoms: C_37  and  C_38
REMARK   14  A    between atoms: C_37  and  C_39
REMARK                            x       y       z     vdW  Elec       q    Type
REMARK                         _______ _______ _______ _____ _____    ______ ____
ROOT
ATOM      1  C   UNL     1      -0.204   0.437  -4.821  0.00  0.00    +0.039 A 
ATOM      2  C   UNL     1      -1.579   0.655  -4.709  0.00  0.00    +0.014 A 
ATOM      3  C   UNL     1      -2.318   1.007  -5.817  0.00  0.00    +0.016 A 
ATOM      4  C   UNL     1      -1.689   1.145  -7.054  0.00  0.00    +0.064 A 
ATOM      5  C   UNL     1      -0.308   0.927  -7.171  0.00  0.00    +0.067 A 
ATOM      6  C   UNL     1       0.431   0.579  -6.052  0.00  0.00    +0.040 A 
ATOM      7  N   UNL     1       0.303   1.069  -8.416  0.00  0.00    -0.229 N 
ATOM      8  C   UNL     1      -0.437   1.421  -9.523  0.00  0.00    +0.240 A 
ATOM      9  N   UNL     1       0.364   1.487 -10.551  0.00  0.00    -0.129 NA
ATOM     10  N   UNL     1       1.658   1.173 -10.117  0.00  0.00    -0.202 N 
ATOM     11  C   UNL     1       1.590   0.920  -8.795  0.00  0.00    +0.353 A 
ATOM     12  O   UNL     1       2.522   0.613  -8.072  0.00  0.00    -0.244 OA
ATOM     13  N   UNL     1      -1.805   1.643  -9.434  0.00  0.00    -0.274 N 
ATOM     14  C   UNL     1      -2.454   1.521  -8.259  0.00  0.00    +0.263 A 
ATOM     15  O   UNL     1      -3.653   1.717  -8.194  0.00  0.00    -0.267 OA
ENDROOT
BRANCH   1  17
ATOM     16  N   UNL     1      -0.029  -0.079  -2.432  0.00  0.00    -0.309 N 
ATOM     17  C   UNL     1       0.583   0.059  -3.624  0.00  0.00    +0.244 C 
ATOM     18  O   UNL     1       1.780  -0.127  -3.718  0.00  0.00    -0.270 OA
ATOM     19  H   UNL     1      -0.985   0.069  -2.357  0.00  0.00    +0.149 HD
BRANCH  16  20
ATOM     20  C   UNL     1       0.749  -0.453  -1.248  0.00  0.00    +0.070 C 
ATOM     21  C   UNL     1       0.886  -1.976  -1.188  0.00  0.00    +0.028 C 
BRANCH  20  23
ATOM     22  C   UNL     1       0.006   1.574   0.011  0.00  0.00    +0.005 C 
ATOM     23  C   UNL     1       0.034   0.044   0.010  0.00  0.00    +0.018 C 
ENDBRANCH  20  23
ENDBRANCH  16  20
ENDBRANCH   1  17
BRANCH  13  24
ATOM     24  C   UNL     1      -2.554   2.015 -10.637  0.00  0.00    +0.088 C 
ATOM     25  C   UNL     1      -3.634   0.966 -10.909  0.00  0.00    +0.031 C 
ATOM     26  C   UNL     1      -3.211   3.381 -10.426  0.00  0.00    +0.031 C 
ENDBRANCH  13  24
BRANCH  10  27
ATOM     27  C   UNL     1       2.864   1.128 -10.948  0.00  0.00    +0.245 C 
BRANCH  27  28
ATOM     28  C   UNL     1       3.037  -0.260 -11.508  0.00  0.00    +0.239 C 
ATOM     29  O   UNL     1       2.232  -1.127 -11.240  0.00  0.00    -0.273 OA
ATOM     30  N   UNL     1       4.086  -0.538 -12.307  0.00  0.00    -0.284 N 
ATOM     31  H   UNL     1       4.693   0.170 -12.576  0.00  0.00    +0.155 HD
BRANCH  30  32
ATOM     32  C   UNL     1       4.301  -1.848 -12.749  0.00  0.00    +0.033 A 
ATOM     33  C   UNL     1       5.595  -2.328 -12.901  0.00  0.00    +0.023 A 
ATOM     34  C   UNL     1       5.804  -3.622 -13.337  0.00  0.00    +0.006 A 
ATOM     35  C   UNL     1       4.726  -4.439 -13.622  0.00  0.00    -0.045 A 
ATOM     36  C   UNL     1       3.436  -3.964 -13.473  0.00  0.00    +0.006 A 
ATOM     37  C   UNL     1       3.220  -2.674 -13.031  0.00  0.00    +0.023 A 
BRANCH  35  38
ATOM     38  C   UNL     1       4.957  -5.850 -14.098  0.00  0.00    +0.013 C 
ATOM     39  C   UNL     1       4.313  -6.832 -13.117  0.00  0.00    +0.012 C 
ATOM     40  C   UNL     1       4.332  -6.030 -15.483  0.00  0.00    +0.012 C 
ENDBRANCH  35  38
ENDBRANCH  30  32
ENDBRANCH  27  28
ENDBRANCH  10  27
TORSDOF 8
