REMARK  Name = ZINC39694897
REMARK  11 active torsions:
REMARK  status: ('A' for Active; 'I' for Inactive)
REMARK    1  A    between atoms: C_1  and  C_2
REMARK    2  A    between atoms: C_4  and  C_37
REMARK    3  A    between atoms: C_6  and  C_8
REMARK    4  A    between atoms: C_8  and  N_9
REMARK    5  A    between atoms: C_10  and  C_12
REMARK    6  A    between atoms: C_23  and  C_25
REMARK    7  A    between atoms: C_25  and  C_27
REMARK    8  A    between atoms: C_25  and  O_30
REMARK    9  A    between atoms: C_27  and  C_28
REMARK   10  A    between atoms: C_27  and  C_29
REMARK   11  A    between atoms: O_30  and  C_31
REMARK                            x       y       z     vdW  Elec       q    Type
REMARK                         _______ _______ _______ _____ _____    ______ ____
ROOT
ATOM      1  C   UNL     1       3.903  -3.490   3.613  0.00  0.00    +0.100 C 
ATOM      2  C   UNL     1       4.351  -2.096   4.107  0.00  0.00    +0.121 C 
ATOM      3  N   UNL     1       4.154  -2.138   5.575  0.00  0.00    -0.297 N 
ATOM      4  C   UNL     1       4.582  -3.503   5.965  0.00  0.00    +0.115 C 
ATOM      5  C   UNL     1       4.060  -4.411   4.834  0.00  0.00    -0.004 C 
ATOM      6  C   UNL     1       5.069  -5.516   4.536  0.00  0.00    -0.010 C 
ATOM      7  C   UNL     1       5.164  -6.453   5.744  0.00  0.00    -0.082 C 
ATOM      8  N   UNL     1       3.844  -7.030   6.024  0.00  0.00    +0.379 N 
ATOM      9  C   UNL     1       2.903  -5.968   6.400  0.00  0.00    -0.082 C 
ATOM     10  C   UNL     1       2.712  -5.011   5.220  0.00  0.00    -0.010 C 
ATOM     11  C   UNL     1       3.690  -1.158   6.375  0.00  0.00    +0.257 C 
ATOM     12  O   UNL     1       3.666  -1.316   7.578  0.00  0.00    -0.272 OA
ATOM     13  H   UNL     1       3.503  -7.503   5.200  0.00  0.00    -0.086 HD
ATOM     14  H   UNL     1       3.921  -7.693   6.780  0.00  0.00    -0.086 HD
ENDROOT
BRANCH   1  16
ATOM     15  N   UNL     1       2.092  -4.087   2.038  0.00  0.00    -0.311 N 
ATOM     16  C   UNL     1       2.464  -3.451   3.166  0.00  0.00    +0.218 C 
ATOM     17  O   UNL     1       1.642  -2.848   3.823  0.00  0.00    -0.275 OA
ATOM     18  H   UNL     1       2.750  -4.569   1.513  0.00  0.00    +0.149 HD
BRANCH  15  19
ATOM     19  C   UNL     1       0.693  -4.049   1.604  0.00  0.00    +0.139 C 
BRANCH  19  25
ATOM     20  C   UNL     1       0.724  -4.223  -3.398  0.00  0.00    +0.044 C 
ATOM     21  C   UNL     1       0.557  -4.914  -2.069  0.00  0.00    -0.050 A 
ATOM     22  C   UNL     1       0.267  -6.265  -2.024  0.00  0.00    +0.006 A 
ATOM     23  C   UNL     1       0.114  -6.899  -0.805  0.00  0.00    -0.050 A 
ATOM     24  C   UNL     1       0.252  -6.181   0.369  0.00  0.00    +0.008 A 
ATOM     25  C   UNL     1       0.543  -4.831   0.324  0.00  0.00    -0.030 A 
ATOM     26  C   UNL     1       0.701  -4.198  -0.895  0.00  0.00    +0.008 A 
ATOM     27  C   UNL     1      -0.204  -8.371  -0.755  0.00  0.00    +0.044 C 
ENDBRANCH  19  25
ENDBRANCH  15  19
ENDBRANCH   1  16
BRANCH  11  28
ATOM     28  C   UNL     1       3.202   0.136   5.776  0.00  0.00    +0.261 C 
BRANCH  28  29
ATOM     29  C   UNL     1       1.709   0.301   6.065  0.00  0.00    +0.033 C 
ATOM     30  C   UNL     1       1.229   1.647   5.520  0.00  0.00    +0.011 C 
ATOM     31  C   UNL     1       0.931  -0.830   5.389  0.00  0.00    +0.011 C 
ENDBRANCH  28  29
BRANCH  28  32
ATOM     32  O   UNL     1       3.922   1.229   6.351  0.00  0.00    -0.479 OA
BRANCH  32  33
ATOM     33  C   UNL     1       4.234   2.263   5.527  0.00  0.00    +0.122 A 
ATOM     34  C   UNL     1       4.912   3.367   6.024  0.00  0.00    +0.045 A 
ATOM     35  C   UNL     1       5.229   4.417   5.184  0.00  0.00    +0.004 A 
ATOM     36  C   UNL     1       4.871   4.369   3.850  0.00  0.00    +0.000 A 
ATOM     37  C   UNL     1       4.196   3.270   3.352  0.00  0.00    +0.004 A 
ATOM     38  C   UNL     1       3.882   2.215   4.186  0.00  0.00    +0.045 A 
ENDBRANCH  32  33
ENDBRANCH  28  32
ENDBRANCH  11  28
TORSDOF 7
