REMARK  Name = ZINC09080066
REMARK  11 active torsions:
REMARK  status: ('A' for Active; 'I' for Inactive)
REMARK    1  A    between atoms: C_1  and  N_2
REMARK    2  A    between atoms: N_2  and  C_3
REMARK    3  A    between atoms: N_2  and  C_4
REMARK    4  A    between atoms: C_7  and  C_10
REMARK    5  A    between atoms: C_10  and  C_12
REMARK    6  A    between atoms: C_10  and  S_27
REMARK    7  A    between atoms: C_12  and  N_13
REMARK    8  A    between atoms: C_14  and  C_16
REMARK    9  A    between atoms: N_18  and  N_19
REMARK   10  A    between atoms: C_20  and  C_22
REMARK   11  A    between atoms: S_27  and  C_30
REMARK                            x       y       z     vdW  Elec       q    Type
REMARK                         _______ _______ _______ _____ _____    ______ ____
ROOT
ATOM      1  C   UNL     1      -3.125   0.601   1.773  0.00  0.00    +0.183 C 
ENDROOT
BRANCH   1   5
ATOM      2  C   UNL     1      -3.543   4.398   3.691  0.00  0.00    +0.029 A 
ATOM      3  C   UNL     1      -4.608   3.506   3.672  0.00  0.00    +0.023 A 
ATOM      4  C   UNL     1      -4.470   2.280   3.052  0.00  0.00    +0.007 A 
ATOM      5  C   UNL     1      -3.272   1.940   2.449  0.00  0.00    -0.021 A 
ATOM      6  C   UNL     1      -2.209   2.823   2.470  0.00  0.00    +0.007 A 
ATOM      7  C   UNL     1      -2.342   4.053   3.084  0.00  0.00    +0.023 A 
BRANCH   2   9
ATOM      8  C   UNL     1      -4.947   6.000   4.957  0.00  0.00    +0.129 C 
ATOM      9  N   UNL     1      -3.680   5.638   4.317  0.00  0.00    -0.336 N 
ATOM     10  C   UNL     1      -2.556   6.578   4.336  0.00  0.00    +0.129 C 
ENDBRANCH   2   9
ENDBRANCH   1   5
BRANCH   1  11
ATOM     11  S   UNL     1      -2.733   0.849   0.020  0.00  0.00    +0.005 S 
ATOM     12  O   UNL     1      -3.679   1.727  -0.574  0.00  0.00    -0.169 OA
ATOM     13  O   UNL     1      -2.415  -0.394  -0.592  0.00  0.00    -0.169 OA
BRANCH  11  14
ATOM     14  C   UNL     1      -1.219   1.751   0.017  0.00  0.00    +0.089 A 
ATOM     15  C   UNL     1      -0.013   1.076   0.008  0.00  0.00    +0.027 A 
ATOM     16  C   UNL     1       1.175   1.783   0.000  0.00  0.00    +0.002 A 
ATOM     17  C   UNL     1       1.156   3.165   0.008  0.00  0.00    +0.000 A 
ATOM     18  C   UNL     1      -0.050   3.840   0.022  0.00  0.00    +0.002 A 
ATOM     19  C   UNL     1      -1.238   3.133   0.030  0.00  0.00    +0.027 A 
ENDBRANCH  11  14
ENDBRANCH   1  11
BRANCH   1  20
ATOM     20  C   UNL     1      -1.996  -0.186   2.442  0.00  0.00    +0.136 C 
BRANCH  20  21
ATOM     21  N   UNL     1      -1.853  -1.488   1.785  0.00  0.00    -0.305 N 
ATOM     22  C   UNL     1      -0.914  -2.357   2.209  0.00  0.00    +0.301 C 
ATOM     23  O   UNL     1      -0.188  -2.062   3.135  0.00  0.00    -0.265 OA
ATOM     24  H   UNL     1      -2.434  -1.724   1.045  0.00  0.00    +0.149 HD
BRANCH  22  25
ATOM     25  C   UNL     1      -0.768  -3.685   1.538  0.00  0.00    +0.315 C 
ATOM     26  O   UNL     1      -1.494  -3.980   0.612  0.00  0.00    -0.264 OA
ATOM     27  N   UNL     1       0.171  -4.554   1.962  0.00  0.00    -0.226 N 
ATOM     28  H   UNL     1       0.752  -4.318   2.702  0.00  0.00    +0.173 HD
BRANCH  27  29
ATOM     29  N   UNL     1       0.308  -5.798   1.334  0.00  0.00    -0.230 N 
ATOM     30  C   UNL     1       1.247  -6.668   1.757  0.00  0.00    +0.267 C 
ATOM     31  O   UNL     1       1.976  -6.371   2.686  0.00  0.00    -0.268 OA
ATOM     32  H   UNL     1      -0.273  -6.035   0.593  0.00  0.00    +0.173 HD
BRANCH  30  33
ATOM     33  C   UNL     1       1.391  -7.970   1.100  0.00  0.00    +0.075 A 
ATOM     34  C   UNL     1       2.285  -8.993   1.374  0.00  0.00    +0.021 A 
ATOM     35  C   UNL     1       2.200 -10.122   0.598  0.00  0.00    +0.008 A 
ATOM     36  C   UNL     1       1.269 -10.179  -0.391  0.00  0.00    +0.046 A 
ATOM     37  S   UNL     1       0.465  -8.648  -0.267  0.00  0.00    -0.092 S 
ENDBRANCH  30  33
ENDBRANCH  27  29
ENDBRANCH  22  25
ENDBRANCH  20  21
ENDBRANCH   1  20
TORSDOF 9
