REMARK  Name = ZINC14884594
REMARK  10 active torsions:
REMARK  status: ('A' for Active; 'I' for Inactive)
REMARK    1  A    between atoms: C_1  and  C_2
REMARK    2  A    between atoms: C_5  and  C_7
REMARK    3  A    between atoms: C_11  and  O_13
REMARK    4  A    between atoms: O_13  and  C_14
REMARK    5  A    between atoms: C_14  and  C_15
REMARK    6  A    between atoms: C_26  and  C_27
REMARK    7  A    between atoms: C_26  and  N_68
REMARK    8  A    between atoms: C_30  and  O_34
REMARK    9  A    between atoms: C_32  and  O_33
REMARK   10  A    between atoms: O_34  and  C_35
REMARK                            x       y       z     vdW  Elec       q    Type
REMARK                         _______ _______ _______ _____ _____    ______ ____
ROOT
ATOM      1  C   UNL     1       1.992   7.634   0.186  0.00  0.00    -0.007 A 
ATOM      2  C   UNL     1       3.275   8.177   0.081  0.00  0.00    +0.014 A 
ATOM      3  C   UNL     1       4.359   7.339  -0.073  0.00  0.00    -0.018 A 
ATOM      4  C   UNL     1       4.187   5.970  -0.130  0.00  0.00    +0.163 A 
ATOM      5  C   UNL     1       2.912   5.420  -0.018  0.00  0.00    +0.163 A 
ATOM      6  C   UNL     1       1.817   6.250   0.141  0.00  0.00    +0.058 A 
ATOM      7  O   UNL     1       5.262   5.160  -0.342  0.00  0.00    -0.490 OA
ATOM      8  C   UNL     1       5.860   5.253  -1.641  0.00  0.00    +0.211 C 
ATOM      9  C   UNL     1       6.868   6.381  -1.689  0.00  0.00    -0.036 C 
ATOM     10  C   UNL     1       5.758   7.918  -0.161  0.00  0.00    -0.039 C 
ATOM     11  N   UNL     1       6.247   7.715  -1.545  0.00  0.00    +0.387 N 
ATOM     12  H   UNL     1       5.450   7.779  -2.189  0.00  0.00    -0.081 HD
ENDROOT
BRANCH   1  17
ATOM     13  C   UNL     1      -1.804  11.762   0.758  0.00  0.00    +0.051 C 
ATOM     14  C   UNL     1      -0.997  10.497   0.618  0.00  0.00    -0.013 A 
ATOM     15  C   UNL     1      -1.426   9.209   0.603  0.00  0.00    +0.011 A 
ATOM     16  C   UNL     1      -0.502   8.196   0.464  0.00  0.00    +0.016 A 
ATOM     17  C   UNL     1       0.822   8.524   0.345  0.00  0.00    +0.020 A 
ATOM     18  S   UNL     1       0.769  10.306   0.439  0.00  0.00    -0.093 S 
ENDBRANCH   1  17
BRANCH   5  19
ATOM     19  O   UNL     1       2.744   4.071  -0.059  0.00  0.00    -0.486 OA
BRANCH  19  20
ATOM     20  C   UNL     1       1.409   3.578   0.068  0.00  0.00    +0.260 C 
BRANCH  20  21
ATOM     21  C   UNL     1       1.420   2.050  -0.001  0.00  0.00    +0.156 C 
ATOM     22  C   UNL     1      -0.019   1.528   0.010  0.00  0.00    +0.035 C 
ATOM     23  C   UNL     1       0.002  -0.004   0.002  0.00  0.00    +0.005 C 
ATOM     24  C   UNL     1       0.809  -0.499   1.206  0.00  0.00    +0.028 C 
ATOM     25  C   UNL     1       2.216   0.101   1.149  0.00  0.00    +0.160 C 
ATOM     26  O   UNL     1       2.124   1.527   1.128  0.00  0.00    -0.373 OA
ENDBRANCH  20  21
ENDBRANCH  19  20
ENDBRANCH   5  19
BRANCH  11  27
ATOM     27  C   UNL     1       7.224   8.760  -1.892  0.00  0.00    -0.039 C 
BRANCH  27  28
ATOM     28  C   UNL     1       7.543   8.650  -3.361  0.00  0.00    -0.022 A 
ATOM     29  C   UNL     1       8.716   8.043  -3.769  0.00  0.00    +0.009 A 
ATOM     30  C   UNL     1       9.012   7.941  -5.115  0.00  0.00    +0.046 A 
ATOM     31  C   UNL     1       8.131   8.448  -6.060  0.00  0.00    +0.124 A 
ATOM     32  C   UNL     1       6.954   9.057  -5.653  0.00  0.00    +0.091 A 
ATOM     33  C   UNL     1       6.657   9.154  -4.302  0.00  0.00    +0.122 A 
BRANCH  33  34
ATOM     34  O   UNL     1       5.502   9.745  -3.901  0.00  0.00    -0.506 OA
ATOM     35  H   UNL     1       5.578  10.698  -3.753  0.00  0.00    +0.292 HD
ENDBRANCH  33  34
BRANCH  31  36
ATOM     36  O   UNL     1       8.422   8.347  -7.384  0.00  0.00    -0.495 OA
ATOM     37  C   UNL     1       9.652   7.707  -7.730  0.00  0.00    +0.277 C 
ENDBRANCH  31  36
ENDBRANCH  27  28
ENDBRANCH  11  27
TORSDOF 8
