REMARK  Name = ZINC04834566
REMARK  7 active torsions:
REMARK  status: ('A' for Active; 'I' for Inactive)
REMARK    1  A    between atoms: C_3  and  N_26
REMARK    2  A    between atoms: C_6  and  C_7
REMARK    3  A    between atoms: C_10  and  C_12
REMARK    4  A    between atoms: C_12  and  C_24
REMARK    5  A    between atoms: C_13  and  N_14
REMARK    6  A    between atoms: N_14  and  C_15
REMARK    7  A    between atoms: C_18  and  C_21
REMARK                            x       y       z     vdW  Elec       q    Type
REMARK                         _______ _______ _______ _____ _____    ______ ____
ROOT
ATOM      1  C   UNL     1      -4.902  -0.465   0.270  0.00  0.00    +0.098 C 
ATOM      2  C   UNL     1      -5.928  -1.391  -0.044  0.00  0.00    +0.093 C 
ENDROOT
BRANCH   1   6
ATOM      3  C   UNL     1      -1.478  -0.826   1.373  0.00  0.00    +0.079 A 
ATOM      4  C   UNL     1      -1.585  -2.283   1.588  0.00  0.00    +0.075 A 
ATOM      5  S   UNL     1      -3.183  -2.587   1.154  0.00  0.00    -0.074 S 
ATOM      6  C   UNL     1      -3.661  -0.923   0.726  0.00  0.00    +0.120 A 
ATOM      7  N   UNL     1      -2.543  -0.216   0.952  0.00  0.00    -0.238 NA
BRANCH   3  13
ATOM      8  C   UNL     1      -0.155   1.286   1.422  0.00  0.00    +0.012 A 
ATOM      9  C   UNL     1       1.022   1.958   1.666  0.00  0.00    +0.033 A 
ATOM     10  C   UNL     1       2.138   1.271   2.117  0.00  0.00    +0.126 A 
ATOM     11  C   UNL     1       2.079  -0.098   2.326  0.00  0.00    +0.033 A 
ATOM     12  C   UNL     1       0.910  -0.786   2.087  0.00  0.00    +0.012 A 
ATOM     13  C   UNL     1      -0.222  -0.098   1.631  0.00  0.00    +0.001 A 
BRANCH  10  14
ATOM     14  N   UNL     1       3.398   2.002   2.376  0.00  0.00    +0.056 N 
ATOM     15  O   UNL     1       3.458   3.303   2.178  0.00  0.00    -0.126 OA
ATOM     16  O   UNL     1       4.461   1.352   2.804  0.00  0.00    -0.126 OA
ENDBRANCH  10  14
ENDBRANCH   3  13
ENDBRANCH   1   6
BRANCH   2  17
ATOM     17  N   UNL     1      -5.662  -2.696  -0.067  0.00  0.00    -0.319 N 
ATOM     18  H   UNL     1      -4.753  -3.008   0.058  0.00  0.00    +0.152 HD
BRANCH  17  19
ATOM     19  C   UNL     1      -6.688  -3.610  -0.270  0.00  0.00    +0.031 A 
ATOM     20  C   UNL     1      -8.005  -3.166  -0.371  0.00  0.00    +0.024 A 
ATOM     21  C   UNL     1      -9.023  -4.070  -0.572  0.00  0.00    +0.015 A 
ATOM     22  C   UNL     1      -8.735  -5.434  -0.675  0.00  0.00    +0.037 A 
ATOM     23  C   UNL     1      -7.413  -5.877  -0.574  0.00  0.00    +0.015 A 
ATOM     24  C   UNL     1      -6.398  -4.968  -0.378  0.00  0.00    +0.024 A 
BRANCH  22  25
ATOM     25  C   UNL     1      -9.826  -6.406  -0.890  0.00  0.00    +0.242 C 
ATOM     26  O   UNL     1     -10.976  -6.020  -0.977  0.00  0.00    -0.270 OA
ATOM     27  N   UNL     1      -9.547  -7.721  -0.989  0.00  0.00    -0.325 N 
ATOM     28  H   UNL     1      -8.630  -8.029  -0.919  0.00  0.00    +0.145 HD
ATOM     29  H   UNL     1     -10.264  -8.359  -1.131  0.00  0.00    +0.145 HD
ENDBRANCH  22  25
ENDBRANCH  17  19
ENDBRANCH   2  17
BRANCH   1  30
ATOM     30  C   UNL     1      -5.136   0.940   0.121  0.00  0.00    +0.103 C 
ATOM     31  N   UNL     1      -5.322   2.055   0.004  0.00  0.00    -0.191 NA
ENDBRANCH   1  30
TORSDOF 7
