REMARK  Name = ZINC36581979
REMARK  17 active torsions:
REMARK  status: ('A' for Active; 'I' for Inactive)
REMARK    1  A    between atoms: C_1  and  C_2
REMARK    2  A    between atoms: C_2  and  C_3
REMARK    3  A    between atoms: C_3  and  C_4
REMARK    4  A    between atoms: C_4  and  C_5
REMARK    5  A    between atoms: C_5  and  C_6
REMARK    6  A    between atoms: C_7  and  C_8
REMARK    7  A    between atoms: N_10  and  C_11
REMARK    8  A    between atoms: N_10  and  C_31
REMARK    9  A    between atoms: C_11  and  C_13
REMARK   10  A    between atoms: C_11  and  C_22
REMARK   11  A    between atoms: C_14  and  O_21
REMARK   12  A    between atoms: C_16  and  O_20
REMARK   13  A    between atoms: C_18  and  O_19
REMARK   14  A    between atoms: N_24  and  C_25
REMARK   15  A    between atoms: C_31  and  C_32
REMARK   16  A    between atoms: C_31  and  C_33
REMARK   17  A    between atoms: C_31  and  C_34
REMARK                            x       y       z     vdW  Elec       q    Type
REMARK                         _______ _______ _______ _____ _____    ______ ____
ROOT
ATOM      1  C   UNL     1       0.533  -8.133  -4.373  0.00  0.00    +0.200 C 
ENDROOT
BRANCH   1   2
ATOM      2  C   UNL     1      -0.886  -7.651  -4.207  0.00  0.00    +0.065 A 
ATOM      3  C   UNL     1      -1.337  -6.561  -4.936  0.00  0.00    +0.129 A 
ATOM      4  C   UNL     1      -2.642  -6.118  -4.784  0.00  0.00    +0.091 A 
ATOM      5  C   UNL     1      -3.496  -6.765  -3.903  0.00  0.00    +0.124 A 
ATOM      6  C   UNL     1      -3.045  -7.856  -3.175  0.00  0.00    +0.091 A 
ATOM      7  C   UNL     1      -1.741  -8.302  -3.330  0.00  0.00    +0.129 A 
BRANCH   7   8
ATOM      8  O   UNL     1      -1.300  -9.373  -2.620  0.00  0.00    -0.506 OA
ATOM      9  H   UNL     1      -0.914  -9.146  -1.764  0.00  0.00    +0.292 HD
ENDBRANCH   7   8
BRANCH   5  10
ATOM     10  O   UNL     1      -4.775  -6.330  -3.753  0.00  0.00    -0.507 OA
ATOM     11  H   UNL     1      -5.405  -6.745  -4.358  0.00  0.00    +0.292 HD
ENDBRANCH   5  10
BRANCH   3  12
ATOM     12  O   UNL     1      -0.501  -5.927  -5.799  0.00  0.00    -0.506 OA
ATOM     13  H   UNL     1      -0.579  -6.227  -6.715  0.00  0.00    +0.292 HD
ENDBRANCH   3  12
ENDBRANCH   1   2
BRANCH   1  14
ATOM     14  C   UNL     1       0.728  -8.648  -5.775  0.00  0.00    +0.239 C 
ATOM     15  O   UNL     1       1.208  -7.928  -6.625  0.00  0.00    -0.273 OA
ATOM     16  N   UNL     1       0.368  -9.910  -6.086  0.00  0.00    -0.311 N 
ATOM     17  H   UNL     1      -0.016 -10.486  -5.406  0.00  0.00    +0.149 HD
BRANCH  16  18
ATOM     18  C   UNL     1       0.558 -10.411  -7.449  0.00  0.00    +0.073 C 
ATOM     19  C   UNL     1      -0.642 -10.013  -8.310  0.00  0.00    +0.022 C 
ATOM     20  C   UNL     1      -0.445 -10.536  -9.734  0.00  0.00    +0.002 C 
ATOM     21  C   UNL     1      -0.321 -12.061  -9.705  0.00  0.00    +0.000 C 
ATOM     22  C   UNL     1       0.879 -12.459  -8.844  0.00  0.00    +0.002 C 
ATOM     23  C   UNL     1       0.681 -11.935  -7.420  0.00  0.00    +0.022 C 
ENDBRANCH  16  18
ENDBRANCH   1  14
BRANCH   1  26
ATOM     24  C   UNL     1       0.992  -5.851  -3.651  0.00  0.00    +0.240 C 
ATOM     25  O   UNL     1      -0.173  -5.751  -3.315  0.00  0.00    -0.271 OA
ATOM     26  N   UNL     1       1.457  -7.023  -4.127  0.00  0.00    -0.277 N 
BRANCH  26  27
ATOM     27  C   UNL     1       2.887  -7.187  -4.400  0.00  0.00    +0.030 C 
ATOM     28  C   UNL     1       3.686  -6.881  -3.132  0.00  0.00    +0.031 C 
ATOM     29  C   UNL     1       3.161  -8.626  -4.840  0.00  0.00    +0.031 C 
ATOM     30  C   UNL     1       3.308  -6.224  -5.512  0.00  0.00    +0.031 C 
ENDBRANCH  26  27
BRANCH  24  32
ATOM     31  C   UNL     1       1.403  -3.499  -3.217  0.00  0.00    -0.022 C 
ATOM     32  C   UNL     1       1.893  -4.694  -3.536  0.00  0.00    +0.063 C 
BRANCH  31  33
ATOM     33  C   UNL     1       2.326  -2.314  -3.100  0.00  0.00    +0.027 C 
BRANCH  33  34
ATOM     34  C   UNL     1       1.832  -1.191  -4.013  0.00  0.00    +0.004 C 
BRANCH  34  35
ATOM     35  C   UNL     1       2.769   0.013  -3.894  0.00  0.00    +0.000 C 
BRANCH  35  37
ATOM     36  C   UNL     1       3.212   2.340  -4.689  0.00  0.00    +0.004 C 
ATOM     37  C   UNL     1       2.275   1.136  -4.808  0.00  0.00    -0.003 C 
ENDBRANCH  35  37
ENDBRANCH  34  35
ENDBRANCH  33  34
ENDBRANCH  31  33
ENDBRANCH  24  32
ENDBRANCH   1  26
TORSDOF 13
