REMARK  Name = ZINC16610158
REMARK  14 active torsions:
REMARK  status: ('A' for Active; 'I' for Inactive)
REMARK    1  A    between atoms: C_1  and  C_2
REMARK    2  A    between atoms: C_2  and  O_3
REMARK    3  A    between atoms: O_3  and  C_4
REMARK    4  A    between atoms: C_7  and  N_10
REMARK    5  A    between atoms: N_13  and  C_14
REMARK    6  A    between atoms: C_17  and  C_20
REMARK    7  A    between atoms: C_22  and  C_30
REMARK    8  A    between atoms: C_23  and  C_29
REMARK    9  A    between atoms: N_24  and  C_28
REMARK   10  A    between atoms: C_30  and  O_32
REMARK   11  A    between atoms: O_32  and  C_33
REMARK   12  A    between atoms: C_33  and  C_34
REMARK   13  A    between atoms: C_34  and  C_35
REMARK   14  A    between atoms: C_34  and  C_36
REMARK                            x       y       z     vdW  Elec       q    Type
REMARK                         _______ _______ _______ _____ _____    ______ ____
ROOT
ATOM      1  C   UNL     1      -0.396   2.621   7.082  0.00  0.00    +0.035 A 
ATOM      2  C   UNL     1      -1.493   3.440   6.848  0.00  0.00    +0.024 A 
ATOM      3  C   UNL     1      -2.120   3.418   5.618  0.00  0.00    +0.007 A 
ATOM      4  C   UNL     1      -1.657   2.581   4.619  0.00  0.00    -0.022 A 
ATOM      5  C   UNL     1      -0.568   1.761   4.850  0.00  0.00    +0.007 A 
ATOM      6  C   UNL     1       0.067   1.782   6.076  0.00  0.00    +0.024 A 
ENDROOT
BRANCH   4   7
ATOM      7  C   UNL     1      -2.345   2.559   3.278  0.00  0.00    +0.141 C 
ATOM      8  C   UNL     1      -1.641   3.552   2.376  0.00  0.00    +0.078 C 
ATOM      9  C   UNL     1      -1.111   3.089   1.223  0.00  0.00    +0.021 C 
ATOM     10  N   UNL     1      -1.215   1.772   0.879  0.00  0.00    -0.289 N 
ATOM     11  C   UNL     1      -1.824   0.852   1.638  0.00  0.00    +0.137 C 
ATOM     12  S   UNL     1      -1.878  -0.769   1.091  0.00  0.00    -0.018 S 
ATOM     13  N   UNL     1      -2.397   1.161   2.818  0.00  0.00    -0.315 N 
ATOM     14  C   UNL     1      -0.622   1.340  -0.388  0.00  0.00    +0.137 C 
ATOM     15  C   UNL     1      -0.398   4.042   0.299  0.00  0.00    +0.061 C 
ATOM     16  H   UNL     1      -2.833   0.479   3.352  0.00  0.00    +0.149 HD
BRANCH   8  17
ATOM     17  C   UNL     1      -1.538   4.917   2.731  0.00  0.00    +0.339 C 
ATOM     18  O   UNL     1      -1.952   5.298   3.810  0.00  0.00    -0.245 OA
BRANCH  17  19
ATOM     19  O   UNL     1      -0.980   5.798   1.874  0.00  0.00    -0.461 OA
BRANCH  19  20
ATOM     20  C   UNL     1      -0.806   7.137   2.341  0.00  0.00    +0.235 C 
BRANCH  20  21
ATOM     21  C   UNL     1      -0.054   7.951   1.286  0.00  0.00    +0.020 C 
ATOM     22  C   UNL     1      -0.882   8.010   0.001  0.00  0.00    +0.010 C 
ATOM     23  C   UNL     1       0.179   9.370   1.808  0.00  0.00    +0.010 C 
ENDBRANCH  20  21
ENDBRANCH  19  20
ENDBRANCH  17  19
ENDBRANCH   8  17
ENDBRANCH   4   7
BRANCH   1  27
ATOM     24  N   UNL     1       0.147   2.954  10.638  0.00  0.00    -0.269 N 
ATOM     25  C   UNL     1      -0.477   2.841   9.449  0.00  0.00    +0.308 C 
ATOM     26  O   UNL     1      -1.689   2.919   9.389  0.00  0.00    -0.252 OA
ATOM     27  N   UNL     1       0.242   2.640   8.327  0.00  0.00    -0.269 N 
ATOM     28  H   UNL     1       1.116   2.960  10.679  0.00  0.00    +0.156 HD
ATOM     29  H   UNL     1       1.202   2.510   8.383  0.00  0.00    +0.156 HD
BRANCH  24  33
ATOM     30  C   UNL     1      -2.089   3.279  14.143  0.00  0.00    +0.121 A 
ATOM     31  C   UNL     1      -2.554   2.501  13.094  0.00  0.00    +0.047 A 
ATOM     32  C   UNL     1      -1.815   2.393  11.933  0.00  0.00    +0.027 A 
ATOM     33  C   UNL     1      -0.604   3.063  11.816  0.00  0.00    +0.035 A 
ATOM     34  C   UNL     1      -0.136   3.838  12.869  0.00  0.00    +0.027 A 
ATOM     35  C   UNL     1      -0.880   3.950  14.028  0.00  0.00    +0.047 A 
BRANCH  30  36
ATOM     36  O   UNL     1      -2.817   3.385  15.287  0.00  0.00    -0.492 OA
BRANCH  36  38
ATOM     37  C   UNL     1      -3.230   4.200  17.524  0.00  0.00    +0.048 C 
ATOM     38  C   UNL     1      -2.278   4.203  16.327  0.00  0.00    +0.225 C 
ENDBRANCH  36  38
ENDBRANCH  30  36
ENDBRANCH  24  33
ENDBRANCH   1  27
TORSDOF 9
