REMARK  Name = ZINC37656197
REMARK  4 active torsions:
REMARK  status: ('A' for Active; 'I' for Inactive)
REMARK    1  A    between atoms: C_3  and  N_9
REMARK    2  A    between atoms: N_9  and  S_10
REMARK    3  A    between atoms: S_10  and  N_13
REMARK    4  A    between atoms: C_17  and  C_20
REMARK                            x       y       z     vdW  Elec       q    Type
REMARK                         _______ _______ _______ _____ _____    ______ ____
ROOT
ATOM      1  S   UNL     1       5.026   1.322   0.086  0.00  0.00    +0.131 S 
ATOM      2  O   UNL     1       5.017   0.635   1.330  0.00  0.00    -0.136 OA
ATOM      3  O   UNL     1       5.210   0.651  -1.153  0.00  0.00    -0.136 OA
ENDROOT
BRANCH   1   4
ATOM      4  N   UNL     1       6.218   2.466   0.185  0.00  0.00    -0.161 NA
ATOM      5  C   UNL     1       6.851   2.997  -1.030  0.00  0.00    +0.111 C 
ATOM      6  C   UNL     1       6.758   4.526  -1.008  0.00  0.00    +0.018 C 
ATOM      7  C   UNL     1       7.364   5.050   0.296  0.00  0.00    +0.017 C 
ATOM      8  C   UNL     1       6.573   4.501   1.486  0.00  0.00    +0.118 C 
ATOM      9  C   UNL     1       6.659   2.976   1.491  0.00  0.00    +0.125 C 
BRANCH   8  10
ATOM     10  C   UNL     1       7.150   5.044   2.767  0.00  0.00    +0.360 C 
ATOM     11  O   UNL     1       7.176   6.248   2.962  0.00  0.00    -0.246 OA
ATOM     12  O   UNL     1       7.590   4.281   3.610  0.00  0.00    -0.246 OA
ENDBRANCH   8  10
ENDBRANCH   1   4
BRANCH   1  13
ATOM     13  N   UNL     1       3.582   2.126  -0.021  0.00  0.00    -0.086 NA
BRANCH  13  16
ATOM     14  C   UNL     1       1.212  -0.683  -0.090  0.00  0.00    +0.003 A 
ATOM     15  C   UNL     1       2.400   0.022  -0.083  0.00  0.00    +0.028 A 
ATOM     16  C   UNL     1       2.382   1.410  -0.029  0.00  0.00    +0.095 A 
ATOM     17  C   UNL     1       1.168   2.085   0.017  0.00  0.00    +0.084 A 
ATOM     18  C   UNL     1      -0.017   1.373   0.009  0.00  0.00    +0.061 A 
ATOM     19  C   UNL     1       0.006  -0.010  -0.044  0.00  0.00    +0.021 A 
ATOM     20 CL   UNL     1      -1.535   2.213   0.067  0.00  0.00    -0.082 Cl
ATOM     21 CL   UNL     1       1.139   3.819   0.084  0.00  0.00    -0.080 Cl
ENDBRANCH  13  16
ENDBRANCH   1  13
TORSDOF 4
