REMARK  Name = ZINC21233495
REMARK  5 active torsions:
REMARK  status: ('A' for Active; 'I' for Inactive)
REMARK    1  A    between atoms: C_4  and  N_11
REMARK    2  A    between atoms: C_5  and  C_7
REMARK    3  A    between atoms: C_12  and  C_14
REMARK    4  A    between atoms: C_14  and  S_15
REMARK    5  A    between atoms: S_15  and  C_16
REMARK                            x       y       z     vdW  Elec       q    Type
REMARK                         _______ _______ _______ _____ _____    ______ ____
ROOT
ATOM      1  S   UNL     1      -0.793  -0.977   0.115  0.00  0.00    -0.077 S 
ENDROOT
BRANCH   1   2
ATOM      2  C   UNL     1       0.678  -0.007   0.107  0.00  0.00    +0.191 A 
ATOM      3  N   UNL     1       0.586   1.317   0.112  0.00  0.00    -0.207 NA
ATOM      4  C   UNL     1       1.654   2.096   0.107  0.00  0.00    +0.129 A 
ATOM      5  C   UNL     1       2.948   1.503   0.096  0.00  0.00    +0.051 A 
ATOM      6  C   UNL     1       4.256   2.161   0.090  0.00  0.00    -0.025 A 
ATOM      7  C   UNL     1       5.342   1.363   0.080  0.00  0.00    -0.004 A 
ATOM      8  S   UNL     1       4.702  -0.290   0.078  0.00  0.00    -0.073 S 
ATOM      9  C   UNL     1       2.970   0.094   0.091  0.00  0.00    +0.115 A 
ATOM     10  N   UNL     1       1.858  -0.615   0.097  0.00  0.00    -0.214 NA
ATOM     11  C   UNL     1       6.780   1.786   0.072  0.00  0.00    +0.043 C 
ATOM     12  C   UNL     1       6.845   3.275  -0.298  0.00  0.00    +0.005 C 
ATOM     13  C   UNL     1       5.820   4.037   0.549  0.00  0.00    +0.005 C 
ATOM     14  C   UNL     1       4.404   3.680   0.094  0.00  0.00    +0.037 C 
ATOM     15  N   UNL     1       1.516   3.473   0.112  0.00  0.00    -0.343 N 
ATOM     16  H   UNL     1       2.409   4.115   0.108  0.00  0.00    +0.144 HD
ATOM     17  H   UNL     1       0.514   3.925   0.121  0.00  0.00    +0.144 HD
ENDBRANCH   1   2
BRANCH   1  18
ATOM     18  C   UNL     1      -2.036   0.339   0.128  0.00  0.00    +0.173 C 
BRANCH  18  20
ATOM     19  N   UNL     1      -4.503   0.522   0.147  0.00  0.00    -0.284 N 
ATOM     20  C   UNL     1      -3.414  -0.272   0.137  0.00  0.00    +0.227 C 
ATOM     21  O   UNL     1      -3.542  -1.478   0.134  0.00  0.00    -0.275 OA
ATOM     22  H   UNL     1      -4.389   1.613   0.054  0.00  0.00    +0.155 HD
BRANCH  19  26
ATOM     23  C   UNL     1      -8.298  -1.152   0.530  0.00  0.00    +0.001 A 
ATOM     24  C   UNL     1      -7.221  -1.727   1.181  0.00  0.00    +0.002 A 
ATOM     25  C   UNL     1      -5.961  -1.177   1.052  0.00  0.00    +0.024 A 
ATOM     26  C   UNL     1      -5.777  -0.040   0.276  0.00  0.00    +0.045 A 
ATOM     27  C   UNL     1      -6.860   0.534  -0.376  0.00  0.00    +0.076 A 
ATOM     28  C   UNL     1      -8.117  -0.023  -0.247  0.00  0.00    +0.014 A 
BRANCH  27  29
ATOM     29  C   UNL     1      -6.664   1.765  -1.224  0.00  0.00    +0.419 C 
ATOM     30  F   UNL     1      -7.891   2.153  -1.773  0.00  0.00    -0.166 F 
ATOM     31  F   UNL     1      -6.159   2.801  -0.432  0.00  0.00    -0.166 F 
ATOM     32  F   UNL     1      -5.761   1.482  -2.255  0.00  0.00    -0.166 F 
ENDBRANCH  27  29
ENDBRANCH  19  26
ENDBRANCH  18  20
ENDBRANCH   1  18
TORSDOF 5
