REMARK  Name = ZINC08594942
REMARK  11 active torsions:
REMARK  status: ('A' for Active; 'I' for Inactive)
REMARK    1  A    between atoms: C_1  and  C_2
REMARK    2  A    between atoms: C_2  and  C_3
REMARK    3  A    between atoms: C_3  and  C_4
REMARK    4  A    between atoms: C_4  and  N_5
REMARK    5  A    between atoms: C_6  and  C_8
REMARK    6  A    between atoms: C_8  and  C_9
REMARK    7  A    between atoms: C_23  and  S_24
REMARK    8  A    between atoms: S_24  and  C_25
REMARK    9  A    between atoms: C_25  and  C_26
REMARK   10  A    between atoms: N_28  and  C_29
REMARK   11  A    between atoms: C_29  and  C_30
REMARK                            x       y       z     vdW  Elec       q    Type
REMARK                         _______ _______ _______ _____ _____    ______ ____
ROOT
ATOM      1  C   UNL     1      -4.408  -5.950   0.012  0.00  0.00    +0.202 C 
ATOM      2  C   UNL     1      -5.816  -6.501   0.099  0.00  0.00    +0.252 C 
ATOM      3  O   UNL     1      -6.613  -6.340   0.998  0.00  0.00    -0.272 OA
ATOM      4  N   UNL     1      -5.997  -7.208  -1.040  0.00  0.00    -0.200 N 
ATOM      5  C   UNL     1      -4.857  -7.158  -1.824  0.00  0.00    +0.139 C 
ATOM      6  N   UNL     1      -3.906  -6.452  -1.274  0.00  0.00    -0.255 NA
ATOM      7  C   UNL     1      -4.888  -7.885  -3.111  0.00  0.00    +0.041 A 
ATOM      8  C   UNL     1      -3.792  -7.894  -3.967  0.00  0.00    +0.013 A 
ATOM      9  C   UNL     1      -3.865  -8.585  -5.159  0.00  0.00    +0.001 A 
ATOM     10  C   UNL     1      -5.021  -9.269  -5.506  0.00  0.00    +0.002 A 
ATOM     11  C   UNL     1      -6.117  -9.272  -4.671  0.00  0.00    +0.028 A 
ATOM     12  C   UNL     1      -6.066  -8.578  -3.460  0.00  0.00    +0.077 A 
ATOM     13  N   UNL     1      -7.126  -8.560  -2.614  0.00  0.00    -0.225 NA
ATOM     14  C   UNL     1      -7.097  -7.918  -1.477  0.00  0.00    +0.169 C 
ENDROOT
BRANCH   1  15
ATOM     15  C   UNL     1      -4.429  -4.420   0.021  0.00  0.00    +0.132 C 
BRANCH  15  17
ATOM     16  N   UNL     1      -2.787  -2.571   0.015  0.00  0.00    -0.315 N 
ATOM     17  C   UNL     1      -3.015  -3.899   0.010  0.00  0.00    +0.216 C 
ATOM     18  O   UNL     1      -2.083  -4.674  -0.003  0.00  0.00    -0.276 OA
ATOM     19  H   UNL     1      -3.533  -1.950   0.025  0.00  0.00    +0.149 HD
BRANCH  16  20
ATOM     20  C   UNL     1      -1.413  -2.063   0.004  0.00  0.00    +0.104 C 
BRANCH  20  21
ATOM     21  C   UNL     1      -1.433  -0.534   0.013  0.00  0.00    +0.018 C 
BRANCH  21  23
ATOM     22  C   UNL     1      -0.019   1.526   0.010  0.00  0.00    +0.004 C 
ATOM     23  C   UNL     1       0.002  -0.004   0.002  0.00  0.00    -0.002 C 
ENDBRANCH  21  23
ENDBRANCH  20  21
ENDBRANCH  16  20
ENDBRANCH  15  17
ENDBRANCH   1  15
BRANCH  14  24
ATOM     24  S   UNL     1      -8.530  -7.960  -0.452  0.00  0.00    -0.080 S 
BRANCH  24  25
ATOM     25  C   UNL     1      -9.706  -8.978  -1.385  0.00  0.00    +0.172 C 
BRANCH  25  26
ATOM     26  C   UNL     1     -10.993  -9.096  -0.611  0.00  0.00    +0.224 C 
ATOM     27  O   UNL     1     -11.106  -8.548   0.465  0.00  0.00    -0.275 OA
ATOM     28  N   UNL     1     -12.020  -9.811  -1.113  0.00  0.00    -0.310 N 
ATOM     29  H   UNL     1     -11.930 -10.249  -1.974  0.00  0.00    +0.149 HD
BRANCH  28  30
ATOM     30  C   UNL     1     -13.271  -9.926  -0.360  0.00  0.00    +0.141 C 
BRANCH  30  31
ATOM     31  C   UNL     1     -14.248 -10.771  -1.135  0.00  0.00    -0.012 A 
ATOM     32  C   UNL     1     -15.245 -10.168  -1.879  0.00  0.00    +0.006 A 
ATOM     33  C   UNL     1     -16.141 -10.944  -2.590  0.00  0.00    +0.000 A 
ATOM     34  C   UNL     1     -16.042 -12.322  -2.558  0.00  0.00    +0.001 A 
ATOM     35  C   UNL     1     -15.046 -12.926  -1.814  0.00  0.00    +0.020 A 
ATOM     36  C   UNL     1     -14.145 -12.150  -1.106  0.00  0.00    +0.046 A 
ATOM     37 CL   UNL     1     -12.889 -12.908  -0.177  0.00  0.00    -0.083 Cl
ENDBRANCH  30  31
ENDBRANCH  28  30
ENDBRANCH  25  26
ENDBRANCH  24  25
ENDBRANCH  14  24
TORSDOF 10
