REMARK  Name = ZINC64871207
REMARK  5 active torsions:
REMARK  status: ('A' for Active; 'I' for Inactive)
REMARK    1  A    between atoms: C_6  and  C_7
REMARK    2  A    between atoms: C_7  and  N_8
REMARK    3  A    between atoms: C_14  and  C_21
REMARK    4  A    between atoms: C_24  and  C_28
REMARK    5  A    between atoms: C_31  and  C_34
REMARK                            x       y       z     vdW  Elec       q    Type
REMARK                         _______ _______ _______ _____ _____    ______ ____
ROOT
ATOM      1  N   UNL     1      -1.726  -1.017  -1.368  0.00  0.00    -0.256 N 
ATOM      2  C   UNL     1      -2.519  -0.113  -1.981  0.00  0.00    +0.265 A 
ATOM      3  O   UNL     1      -2.877   0.896  -1.405  0.00  0.00    -0.267 OA
ATOM      4  C   UNL     1      -2.941  -0.380  -3.368  0.00  0.00    +0.063 A 
ATOM      5  C   UNL     1      -3.758   0.503  -4.069  0.00  0.00    +0.016 A 
ATOM      6  C   UNL     1      -4.124   0.207  -5.365  0.00  0.00    +0.008 A 
ATOM      7  C   UNL     1      -3.684  -0.961  -5.970  0.00  0.00    -0.000 A 
ATOM      8  C   UNL     1      -2.874  -1.845  -5.286  0.00  0.00    +0.034 A 
ATOM      9  C   UNL     1      -2.495  -1.564  -3.982  0.00  0.00    +0.056 A 
ATOM     10  N   UNL     1      -1.682  -2.425  -3.260  0.00  0.00    -0.307 N 
ATOM     11  H   UNL     1      -1.367  -3.245  -3.670  0.00  0.00    +0.170 HD
ATOM     12  C   UNL     1      -1.322  -2.131  -1.998  0.00  0.00    +0.330 A 
ATOM     13  O   UNL     1      -0.605  -2.910  -1.401  0.00  0.00    -0.246 OA
ENDROOT
BRANCH   7  14
ATOM     14  C   UNL     1      -4.095  -1.268  -7.387  0.00  0.00    +0.242 C 
ATOM     15  N   UNL     1      -5.405  -0.649  -7.689  0.00  0.00    -0.265 NA
ATOM     16  C   UNL     1      -5.330  -0.186  -9.092  0.00  0.00    +0.180 C 
ATOM     17  N   UNL     1      -3.972  -0.546  -9.563  0.00  0.00    -0.177 NA
ATOM     18  O   UNL     1      -3.174  -0.661  -8.321  0.00  0.00    -0.274 OA
ATOM     19  H   UNL     1      -6.155  -1.312  -7.568  0.00  0.00    +0.127 HD
ATOM     20  H   UNL     1      -3.598   0.169 -10.169  0.00  0.00    +0.156 HD
BRANCH  16  21
ATOM     21  C   UNL     1      -6.374  -0.882  -9.926  0.00  0.00    -0.014 A 
ATOM     22  C   UNL     1      -7.565  -1.281  -9.351  0.00  0.00    +0.007 A 
ATOM     23  C   UNL     1      -8.523  -1.920 -10.116  0.00  0.00    +0.013 A 
ATOM     24  C   UNL     1      -8.289  -2.159 -11.457  0.00  0.00    +0.055 A 
ATOM     25  C   UNL     1      -7.098  -1.758 -12.033  0.00  0.00    +0.013 A 
ATOM     26  C   UNL     1      -6.142  -1.116 -11.269  0.00  0.00    +0.007 A 
BRANCH  24  27
ATOM     27  C   UNL     1      -9.332  -2.856 -12.292  0.00  0.00    +0.417 C 
ATOM     28  F   UNL     1     -10.193  -1.906 -12.851  0.00  0.00    -0.166 F 
ATOM     29  F   UNL     1      -8.707  -3.577 -13.314  0.00  0.00    -0.166 F 
ATOM     30  F   UNL     1     -10.066  -3.732 -11.485  0.00  0.00    -0.166 F 
ENDBRANCH  24  27
ENDBRANCH  16  21
ENDBRANCH   7  14
BRANCH   1  31
ATOM     31  C   UNL     1      -1.293  -0.775   0.011  0.00  0.00    +0.165 C 
BRANCH  31  37
ATOM     32  C   UNL     1      -0.017   1.378   0.010  0.00  0.00    +0.007 A 
ATOM     33  C   UNL     1       1.171   2.086   0.002  0.00  0.00    +0.020 A 
ATOM     34  C   UNL     1       2.378   1.410  -0.013  0.00  0.00    +0.041 A 
ATOM     35  C   UNL     1       2.396   0.027  -0.021  0.00  0.00    +0.020 A 
ATOM     36  C   UNL     1       1.208  -0.679  -0.013  0.00  0.00    +0.007 A 
ATOM     37  C   UNL     1       0.002  -0.004   0.002  0.00  0.00    -0.027 A 
ATOM     38 CL   UNL     1       3.870   2.298  -0.023  0.00  0.00    -0.084 Cl
ENDBRANCH  31  37
ENDBRANCH   1  31
TORSDOF 5
