REMARK  Name = ZINC39666635
REMARK  7 active torsions:
REMARK  status: ('A' for Active; 'I' for Inactive)
REMARK    1  A    between atoms: C_1  and  C_2
REMARK    2  A    between atoms: C_2  and  C_4
REMARK    3  A    between atoms: C_2  and  O_31
REMARK    4  A    between atoms: C_4  and  N_5
REMARK    5  A    between atoms: C_6  and  C_8
REMARK    6  A    between atoms: C_19  and  C_21
REMARK    7  A    between atoms: O_31  and  C_32
REMARK                            x       y       z     vdW  Elec       q    Type
REMARK                         _______ _______ _______ _____ _____    ______ ____
ROOT
ATOM      1  C   UNL     1       1.659  -3.989   2.434  0.00  0.00    +0.100 C 
ATOM      2  C   UNL     1       2.698  -4.426   1.377  0.00  0.00    +0.121 C 
ATOM      3  N   UNL     1       3.944  -4.648   2.148  0.00  0.00    -0.295 N 
ATOM      4  C   UNL     1       3.491  -5.292   3.404  0.00  0.00    +0.115 C 
ATOM      5  C   UNL     1       2.181  -4.562   3.762  0.00  0.00    -0.004 C 
ATOM      6  C   UNL     1       1.171  -5.546   4.346  0.00  0.00    -0.010 C 
ATOM      7  C   UNL     1       1.686  -6.058   5.695  0.00  0.00    -0.082 C 
ATOM      8  N   UNL     1       1.881  -4.925   6.608  0.00  0.00    +0.379 N 
ATOM      9  C   UNL     1       2.921  -4.032   6.083  0.00  0.00    -0.082 C 
ATOM     10  C   UNL     1       2.458  -3.435   4.751  0.00  0.00    -0.010 C 
ATOM     11  C   UNL     1       5.205  -4.337   1.787  0.00  0.00    +0.265 C 
ATOM     12  O   UNL     1       5.408  -3.716   0.763  0.00  0.00    -0.268 OA
ATOM     13  H   UNL     1       1.015  -4.415   6.699  0.00  0.00    -0.086 HD
ATOM     14  H   UNL     1       2.161  -5.270   7.514  0.00  0.00    -0.086 HD
ENDROOT
BRANCH  11  15
ATOM     15  C   UNL     1       6.344  -4.752   2.641  0.00  0.00    +0.126 A 
ATOM     16  C   UNL     1       7.654  -4.504   2.204  0.00  0.00    +0.033 A 
ATOM     17  C   UNL     1       8.711  -4.880   2.981  0.00  0.00    +0.012 A 
ATOM     18  C   UNL     1       8.444  -5.513   4.210  0.00  0.00    +0.000 A 
ATOM     19  C   UNL     1       9.483  -5.926   5.059  0.00  0.00    +0.010 A 
ATOM     20  C   UNL     1       9.186  -6.534   6.240  0.00  0.00    +0.001 A 
ATOM     21  C   UNL     1       7.862  -6.753   6.620  0.00  0.00    +0.002 A 
ATOM     22  C   UNL     1       6.830  -6.367   5.823  0.00  0.00    +0.028 A 
ATOM     23  C   UNL     1       7.095  -5.734   4.593  0.00  0.00    +0.072 A 
ATOM     24  N   UNL     1       6.103  -5.340   3.796  0.00  0.00    -0.242 NA
ENDBRANCH  11  15
BRANCH   1  26
ATOM     25  N   UNL     1       0.491  -1.890   3.026  0.00  0.00    -0.312 N 
ATOM     26  C   UNL     1       1.583  -2.486   2.505  0.00  0.00    +0.218 C 
ATOM     27  O   UNL     1       2.503  -1.812   2.094  0.00  0.00    -0.275 OA
ATOM     28  H   UNL     1      -0.245  -2.429   3.355  0.00  0.00    +0.149 HD
BRANCH  25  29
ATOM     29  C   UNL     1       0.418  -0.429   3.095  0.00  0.00    +0.148 C 
BRANCH  29  31
ATOM     30  C   UNL     1      -1.046   1.509   3.682  0.00  0.00    +0.053 C 
ATOM     31  C   UNL     1      -0.914  -0.015   3.723  0.00  0.00    +0.187 C 
BRANCH  31  32
ATOM     32  O   UNL     1      -0.960  -0.460   5.080  0.00  0.00    -0.486 OA
BRANCH  32  33
ATOM     33  C   UNL     1      -2.190  -0.650   5.626  0.00  0.00    +0.139 A 
ATOM     34  C   UNL     1      -3.327  -0.508   4.844  0.00  0.00    +0.047 A 
ATOM     35  C   UNL     1      -4.576  -0.702   5.402  0.00  0.00    +0.004 A 
ATOM     36  C   UNL     1      -4.694  -1.037   6.738  0.00  0.00    +0.002 A 
ATOM     37  C   UNL     1      -3.563  -1.178   7.521  0.00  0.00    +0.023 A 
ATOM     38  C   UNL     1      -2.311  -0.991   6.966  0.00  0.00    +0.083 A 
ATOM     39 CL   UNL     1      -0.890  -1.176   7.947  0.00  0.00    -0.080 Cl
ENDBRANCH  32  33
ENDBRANCH  31  32
ENDBRANCH  29  31
ENDBRANCH  25  29
ENDBRANCH   1  26
TORSDOF 6
