REMARK  Name = ZINC05101869
REMARK  4 active torsions:
REMARK  status: ('A' for Active; 'I' for Inactive)
REMARK    1  A    between atoms: C_1  and  C_2
REMARK    2  A    between atoms: C_2  and  C_16
REMARK    3  A    between atoms: C_4  and  C_12
REMARK    4  A    between atoms: C_4  and  C_14
REMARK                            x       y       z     vdW  Elec       q    Type
REMARK                         _______ _______ _______ _____ _____    ______ ____
ROOT
ATOM      1  C   UNL     1       0.233   0.956   0.241  0.00  0.00    +0.021 C 
ATOM      2  C   UNL     1      -0.530   1.447   1.473  0.00  0.00    +0.020 C 
ATOM      3  C   UNL     1      -2.023   1.200   1.272  0.00  0.00    +0.046 C 
ATOM      4  C   UNL     1      -2.274  -0.312   1.313  0.00  0.00    +0.177 C 
ATOM      5  C   UNL     1      -2.060  -0.796   2.746  0.00  0.00    +0.065 C 
ATOM      6  C   UNL     1      -0.732  -0.320   3.273  0.00  0.00    -0.042 A 
ATOM      7  C   UNL     1      -0.031   0.714   2.691  0.00  0.00    -0.034 A 
ATOM      8  C   UNL     1       1.185   1.110   3.232  0.00  0.00    +0.005 A 
ATOM      9  C   UNL     1       1.698   0.475   4.344  0.00  0.00    +0.000 A 
ATOM     10  C   UNL     1       0.997  -0.565   4.925  0.00  0.00    +0.000 A 
ATOM     11  C   UNL     1      -0.212  -0.959   4.391  0.00  0.00    +0.004 A 
ENDROOT
BRANCH   2  12
ATOM     12  C   UNL     1      -0.290   2.924   1.650  0.00  0.00    -0.037 A 
ATOM     13  C   UNL     1      -0.771   3.573   2.772  0.00  0.00    +0.004 A 
ATOM     14  C   UNL     1      -0.547   4.927   2.936  0.00  0.00    +0.000 A 
ATOM     15  C   UNL     1       0.149   5.634   1.974  0.00  0.00    +0.000 A 
ATOM     16  C   UNL     1       0.626   4.986   0.850  0.00  0.00    +0.000 A 
ATOM     17  C   UNL     1       0.406   3.631   0.688  0.00  0.00    +0.004 A 
ENDBRANCH   2  12
BRANCH   4  18
ATOM     18  C   UNL     1      -1.310  -1.012   0.391  0.00  0.00    +0.373 C 
ATOM     19  O   UNL     1      -0.504  -1.793   0.839  0.00  0.00    -0.245 OA
ATOM     20  O   UNL     1      -1.345  -0.767  -0.928  0.00  0.00    -0.245 OA
ENDBRANCH   4  18
BRANCH   4  21
ATOM     21  C   UNL     1      -3.689  -0.605   0.885  0.00  0.00    +0.373 C 
ATOM     22  O   UNL     1      -4.421   0.300   0.558  0.00  0.00    -0.245 OA
ATOM     23  O   UNL     1      -4.136  -1.870   0.866  0.00  0.00    -0.245 OA
ENDBRANCH   4  21
TORSDOF 3
