REMARK  Name = ZINC67029314
REMARK  4 active torsions:
REMARK  status: ('A' for Active; 'I' for Inactive)
REMARK    1  A    between atoms: C_2  and  C_6
REMARK    2  A    between atoms: C_8  and  C_20
REMARK    3  A    between atoms: C_10  and  C_15
REMARK    4  A    between atoms: C_20  and  C_22
REMARK                            x       y       z     vdW  Elec       q    Type
REMARK                         _______ _______ _______ _____ _____    ______ ____
ROOT
ATOM      1  C   UNL     1       1.838   3.459  -0.002  0.00  0.00    +0.137 C 
ATOM      2  C   UNL     1       2.783   3.658   1.188  0.00  0.00    +0.153 C 
ATOM      3  C   UNL     1       3.213   5.128   1.229  0.00  0.00    +0.276 C 
ATOM      4  N   UNL     1       2.021   5.976   1.274  0.00  0.00    -0.289 N 
ATOM      5  C   UNL     1       0.864   5.583   0.723  0.00  0.00    +0.133 C 
ATOM      6  S   UNL     1      -0.485   6.635   0.802  0.00  0.00    -0.019 S 
ATOM      7  N   UNL     1       0.721   4.398   0.108  0.00  0.00    -0.317 N 
ATOM      8  O   UNL     1       3.974   5.436   0.059  0.00  0.00    -0.196 OA
ATOM      9  H   UNL     1       2.069   6.840   1.712  0.00  0.00    +0.151 HD
ATOM     10  H   UNL     1      -0.141   4.158  -0.268  0.00  0.00    +0.148 HD
ENDROOT
BRANCH   1  12
ATOM     11  C   UNL     1      -0.020   1.786  -0.004  0.00  0.00    +0.071 A 
ATOM     12  C   UNL     1       1.312   2.047   0.003  0.00  0.00    +0.069 A 
ATOM     13  N   UNL     1       2.125   1.009   0.013  0.00  0.00    -0.250 NA
ATOM     14  C   UNL     1       1.664  -0.217   0.017  0.00  0.00    +0.156 A 
ATOM     15  S   UNL     1      -0.005   0.000   0.005  0.00  0.00    -0.084 S 
ENDBRANCH   1  12
BRANCH   3  16
ATOM     16  C   UNL     1       4.066   5.377   2.475  0.00  0.00    +0.439 C 
ATOM     17  F   UNL     1       5.262   4.659   2.372  0.00  0.00    -0.166 F 
ATOM     18  F   UNL     1       4.349   6.743   2.581  0.00  0.00    -0.166 F 
ATOM     19  F   UNL     1       3.365   4.957   3.610  0.00  0.00    -0.166 F 
ENDBRANCH   3  16
BRANCH   2  20
ATOM     20  C   UNL     1       3.995   2.777   1.024  0.00  0.00    +0.245 C 
ATOM     21  O   UNL     1       4.660   2.846   0.019  0.00  0.00    -0.287 OA
BRANCH  20  22
ATOM     22  C   UNL     1       4.376   1.810   2.115  0.00  0.00    +0.451 C 
ATOM     23  F   UNL     1       5.588   1.192   1.788  0.00  0.00    -0.163 F 
ATOM     24  F   UNL     1       4.516   2.502   3.323  0.00  0.00    -0.163 F 
ATOM     25  F   UNL     1       3.378   0.839   2.248  0.00  0.00    -0.163 F 
ENDBRANCH  20  22
ENDBRANCH   2  20
TORSDOF 4
