REMARK  Name = ZINC14896516
REMARK  6 active torsions:
REMARK  status: ('A' for Active; 'I' for Inactive)
REMARK    1  A    between atoms: C_1  and  C_2
REMARK    2  A    between atoms: C_7  and  C_16
REMARK    3  A    between atoms: N_11  and  S_12
REMARK    4  A    between atoms: S_12  and  C_15
REMARK    5  A    between atoms: N_18  and  N_19
REMARK    6  A    between atoms: C_20  and  C_22
REMARK                            x       y       z     vdW  Elec       q    Type
REMARK                         _______ _______ _______ _____ _____    ______ ____
ROOT
ATOM      1  C   UNL     1       2.479   1.075  -0.016  0.00  0.00    +0.260 C 
ATOM      2  O   UNL     1       3.522   1.700  -0.022  0.00  0.00    -0.269 OA
ATOM      3  N   UNL     1       2.502  -0.273  -0.023  0.00  0.00    -0.230 N 
ATOM      4  H   UNL     1       1.670  -0.772  -0.018  0.00  0.00    +0.173 HD
ENDROOT
BRANCH   1  10
ATOM      5  C   UNL     1      -2.414   6.116  -1.199  0.00  0.00    +0.030 C 
ATOM      6  C   UNL     1      -1.899   5.394   0.047  0.00  0.00    +0.099 C 
ATOM      7  C   UNL     1      -0.363   5.330   0.033  0.00  0.00    +0.061 C 
ATOM      8  C   UNL     1      -0.046   3.851   0.022  0.00  0.00    -0.022 A 
ATOM      9  C   UNL     1       1.160   3.187   0.008  0.00  0.00    +0.018 A 
ATOM     10  C   UNL     1       1.189   1.790   0.000  0.00  0.00    +0.039 A 
ATOM     11  C   UNL     1      -0.013   1.076   0.008  0.00  0.00    +0.015 A 
ATOM     12  C   UNL     1      -1.211   1.745   0.017  0.00  0.00    +0.026 A 
ATOM     13  C   UNL     1      -1.243   3.145   0.030  0.00  0.00    +0.054 A 
ATOM     14  N   UNL     1      -2.341   3.997   0.044  0.00  0.00    -0.204 N 
BRANCH  14  15
ATOM     15  S   UNL     1      -3.922   3.505   0.057  0.00  0.00    +0.043 S 
ATOM     16  O   UNL     1      -4.641   4.579  -0.533  0.00  0.00    -0.155 OA
ATOM     17  O   UNL     1      -3.907   2.221  -0.553  0.00  0.00    -0.155 OA
ATOM     18  C   UNL     1      -4.351   3.356   1.813  0.00  0.00    +0.218 C 
ENDBRANCH  14  15
ENDBRANCH   1  10
BRANCH   3  19
ATOM     19  N   UNL     1       3.727  -0.953  -0.039  0.00  0.00    -0.230 N 
ATOM     20  C   UNL     1       3.749  -2.300  -0.046  0.00  0.00    +0.267 C 
ATOM     21  O   UNL     1       2.706  -2.927  -0.040  0.00  0.00    -0.268 OA
ATOM     22  H   UNL     1       4.558  -0.454  -0.044  0.00  0.00    +0.173 HD
BRANCH  20  23
ATOM     23  C   UNL     1       5.031  -3.012  -0.062  0.00  0.00    +0.076 A 
ATOM     24  C   UNL     1       5.275  -4.367  -0.066  0.00  0.00    +0.024 A 
ATOM     25  C   UNL     1       6.604  -4.803  -0.099  0.00  0.00    -0.036 A 
ATOM     26  C   UNL     1       7.557  -3.855  -0.059  0.00  0.00    -0.006 A 
ATOM     27  S   UNL     1       6.686  -2.352  -0.074  0.00  0.00    -0.088 S 
ATOM     28  C   UNL     1       9.058  -3.917   0.075  0.00  0.00    +0.043 C 
ATOM     29  C   UNL     1       9.566  -5.353   0.209  0.00  0.00    +0.005 C 
ATOM     30  C   UNL     1       9.616  -6.048  -1.142  0.00  0.00    +0.000 C 
ATOM     31  C   UNL     1       8.452  -5.684  -2.040  0.00  0.00    +0.000 C 
ATOM     32  C   UNL     1       7.285  -6.600  -1.652  0.00  0.00    +0.005 C 
ATOM     33  C   UNL     1       6.876  -6.296  -0.212  0.00  0.00    +0.036 C 
ENDBRANCH  20  23
ENDBRANCH   3  19
TORSDOF 4
