REMARK  Name = ZINC46845804
REMARK  9 active torsions:
REMARK  status: ('A' for Active; 'I' for Inactive)
REMARK    1  A    between atoms: C_1  and  C_2
REMARK    2  A    between atoms: N_8  and  C_9
REMARK    3  A    between atoms: C_9  and  C_10
REMARK    4  A    between atoms: C_15  and  C_16
REMARK    5  A    between atoms: C_16  and  N_17
REMARK    6  A    between atoms: C_18  and  C_20
REMARK    7  A    between atoms: C_20  and  C_21
REMARK    8  A    between atoms: C_21  and  N_22
REMARK    9  A    between atoms: C_23  and  C_25
REMARK                            x       y       z     vdW  Elec       q    Type
REMARK                         _______ _______ _______ _____ _____    ______ ____
ROOT
ATOM      1  N   UNL     1       4.392  -2.176   0.331  0.00  0.00    -0.311 N 
ATOM      2  C   UNL     1       4.610  -2.878  -0.799  0.00  0.00    +0.215 C 
ATOM      3  O   UNL     1       3.887  -3.808  -1.084  0.00  0.00    -0.276 OA
ATOM      4  H   UNL     1       4.970  -1.432   0.559  0.00  0.00    +0.149 HD
ENDROOT
BRANCH   1   5
ATOM      5  C   UNL     1       3.281  -2.538   1.215  0.00  0.00    +0.139 C 
BRANCH   5  11
ATOM      6  C   UNL     1       2.530  -0.330   2.123  0.00  0.00    -0.059 A 
ATOM      7  C   UNL     1       2.433   0.591   3.150  0.00  0.00    +0.002 A 
ATOM      8  C   UNL     1       2.989   0.311   4.384  0.00  0.00    +0.000 A 
ATOM      9  C   UNL     1       3.642  -0.889   4.592  0.00  0.00    +0.000 A 
ATOM     10  C   UNL     1       3.739  -1.810   3.566  0.00  0.00    +0.005 A 
ATOM     11  C   UNL     1       3.179  -1.532   2.333  0.00  0.00    -0.029 A 
BRANCH   6  12
ATOM     12  C   UNL     1       1.924  -0.025   0.778  0.00  0.00    -0.042 C 
BRANCH  12  19
ATOM     13  C   UNL     1       1.767  -0.640  -1.957  0.00  0.00    -0.013 C 
ATOM     14  C   UNL     1       2.399   0.664  -1.469  0.00  0.00    -0.071 C 
ATOM     15  C   UNL     1       3.502   1.091  -2.439  0.00  0.00    -0.016 C 
ATOM     16  C   UNL     1       4.131   2.397  -1.946  0.00  0.00    -0.003 C 
ATOM     17  C   UNL     1       4.658   2.193  -0.523  0.00  0.00    -0.019 C 
ATOM     18  C   UNL     1       3.512   1.726   0.377  0.00  0.00    -0.078 C 
ATOM     19  N   UNL     1       2.971   0.460  -0.132  0.00  0.00    +0.384 N 
ATOM     20  H   UNL     1       3.711  -0.224  -0.185  0.00  0.00    -0.081 HD
ENDBRANCH  12  19
ENDBRANCH   6  12
ENDBRANCH   5  11
ENDBRANCH   1   5
BRANCH   2  21
ATOM     21  C   UNL     1       5.753  -2.505  -1.708  0.00  0.00    +0.114 C 
BRANCH  21  22
ATOM     22  C   UNL     1       5.778  -3.452  -2.909  0.00  0.00    +0.113 C 
BRANCH  22  23
ATOM     23  N   UNL     1       6.889  -3.090  -3.793  0.00  0.00    -0.311 N 
ATOM     24  C   UNL     1       7.107  -3.792  -4.923  0.00  0.00    +0.244 C 
ATOM     25  O   UNL     1       6.382  -4.725  -5.209  0.00  0.00    -0.270 OA
ATOM     26  H   UNL     1       7.467  -2.346  -3.565  0.00  0.00    +0.149 HD
BRANCH  24  27
ATOM     27  C   UNL     1       8.228  -3.427  -5.814  0.00  0.00    +0.037 A 
ATOM     28  C   UNL     1       9.067  -2.350  -5.476  0.00  0.00    +0.013 A 
ATOM     29  C   UNL     1      10.102  -1.995  -6.278  0.00  0.00    +0.009 A 
ATOM     30  C   UNL     1      10.348  -2.708  -7.466  0.00  0.00    -0.018 A 
ATOM     31  C   UNL     1      11.414  -2.359  -8.312  0.00  0.00    +0.008 A 
ATOM     32  C   UNL     1      11.627  -3.067  -9.456  0.00  0.00    +0.001 A 
ATOM     33  C   UNL     1      10.803  -4.136  -9.803  0.00  0.00    +0.001 A 
ATOM     34  C   UNL     1       9.761  -4.503  -9.008  0.00  0.00    +0.008 A 
ATOM     35  C   UNL     1       9.509  -3.795  -7.819  0.00  0.00    -0.017 A 
ATOM     36  C   UNL     1       8.447  -4.151  -6.974  0.00  0.00    +0.021 A 
ENDBRANCH  24  27
ENDBRANCH  22  23
ENDBRANCH  21  22
ENDBRANCH   2  21
TORSDOF 8
