REMARK  Name = ZINC02253833
REMARK  7 active torsions:
REMARK  status: ('A' for Active; 'I' for Inactive)
REMARK    1  A    between atoms: C_1  and  C_2
REMARK    2  A    between atoms: C_2  and  C_4
REMARK    3  A    between atoms: C_7  and  N_10
REMARK    4  A    between atoms: C_11  and  N_34
REMARK    5  A    between atoms: C_12  and  C_23
REMARK    6  A    between atoms: N_25  and  C_26
REMARK    7  A    between atoms: C_26  and  C_27
REMARK                            x       y       z     vdW  Elec       q    Type
REMARK                         _______ _______ _______ _____ _____    ______ ____
ROOT
ATOM      1  N   UNL     1      -4.929   3.958   0.049  0.00  0.00    -0.280 N 
ATOM      2  C   UNL     1      -5.832   3.917   1.071  0.00  0.00    +0.117 A 
ATOM      3  C   UNL     1      -6.939   4.702   0.771  0.00  0.00    +0.104 A 
ATOM      4  C   UNL     1      -6.694   5.282  -0.560  0.00  0.00    +0.123 A 
ATOM      5  C   UNL     1      -5.383   4.771  -0.971  0.00  0.00    +0.166 A 
ATOM      6  N   UNL     1      -4.893   5.117  -2.143  0.00  0.00    -0.225 NA
ATOM      7  C   UNL     1      -5.588   5.938  -2.941  0.00  0.00    +0.092 A 
ATOM      8  C   UNL     1      -5.068   6.318  -4.192  0.00  0.00    +0.030 A 
ATOM      9  C   UNL     1      -5.780   7.153  -4.996  0.00  0.00    +0.002 A 
ATOM     10  C   UNL     1      -7.024   7.641  -4.600  0.00  0.00    +0.002 A 
ATOM     11  C   UNL     1      -7.559   7.296  -3.398  0.00  0.00    +0.030 A 
ATOM     12  C   UNL     1      -6.852   6.435  -2.538  0.00  0.00    +0.090 A 
ATOM     13  N   UNL     1      -7.370   6.089  -1.353  0.00  0.00    -0.241 NA
ENDROOT
BRANCH   1  17
ATOM     14  C   UNL     1      -1.296   1.926   0.019  0.00  0.00    +0.017 A 
ATOM     15  C   UNL     1      -1.318   3.326   0.032  0.00  0.00    +0.013 A 
ATOM     16  C   UNL     1      -2.517   3.991   0.038  0.00  0.00    +0.027 A 
ATOM     17  C   UNL     1      -3.711   3.276   0.039  0.00  0.00    +0.050 A 
ATOM     18  C   UNL     1      -3.695   1.885   0.030  0.00  0.00    +0.027 A 
ATOM     19  C   UNL     1      -2.501   1.211   0.021  0.00  0.00    +0.013 A 
BRANCH  14  21
ATOM     20  C   UNL     1       1.280   1.980   0.001  0.00  0.00    +0.091 C 
ATOM     21  C   UNL     1      -0.014   1.209   0.009  0.00  0.00    +0.160 C 
ATOM     22  O   UNL     1       0.002  -0.004   0.002  0.00  0.00    -0.292 OA
ENDBRANCH  14  21
ENDBRANCH   1  17
BRANCH   3  23
ATOM     23  C   UNL     1      -8.115   4.912   1.613  0.00  0.00    +0.250 C 
ATOM     24  O   UNL     1      -8.137   5.831   2.411  0.00  0.00    -0.270 OA
ATOM     25  N   UNL     1      -9.176   4.088   1.505  0.00  0.00    -0.307 N 
ATOM     26  H   UNL     1      -9.159   3.356   0.869  0.00  0.00    +0.149 HD
BRANCH  25  27
ATOM     27  C   UNL     1     -10.356   4.298   2.348  0.00  0.00    +0.139 C 
BRANCH  27  28
ATOM     28  C   UNL     1     -11.391   3.250   2.034  0.00  0.00    -0.030 A 
ATOM     29  C   UNL     1     -12.341   3.487   1.057  0.00  0.00    +0.006 A 
ATOM     30  C   UNL     1     -13.287   2.523   0.765  0.00  0.00    +0.020 A 
ATOM     31  C   UNL     1     -13.292   1.326   1.457  0.00  0.00    +0.041 A 
ATOM     32  C   UNL     1     -12.345   1.091   2.439  0.00  0.00    +0.020 A 
ATOM     33  C   UNL     1     -11.396   2.053   2.726  0.00  0.00    +0.006 A 
ATOM     34 CL   UNL     1     -14.485   0.118   1.095  0.00  0.00    -0.084 Cl
ENDBRANCH  27  28
ENDBRANCH  25  27
ENDBRANCH   3  23
BRANCH   2  35
ATOM     35  N   UNL     1      -5.671   3.203   2.229  0.00  0.00    -0.343 N 
ATOM     36  H   UNL     1      -4.867   2.676   2.366  0.00  0.00    +0.144 HD
ATOM     37  H   UNL     1      -6.359   3.223   2.912  0.00  0.00    +0.144 HD
ENDBRANCH   2  35
TORSDOF 6
