REMARK  Name = ZINC56818530
REMARK  4 active torsions:
REMARK  status: ('A' for Active; 'I' for Inactive)
REMARK    1  A    between atoms: C_1  and  C_2
REMARK    2  A    between atoms: C_5  and  C_8
REMARK    3  A    between atoms: C_8  and  N_9
REMARK    4  A    between atoms: C_15  and  C_18
REMARK                            x       y       z     vdW  Elec       q    Type
REMARK                         _______ _______ _______ _____ _____    ______ ____
ROOT
ATOM      1  N   UNL     1      -0.046  -4.587   2.477  0.00  0.00    -0.299 N 
ATOM      2  C   UNL     1       0.075  -5.912   2.694  0.00  0.00    +0.302 C 
ATOM      3  O   UNL     1      -0.398  -6.703   1.901  0.00  0.00    -0.253 OA
ATOM      4  N   UNL     1       0.719  -6.359   3.790  0.00  0.00    -0.286 N 
ATOM      5  C   UNL     1       0.963  -7.795   3.981  0.00  0.00    +0.110 C 
ATOM      6  C   UNL     1       0.418  -8.211   5.351  0.00  0.00    +0.032 C 
ATOM      7  C   UNL     1       1.034  -7.320   6.432  0.00  0.00    +0.078 C 
ATOM      8  C   UNL     1       0.642  -5.862   6.178  0.00  0.00    +0.032 C 
ATOM      9  C   UNL     1       1.195  -5.420   4.814  0.00  0.00    +0.110 C 
ATOM     10  H   UNL     1       0.267  -3.956   3.144  0.00  0.00    +0.150 HD
ENDROOT
BRANCH   7  11
ATOM     11  C   UNL     1       0.526  -7.748   7.785  0.00  0.00    +0.214 C 
ATOM     12  O   UNL     1      -0.251  -8.674   7.875  0.00  0.00    -0.276 OA
ATOM     13  N   UNL     1       0.937  -7.101   8.894  0.00  0.00    -0.329 N 
ATOM     14  H   UNL     1       1.558  -6.360   8.821  0.00  0.00    +0.145 HD
ATOM     15  H   UNL     1       0.610  -7.376   9.765  0.00  0.00    +0.145 HD
ENDBRANCH   7  11
BRANCH   1  16
ATOM     16  C   UNL     1      -0.648  -4.101   1.233  0.00  0.00    +0.109 C 
BRANCH  16  21
ATOM     17  C   UNL     1       0.002   1.521  -0.004  0.00  0.00    +0.007 C 
ATOM     18  C   UNL     1       0.017  -0.009  -0.009  0.00  0.00    -0.014 C 
ATOM     19  C   UNL     1      -1.420  -0.534   0.005  0.00  0.00    +0.003 C 
ATOM     20  C   UNL     1      -1.404  -2.064  -0.001  0.00  0.00    +0.005 C 
ATOM     21  C   UNL     1      -0.664  -2.571   1.239  0.00  0.00    +0.006 C 
ATOM     22  C   UNL     1       0.773  -2.046   1.224  0.00  0.00    +0.005 C 
ATOM     23  C   UNL     1       0.758  -0.516   1.230  0.00  0.00    +0.003 C 
ENDBRANCH  16  21
ENDBRANCH   1  16
TORSDOF 3
