REMARK  Name = ZINC58850114
REMARK  8 active torsions:
REMARK  status: ('A' for Active; 'I' for Inactive)
REMARK    1  A    between atoms: C_1  and  C_2
REMARK    2  A    between atoms: C_2  and  C_3
REMARK    3  A    between atoms: C_2  and  O_4
REMARK    4  A    between atoms: O_4  and  C_5
REMARK    5  A    between atoms: C_8  and  C_11
REMARK    6  A    between atoms: C_22  and  S_27
REMARK    7  A    between atoms: S_27  and  N_30
REMARK    8  A    between atoms: N_30  and  C_31
REMARK                            x       y       z     vdW  Elec       q    Type
REMARK                         _______ _______ _______ _____ _____    ______ ____
ROOT
ATOM      1  C   UNL     1      -2.700  -1.839   5.689  0.00  0.00    +0.105 C 
ATOM      2  C   UNL     1      -2.663  -0.471   6.303  0.00  0.00    +0.029 C 
ATOM      3  C   UNL     1      -1.279   0.196   6.162  0.00  0.00    +0.033 C 
ATOM      4  C   UNL     1      -1.206   1.132   7.350  0.00  0.00    -0.030 C 
ATOM      5  C   UNL     1      -2.095   0.809   8.254  0.00  0.00    -0.023 C 
ATOM      6  C   UNL     1      -2.869  -0.409   7.814  0.00  0.00    +0.049 C 
ATOM      7  C   UNL     1      -2.308  -1.601   8.537  0.00  0.00    -0.018 A 
ATOM      8  C   UNL     1      -2.158  -1.525   9.914  0.00  0.00    +0.034 A 
ATOM      9  C   UNL     1      -1.638  -2.590  10.621  0.00  0.00    +0.109 A 
ATOM     10  C   UNL     1      -1.260  -3.744   9.959  0.00  0.00    +0.030 A 
ATOM     11  C   UNL     1      -1.409  -3.831   8.590  0.00  0.00    +0.025 A 
ATOM     12  C   UNL     1      -1.939  -2.759   7.876  0.00  0.00    +0.031 A 
ATOM     13  N   UNL     1      -2.126  -2.882   6.513  0.00  0.00    -0.336 N 
ATOM     14  H   UNL     1      -1.830  -3.702   6.086  0.00  0.00    +0.147 HD
ENDROOT
BRANCH   1  18
ATOM     15  C   UNL     1      -0.575  -1.717   1.983  0.00  0.00    +0.121 A 
ATOM     16  C   UNL     1      -1.958  -1.608   1.995  0.00  0.00    +0.046 A 
ATOM     17  C   UNL     1      -2.643  -1.648   3.195  0.00  0.00    +0.009 A 
ATOM     18  C   UNL     1      -1.951  -1.796   4.382  0.00  0.00    -0.027 A 
ATOM     19  C   UNL     1      -0.572  -1.905   4.373  0.00  0.00    +0.009 A 
ATOM     20  C   UNL     1       0.117  -1.872   3.176  0.00  0.00    +0.046 A 
BRANCH  15  21
ATOM     21  O   UNL     1       0.101  -1.679   0.805  0.00  0.00    -0.489 OA
BRANCH  21  23
ATOM     22  C   UNL     1      -0.863   0.081  -0.542  0.00  0.00    +0.051 C 
ATOM     23  C   UNL     1      -0.666  -1.427  -0.374  0.00  0.00    +0.167 C 
ATOM     24  C   UNL     1       0.074  -1.983  -1.592  0.00  0.00    +0.051 C 
ENDBRANCH  21  23
ENDBRANCH  15  21
ENDBRANCH   1  18
BRANCH   9  25
ATOM     25  S   UNL     1      -1.454  -2.479  12.370  0.00  0.00    +0.072 S 
ATOM     26  O   UNL     1      -0.437  -3.404  12.731  0.00  0.00    -0.150 OA
ATOM     27  O   UNL     1      -1.372  -1.095  12.682  0.00  0.00    -0.150 OA
BRANCH  25  28
ATOM     28  N   UNL     1      -2.860  -3.034  13.046  0.00  0.00    -0.216 N 
ATOM     29  H   UNL     1      -3.389  -2.451  13.613  0.00  0.00    +0.174 HD
BRANCH  28  30
ATOM     30  C   UNL     1      -3.284  -4.339  12.801  0.00  0.00    +0.056 A 
ATOM     31  C   UNL     1      -2.363  -5.358  12.679  0.00  0.00    +0.025 A 
ATOM     32  C   UNL     1      -2.775  -6.664  12.434  0.00  0.00    +0.002 A 
ATOM     33  C   UNL     1      -4.096  -6.972  12.309  0.00  0.00    +0.008 A 
ATOM     34  C   UNL     1      -5.066  -5.963  12.426  0.00  0.00    -0.016 A 
ATOM     35  C   UNL     1      -4.659  -4.630  12.681  0.00  0.00    +0.004 A 
ATOM     36  C   UNL     1      -5.630  -3.624  12.803  0.00  0.00    +0.010 A 
ATOM     37  C   UNL     1      -6.949  -3.942  12.681  0.00  0.00    +0.001 A 
ATOM     38  C   UNL     1      -7.351  -5.253  12.437  0.00  0.00    +0.001 A 
ATOM     39  C   UNL     1      -6.436  -6.252  12.301  0.00  0.00    +0.008 A 
ENDBRANCH  28  30
ENDBRANCH  25  28
ENDBRANCH   9  25
TORSDOF 6
