REMARK  Name = ZINC09236815
REMARK  7 active torsions:
REMARK  status: ('A' for Active; 'I' for Inactive)
REMARK    1  A    between atoms: C_1  and  C_2
REMARK    2  A    between atoms: C_7  and  N_8
REMARK    3  A    between atoms: C_9  and  C_11
REMARK    4  A    between atoms: C_13  and  C_23
REMARK    5  A    between atoms: C_17  and  C_22
REMARK    6  A    between atoms: C_26  and  O_29
REMARK    7  A    between atoms: O_29  and  C_30
REMARK                            x       y       z     vdW  Elec       q    Type
REMARK                         _______ _______ _______ _____ _____    ______ ____
ROOT
ATOM      1  C   UNL     1       0.229   4.208  -0.345  0.00  0.00    +0.166 C 
ATOM      2  C   UNL     1      -0.843   3.529   0.517  0.00  0.00    +0.140 C 
ATOM      3  N   UNL     1      -1.131   2.186   0.012  0.00  0.00    -0.272 N 
ATOM      4  N   UNL     1      -0.050   1.364   0.001  0.00  0.00    -0.225 N 
ATOM      5  C   UNL     1      -0.041  -0.002  -0.010  0.00  0.00    +0.148 A 
ATOM      6  N   UNL     1       1.207  -0.382  -0.039  0.00  0.00    -0.132 NA
ATOM      7  N   UNL     1       1.984   0.646  -0.043  0.00  0.00    -0.121 NA
ATOM      8  C   UNL     1       1.265   1.734  -0.013  0.00  0.00    +0.209 A 
ATOM      9  S   UNL     1       1.822   3.409   0.014  0.00  0.00    -0.069 S 
ATOM     10  C   UNL     1      -1.249  -0.903   0.010  0.00  0.00    +0.090 C 
ATOM     11  H   UNL     1      -1.563   2.227  -0.898  0.00  0.00    +0.167 HD
ENDROOT
BRANCH   2  12
ATOM     12  C   UNL     1      -2.104   4.354   0.485  0.00  0.00    -0.024 A 
ATOM     13  C   UNL     1      -2.958   4.267  -0.598  0.00  0.00    +0.009 A 
ATOM     14  C   UNL     1      -4.118   5.018  -0.627  0.00  0.00    +0.046 A 
ATOM     15  C   UNL     1      -4.418   5.868   0.427  0.00  0.00    +0.120 A 
ATOM     16  C   UNL     1      -3.557   5.958   1.510  0.00  0.00    +0.046 A 
ATOM     17  C   UNL     1      -2.402   5.200   1.537  0.00  0.00    +0.009 A 
BRANCH  15  18
ATOM     18  O   UNL     1      -5.555   6.612   0.398  0.00  0.00    -0.495 OA
ATOM     19  C   UNL     1      -6.395   6.469  -0.749  0.00  0.00    +0.277 C 
ENDBRANCH  15  18
ENDBRANCH   2  12
BRANCH   1  21
ATOM     20  N   UNL     1       0.604   6.574  -0.963  0.00  0.00    -0.284 N 
ATOM     21  C   UNL     1       0.306   5.674  -0.005  0.00  0.00    +0.233 C 
ATOM     22  O   UNL     1       0.099   6.045   1.132  0.00  0.00    -0.274 OA
ATOM     23  H   UNL     1       0.847   6.272  -1.853  0.00  0.00    +0.155 HD
BRANCH  20  30
ATOM     24  C   UNL     1       2.188   8.328  -2.546  0.00  0.00    +0.046 C 
ATOM     25  C   UNL     1       1.319   8.834  -1.423  0.00  0.00    -0.028 A 
ATOM     26  C   UNL     1       1.276  10.185  -1.137  0.00  0.00    +0.020 A 
ATOM     27  C   UNL     1       0.479  10.649  -0.106  0.00  0.00    +0.018 A 
ATOM     28  C   UNL     1      -0.277   9.763   0.641  0.00  0.00    +0.017 A 
ATOM     29  C   UNL     1      -0.242   8.413   0.355  0.00  0.00    +0.024 A 
ATOM     30  C   UNL     1       0.562   7.943  -0.675  0.00  0.00    +0.036 A 
ATOM     31 BR   UNL     1       0.423  12.499   0.283  0.00  0.00    -0.050 Br
ENDBRANCH  20  30
ENDBRANCH   1  21
TORSDOF 4
