REMARK  Name = ZINC50197148
REMARK  8 active torsions:
REMARK  status: ('A' for Active; 'I' for Inactive)
REMARK    1  A    between atoms: C_1  and  C_2
REMARK    2  A    between atoms: C_6  and  C_21
REMARK    3  A    between atoms: N_12  and  C_13
REMARK    4  A    between atoms: C_13  and  C_14
REMARK    5  A    between atoms: C_13  and  C_15
REMARK    6  A    between atoms: C_13  and  C_16
REMARK    7  A    between atoms: C_16  and  C_17
REMARK    8  A    between atoms: C_17  and  C_18
REMARK                            x       y       z     vdW  Elec       q    Type
REMARK                         _______ _______ _______ _____ _____    ______ ____
ROOT
ATOM      1  C   UNL     1       0.015   1.528  -0.010  0.00  0.00    +0.028 C 
ATOM      2  C   UNL     1       0.018  -0.002  -0.008  0.00  0.00    +0.074 C 
ATOM      3  C   UNL     1       0.635  -0.516  -1.312  0.00  0.00    +0.023 C 
ATOM      4  C   UNL     1       0.763  -2.040  -1.246  0.00  0.00    +0.016 C 
ATOM      5  C   UNL     1       1.687  -2.426  -0.089  0.00  0.00    +0.092 C 
ATOM      6  C   UNL     1       1.081  -1.934   1.229  0.00  0.00    +0.122 C 
ATOM      7  N   UNL     1       0.818  -0.492   1.123  0.00  0.00    -0.282 N 
ATOM      8  C   UNL     1       1.304   0.365   2.042  0.00  0.00    +0.303 C 
ATOM      9  O   UNL     1       0.994   1.540   2.002  0.00  0.00    -0.253 OA
ATOM     10  N   UNL     1       2.134  -0.080   3.006  0.00  0.00    -0.294 N 
ATOM     11  H   UNL     1       2.440  -1.001   2.995  0.00  0.00    +0.151 HD
ENDROOT
BRANCH   5  12
ATOM     12  C   UNL     1       1.838  -3.925  -0.045  0.00  0.00    +0.215 C 
ATOM     13  O   UNL     1       1.263  -4.617  -0.859  0.00  0.00    -0.276 OA
ATOM     14  N   UNL     1       2.612  -4.497   0.898  0.00  0.00    -0.329 N 
ATOM     15  H   UNL     1       3.071  -3.944   1.549  0.00  0.00    +0.145 HD
ATOM     16  H   UNL     1       2.709  -5.462   0.927  0.00  0.00    +0.145 HD
ENDBRANCH   5  12
BRANCH  10  17
ATOM     17  C   UNL     1       2.574   0.826   4.070  0.00  0.00    +0.031 C 
ATOM     18  C   UNL     1       3.324   2.009   3.454  0.00  0.00    +0.031 C 
ATOM     19  C   UNL     1       1.355   1.338   4.840  0.00  0.00    +0.031 C 
BRANCH  17  20
ATOM     20  C   UNL     1       3.503   0.076   5.027  0.00  0.00    +0.036 C 
BRANCH  20  21
ATOM     21  C   UNL     1       3.963   1.022   6.138  0.00  0.00    +0.127 C 
BRANCH  21  22
ATOM     22  C   UNL     1       4.878   0.283   7.080  0.00  0.00    +0.356 C 
ATOM     23  O   UNL     1       5.138  -0.891   6.881  0.00  0.00    -0.246 OA
ATOM     24  O   UNL     1       5.358   0.860   8.041  0.00  0.00    -0.246 OA
ENDBRANCH  21  22
ENDBRANCH  20  21
ENDBRANCH  17  20
ENDBRANCH  10  17
TORSDOF 5
