REMARK  Name = ZINC36612778
REMARK  13 active torsions:
REMARK  status: ('A' for Active; 'I' for Inactive)
REMARK    1  A    between atoms: C_1  and  C_2
REMARK    2  A    between atoms: C_2  and  O_3
REMARK    3  A    between atoms: O_3  and  C_4
REMARK    4  A    between atoms: C_6  and  C_22
REMARK    5  A    between atoms: C_9  and  O_10
REMARK    6  A    between atoms: O_10  and  C_11
REMARK    7  A    between atoms: C_11  and  C_12
REMARK    8  A    between atoms: N_14  and  C_15
REMARK    9  A    between atoms: C_22  and  N_23
REMARK   10  A    between atoms: N_23  and  C_24
REMARK   11  A    between atoms: C_24  and  C_25
REMARK   12  A    between atoms: C_25  and  C_26
REMARK   13  A    between atoms: C_26  and  O_27
REMARK                            x       y       z     vdW  Elec       q    Type
REMARK                         _______ _______ _______ _____ _____    ______ ____
ROOT
ATOM      1  C   UNL     1       0.796  -1.826   1.309  0.00  0.00    +0.162 A 
ATOM      2  C   UNL     1       0.249  -2.674   0.360  0.00  0.00    +0.052 A 
ATOM      3  C   UNL     1       0.351  -4.043   0.515  0.00  0.00    -0.047 A 
ATOM      4  C   UNL     1       1.000  -4.571   1.617  0.00  0.00    +0.023 A 
ATOM      5  C   UNL     1       1.548  -3.730   2.568  0.00  0.00    +0.065 A 
ATOM      6  C   UNL     1       1.454  -2.356   2.415  0.00  0.00    +0.164 A 
ATOM      7 BR   UNL     1       1.137  -6.446   1.823  0.00  0.00    -0.050 Br
ENDROOT
BRANCH   1   8
ATOM      8  O   UNL     1       0.696  -0.478   1.158  0.00  0.00    -0.489 OA
BRANCH   8  10
ATOM      9  C   UNL     1      -0.004   1.525   0.002  0.00  0.00    +0.048 C 
ATOM     10  C   UNL     1       0.007  -0.005  -0.001  0.00  0.00    +0.226 C 
ENDBRANCH   8  10
ENDBRANCH   1   8
BRANCH   6  11
ATOM     11  O   UNL     1       1.998  -1.528   3.346  0.00  0.00    -0.479 OA
BRANCH  11  12
ATOM     12  C   UNL     1       2.658  -2.143   4.455  0.00  0.00    +0.325 C 
BRANCH  12  13
ATOM     13  C   UNL     1       3.194  -1.076   5.375  0.00  0.00    +0.255 C 
ATOM     14  O   UNL     1       3.027   0.095   5.107  0.00  0.00    -0.272 OA
ATOM     15  N   UNL     1       3.858  -1.423   6.494  0.00  0.00    -0.283 N 
ATOM     16  H   UNL     1       3.934  -2.358   6.743  0.00  0.00    +0.155 HD
BRANCH  15  17
ATOM     17  C   UNL     1       4.439  -0.436   7.298  0.00  0.00    +0.033 A 
ATOM     18  C   UNL     1       5.641  -0.686   7.947  0.00  0.00    +0.023 A 
ATOM     19  C   UNL     1       6.212   0.291   8.740  0.00  0.00    +0.002 A 
ATOM     20  C   UNL     1       5.588   1.516   8.887  0.00  0.00    +0.000 A 
ATOM     21  C   UNL     1       4.391   1.768   8.242  0.00  0.00    +0.002 A 
ATOM     22  C   UNL     1       3.818   0.797   7.443  0.00  0.00    +0.023 A 
ENDBRANCH  15  17
ENDBRANCH  12  13
ENDBRANCH  11  12
ENDBRANCH   6  11
BRANCH   3  23
ATOM     23  C   UNL     1      -0.245  -4.964  -0.519  0.00  0.00    -0.046 C 
BRANCH  23  24
ATOM     24  N   UNL     1       0.828  -5.537  -1.342  0.00  0.00    +0.382 N 
ATOM     25  H   UNL     1       1.331  -4.793  -1.804  0.00  0.00    -0.085 HD
ATOM     26  H   UNL     1       1.462  -6.057  -0.754  0.00  0.00    -0.085 HD
BRANCH  24  27
ATOM     27  C   UNL     1       0.247  -6.434  -2.350  0.00  0.00    -0.080 C 
BRANCH  27  28
ATOM     28  C   UNL     1       1.364  -7.030  -3.208  0.00  0.00    +0.009 C 
BRANCH  28  29
ATOM     29  C   UNL     1       0.759  -7.965  -4.257  0.00  0.00    +0.154 C 
BRANCH  29  30
ATOM     30  O   UNL     1       1.803  -8.522  -5.058  0.00  0.00    -0.395 OA
ATOM     31  H   UNL     1       1.491  -9.126  -5.746  0.00  0.00    +0.209 HD
ENDBRANCH  29  30
ENDBRANCH  28  29
ENDBRANCH  27  28
ENDBRANCH  24  27
ENDBRANCH  23  24
ENDBRANCH   3  23
TORSDOF 12
