REMARK  Name = ZINC64735040
REMARK  7 active torsions:
REMARK  status: ('A' for Active; 'I' for Inactive)
REMARK    1  A    between atoms: C_1  and  N_2
REMARK    2  A    between atoms: N_7  and  C_10
REMARK    3  A    between atoms: C_10  and  C_11
REMARK    4  A    between atoms: N_13  and  C_14
REMARK    5  A    between atoms: C_14  and  C_15
REMARK    6  A    between atoms: C_15  and  C_17
REMARK    7  A    between atoms: C_15  and  C_22
REMARK                            x       y       z     vdW  Elec       q    Type
REMARK                         _______ _______ _______ _____ _____    ______ ____
ROOT
ATOM      1  C   UNL     1      -4.491  -4.053   1.424  0.00  0.00    +0.233 C 
ATOM      2  O   UNL     1      -3.909  -3.522   2.345  0.00  0.00    -0.274 OA
ATOM      3  N   UNL     1      -5.461  -4.956   1.671  0.00  0.00    -0.313 N 
ATOM      4  H   UNL     1      -5.927  -5.381   0.933  0.00  0.00    +0.149 HD
ENDROOT
BRANCH   1   5
ATOM      5  C   UNL     1      -4.131  -3.704   0.003  0.00  0.00    +0.221 C 
BRANCH   5  12
ATOM      6  C   UNL     1      -0.018   1.461   0.010  0.00  0.00    +0.151 C 
ATOM      7  N   UNL     1       0.002  -0.004   0.002  0.00  0.00    -0.253 N 
ATOM      8  C   UNL     1      -1.127  -0.789   0.003  0.00  0.00    +0.146 A 
ATOM      9  C   UNL     1      -0.771  -2.127  -0.007  0.00  0.00    +0.073 A 
ATOM     10  C   UNL     1      -1.766  -3.104  -0.007  0.00  0.00    +0.261 A 
ATOM     11  O   UNL     1      -1.476  -4.290  -0.015  0.00  0.00    -0.267 OA
ATOM     12  N   UNL     1      -3.058  -2.707   0.002  0.00  0.00    -0.290 N 
ATOM     13  C   UNL     1      -3.357  -1.393   0.012  0.00  0.00    +0.204 A 
ATOM     14  N   UNL     1      -2.436  -0.471   0.012  0.00  0.00    -0.221 NA
ATOM     15  C   UNL     1       0.736  -2.170  -0.015  0.00  0.00    +0.146 C 
ATOM     16  N   UNL     1       1.142  -0.751  -0.013  0.00  0.00    -0.235 NA
ATOM     17  H   UNL     1       1.706  -0.533  -0.821  0.00  0.00    +0.145 HD
ENDBRANCH   5  12
ENDBRANCH   1   5
BRANCH   3  18
ATOM     18  C   UNL     1      -5.811  -5.296   3.052  0.00  0.00    +0.117 C 
BRANCH  18  19
ATOM     19  C   UNL     1      -6.932  -6.337   3.052  0.00  0.00    +0.071 C 
BRANCH  19  20
ATOM     20  C   UNL     1      -7.377  -6.596   4.469  0.00  0.00    -0.032 C 
ATOM     21  C   UNL     1      -8.617  -6.414   4.978  0.00  0.00    -0.000 A 
ATOM     22  C   UNL     1      -9.874  -5.938   4.389  0.00  0.00    +0.010 A 
ATOM     23  C   UNL     1     -10.976  -5.862   5.168  0.00  0.00    +0.001 A 
ATOM     24  C   UNL     1     -10.948  -6.225   6.522  0.00  0.00    +0.002 A 
ATOM     25  C   UNL     1      -9.831  -6.671   7.134  0.00  0.00    +0.026 A 
ATOM     26  C   UNL     1      -8.614  -6.792   6.410  0.00  0.00    +0.043 A 
ATOM     27  N   UNL     1      -7.418  -7.191   6.771  0.00  0.00    -0.380 N 
ATOM     28  C   UNL     1      -6.529  -7.118   5.607  0.00  0.00    +0.145 C 
ATOM     29  H   UNL     1      -7.166  -7.489   7.659  0.00  0.00    +0.160 HD
ENDBRANCH  19  20
BRANCH  19  30
ATOM     30  C   UNL     1      -6.428  -7.619   2.442  0.00  0.00    -0.002 A 
ATOM     31  C   UNL     1      -6.877  -8.277   1.345  0.00  0.00    +0.012 A 
ATOM     32  C   UNL     1      -6.253  -9.450   0.965  0.00  0.00    +0.008 A 
ATOM     33  C   UNL     1      -5.210  -9.908   1.700  0.00  0.00    +0.045 A 
ATOM     34  S   UNL     1      -5.078  -8.662   2.971  0.00  0.00    -0.101 S 
ENDBRANCH  19  30
ENDBRANCH  18  19
ENDBRANCH   3  18
TORSDOF 6
