REMARK  Name = ZINC46865416
REMARK  13 active torsions:
REMARK  status: ('A' for Active; 'I' for Inactive)
REMARK    1  A    between atoms: C_1  and  C_2
REMARK    2  A    between atoms: C_5  and  S_8
REMARK    3  A    between atoms: S_8  and  N_11
REMARK    4  A    between atoms: N_11  and  C_12
REMARK    5  A    between atoms: C_12  and  C_14
REMARK    6  A    between atoms: C_12  and  C_18
REMARK    7  A    between atoms: C_14  and  C_15
REMARK    8  A    between atoms: C_15  and  S_16
REMARK    9  A    between atoms: S_16  and  C_17
REMARK   10  A    between atoms: N_20  and  C_21
REMARK   11  A    between atoms: N_24  and  C_27
REMARK   12  A    between atoms: C_27  and  C_28
REMARK   13  A    between atoms: C_32  and  C_34
REMARK                            x       y       z     vdW  Elec       q    Type
REMARK                         _______ _______ _______ _____ _____    ______ ____
ROOT
ATOM      1  C   UNL     1       3.461  -6.013   1.183  0.00  0.00    +0.232 C 
ATOM      2  O   UNL     1       3.229  -6.927   0.419  0.00  0.00    -0.274 OA
ATOM      3  N   UNL     1       4.507  -6.092   2.029  0.00  0.00    -0.311 N 
ATOM      4  H   UNL     1       4.693  -5.361   2.639  0.00  0.00    +0.149 HD
ENDROOT
BRANCH   3   5
ATOM      5  C   UNL     1       5.365  -7.280   2.025  0.00  0.00    +0.069 C 
ATOM      6  C   UNL     1       4.755  -8.354   2.929  0.00  0.00    +0.003 C 
ATOM      7  C   UNL     1       5.694  -9.561   2.984  0.00  0.00    -0.077 C 
ATOM      8  N   UNL     1       6.996  -9.148   3.522  0.00  0.00    +0.382 N 
ATOM      9  C   UNL     1       7.619  -8.170   2.622  0.00  0.00    -0.077 C 
ATOM     10  C   UNL     1       6.754  -6.910   2.554  0.00  0.00    +0.003 C 
ATOM     11  H   UNL     1       6.866  -8.731   4.432  0.00  0.00    -0.081 HD
BRANCH   8  12
ATOM     12  C   UNL     1       7.868 -10.323   3.645  0.00  0.00    -0.043 C 
BRANCH  12  13
ATOM     13  C   UNL     1       9.159  -9.923   4.311  0.00  0.00    -0.064 A 
ATOM     14  C   UNL     1      10.227  -9.492   3.545  0.00  0.00    +0.002 A 
ATOM     15  C   UNL     1      11.412  -9.125   4.156  0.00  0.00    +0.000 A 
ATOM     16  C   UNL     1      11.529  -9.188   5.532  0.00  0.00    +0.003 A 
ATOM     17  C   UNL     1      10.461  -9.618   6.297  0.00  0.00    -0.050 A 
ATOM     18  C   UNL     1       9.275  -9.981   5.687  0.00  0.00    +0.005 A 
ATOM     19  C   UNL     1      10.589  -9.687   7.797  0.00  0.00    +0.044 C 
ENDBRANCH  12  13
ENDBRANCH   8  12
ENDBRANCH   3   5
BRANCH   1  20
ATOM     20  C   UNL     1       2.579  -4.792   1.187  0.00  0.00    +0.163 C 
BRANCH  20  21
ATOM     21  N   UNL     1       1.521  -4.950   0.185  0.00  0.00    -0.178 NA
ATOM     22  H   UNL     1       1.697  -4.736  -0.744  0.00  0.00    +0.149 HD
BRANCH  21  23
ATOM     23  S   UNL     1       0.025  -5.495   0.640  0.00  0.00    +0.059 S 
ATOM     24  O   UNL     1       0.239  -6.651   1.437  0.00  0.00    -0.153 OA
ATOM     25  O   UNL     1      -0.774  -5.516  -0.534  0.00  0.00    -0.153 OA
BRANCH  23  30
ATOM     26  C   UNL     1      -2.369  -1.316   4.276  0.00  0.00    +0.044 C 
ATOM     27  C   UNL     1      -1.771  -2.360   3.368  0.00  0.00    -0.050 A 
ATOM     28  C   UNL     1      -1.899  -2.238   1.997  0.00  0.00    +0.005 A 
ATOM     29  C   UNL     1      -1.350  -3.195   1.164  0.00  0.00    +0.029 A 
ATOM     30  C   UNL     1      -0.673  -4.274   1.702  0.00  0.00    +0.105 A 
ATOM     31  C   UNL     1      -0.545  -4.395   3.073  0.00  0.00    +0.029 A 
ATOM     32  C   UNL     1      -1.089  -3.435   3.906  0.00  0.00    +0.005 A 
ENDBRANCH  23  30
ENDBRANCH  21  23
ENDBRANCH  20  21
BRANCH  20  33
ATOM     33  C   UNL     1       3.417  -3.556   0.852  0.00  0.00    +0.040 C 
BRANCH  33  34
ATOM     34  C   UNL     1       2.543  -2.304   0.952  0.00  0.00    +0.071 C 
BRANCH  34  35
ATOM     35  S   UNL     1       3.525  -0.845   0.509  0.00  0.00    -0.164 S 
ATOM     36  C   UNL     1       2.405   0.548   0.817  0.00  0.00    +0.084 C 
ENDBRANCH  34  35
ENDBRANCH  33  34
ENDBRANCH  20  33
ENDBRANCH   1  20
TORSDOF 10
