REMARK  Name = ZINC39746384
REMARK  10 active torsions:
REMARK  status: ('A' for Active; 'I' for Inactive)
REMARK    1  A    between atoms: C_1  and  C_2
REMARK    2  A    between atoms: C_6  and  N_12
REMARK    3  A    between atoms: C_9  and  C_11
REMARK    4  A    between atoms: C_13  and  C_15
REMARK    5  A    between atoms: C_15  and  O_16
REMARK    6  A    between atoms: O_16  and  C_17
REMARK    7  A    between atoms: C_17  and  C_19
REMARK    8  A    between atoms: C_19  and  C_20
REMARK    9  A    between atoms: C_20  and  C_25
REMARK   10  A    between atoms: C_25  and  C_26
REMARK                            x       y       z     vdW  Elec       q    Type
REMARK                         _______ _______ _______ _____ _____    ______ ____
ROOT
ATOM      1  O   UNL     1       5.724   0.224  -5.842  0.00  0.00    -0.455 OA
ENDROOT
BRANCH   1   2
ATOM      2  C   UNL     1       6.478   1.078  -6.554  0.00  0.00    +0.308 C 
ATOM      3  O   UNL     1       6.168   2.243  -6.623  0.00  0.00    -0.251 OA
BRANCH   2   4
ATOM      4  C   UNL     1       7.710   0.582  -7.265  0.00  0.00    +0.127 C 
BRANCH   4   5
ATOM      5  C   UNL     1       8.381   1.747  -7.995  0.00  0.00    -0.017 C 
ATOM      6  C   UNL     1       8.841   2.813  -6.979  0.00  0.00    +0.007 C 
ATOM      7  C   UNL     1       8.582   4.160  -7.698  0.00  0.00    +0.001 C 
ATOM      8  C   UNL     1       7.251   3.897  -8.446  0.00  0.00    +0.001 C 
ATOM      9  C   UNL     1       7.370   2.437  -8.928  0.00  0.00    +0.007 C 
BRANCH   5  10
ATOM     10  C   UNL     1       9.577   1.240  -8.803  0.00  0.00    +0.041 C 
BRANCH  10  11
ATOM     11  C   UNL     1      10.529   0.476  -7.880  0.00  0.00    +0.134 C 
ATOM     12  N   UNL     1      11.778   0.135  -8.574  0.00  0.00    -0.331 N 
ATOM     13  C   UNL     1      12.083  -1.217  -8.725  0.00  0.00    +0.042 A 
ATOM     14  C   UNL     1      13.228  -1.731  -9.359  0.00  0.00    +0.024 A 
ATOM     15  C   UNL     1      13.439  -3.087  -9.459  0.00  0.00    +0.002 A 
ATOM     16  C   UNL     1      12.530  -3.991  -8.939  0.00  0.00    +0.001 A 
ATOM     17  C   UNL     1      11.393  -3.512  -8.309  0.00  0.00    +0.016 A 
ATOM     18  C   UNL     1      11.184  -2.155  -8.210  0.00  0.00    +0.030 A 
ATOM     19  S   UNL     1       9.871  -1.195  -7.489  0.00  0.00    -0.101 S 
ATOM     20  H   UNL     1      12.369   0.825  -8.914  0.00  0.00    +0.147 HD
ENDBRANCH  10  11
ENDBRANCH   5  10
ENDBRANCH   4   5
ENDBRANCH   2   4
ENDBRANCH   1   2
BRANCH   1  21
ATOM     21  C   UNL     1       4.571   0.763  -5.194  0.00  0.00    +0.327 C 
BRANCH  21  23
ATOM     22  N   UNL     1       2.731  -0.058  -3.758  0.00  0.00    -0.283 N 
ATOM     23  C   UNL     1       3.855  -0.335  -4.449  0.00  0.00    +0.253 C 
ATOM     24  O   UNL     1       4.290  -1.466  -4.472  0.00  0.00    -0.272 OA
ATOM     25  H   UNL     1       2.383   0.847  -3.740  0.00  0.00    +0.152 HD
BRANCH  22  30
ATOM     26  C   UNL     1      -0.875   1.645  -1.007  0.00  0.00    +0.030 C 
ATOM     27  C   UNL     1      -0.760   0.126  -0.870  0.00  0.00    +0.099 C 
ATOM     28  C   UNL     1       0.120  -0.414  -1.964  0.00  0.00    -0.011 C 
ATOM     29  C   UNL     1       1.439  -0.589  -1.772  0.00  0.00    +0.065 C 
ATOM     30  C   UNL     1       2.035  -1.125  -3.034  0.00  0.00    +0.243 C 
ATOM     31  O   UNL     1       0.922  -1.615  -3.815  0.00  0.00    -0.347 OA
ATOM     32  C   UNL     1      -0.207  -0.837  -3.363  0.00  0.00    +0.146 C 
ATOM     33  C   UNL     1      -0.391   0.392  -4.256  0.00  0.00    +0.043 C 
ATOM     34  C   UNL     1       2.042  -0.268  -0.469  0.00  0.00    +0.258 C 
ATOM     35  O   UNL     1       3.246  -0.271  -0.295  0.00  0.00    -0.269 OA
ATOM     36  N   UNL     1       1.172   0.032   0.527  0.00  0.00    -0.247 N 
ATOM     37  N   UNL     1      -0.164  -0.208   0.430  0.00  0.00    -0.233 NA
ATOM     38  H   UNL     1       1.515   0.432   1.342  0.00  0.00    +0.169 HD
ATOM     39  H   UNL     1      -0.669   0.234   1.184  0.00  0.00    +0.145 HD
ENDBRANCH  22  30
ENDBRANCH  21  23
ENDBRANCH   1  21
TORSDOF 8
