REMARK  Name = ZINC03830924
REMARK  10 active torsions:
REMARK  status: ('A' for Active; 'I' for Inactive)
REMARK    1  A    between atoms: C_1  and  C_2
REMARK    2  A    between atoms: C_4  and  O_41
REMARK    3  A    between atoms: C_6  and  N_40
REMARK    4  A    between atoms: C_9  and  O_12
REMARK    5  A    between atoms: O_12  and  C_13
REMARK    6  A    between atoms: C_16  and  C_36
REMARK    7  A    between atoms: C_16  and  O_39
REMARK    8  A    between atoms: C_20  and  O_35
REMARK    9  A    between atoms: C_23  and  O_24
REMARK   10  A    between atoms: C_36  and  C_38
REMARK                            x       y       z     vdW  Elec       q    Type
REMARK                         _______ _______ _______ _____ _____    ______ ____
ROOT
ATOM      1  C   UNL     1       3.200  -1.857   2.119  0.00  0.00    +0.158 C 
ATOM      2  C   UNL     1       4.165  -2.934   2.610  0.00  0.00    +0.079 C 
ATOM      3  C   UNL     1       5.571  -2.326   2.675  0.00  0.00    +0.130 C 
ATOM      4  C   UNL     1       5.605  -1.315   3.818  0.00  0.00    +0.082 C 
ATOM      5  C   UNL     1       4.456  -0.346   3.705  0.00  0.00    +0.007 A 
ATOM      6  C   UNL     1       3.353  -0.596   2.931  0.00  0.00    +0.030 A 
ATOM      7  C   UNL     1       2.311   0.339   2.870  0.00  0.00    +0.134 A 
ATOM      8  C   UNL     1       2.386   1.530   3.590  0.00  0.00    +0.078 A 
ATOM      9  C   UNL     1       3.522   1.788   4.384  0.00  0.00    +0.078 A 
ATOM     10  C   UNL     1       4.547   0.849   4.433  0.00  0.00    +0.132 A 
ATOM     11  C   UNL     1       3.617   3.043   5.150  0.00  0.00    +0.198 C 
ATOM     12  O   UNL     1       4.597   3.266   5.834  0.00  0.00    -0.286 OA
ATOM     13  C   UNL     1       2.518   4.030   5.086  0.00  0.00    +0.033 A 
ATOM     14  C   UNL     1       2.599   5.218   5.807  0.00  0.00    +0.012 A 
ATOM     15  C   UNL     1       1.567   6.136   5.741  0.00  0.00    +0.001 A 
ATOM     16  C   UNL     1       0.452   5.882   4.963  0.00  0.00    +0.001 A 
ATOM     17  C   UNL     1       0.355   4.706   4.240  0.00  0.00    +0.012 A 
ATOM     18  C   UNL     1       1.385   3.772   4.295  0.00  0.00    +0.033 A 
ATOM     19  C   UNL     1       1.290   2.513   3.526  0.00  0.00    +0.198 C 
ATOM     20  O   UNL     1       0.310   2.289   2.842  0.00  0.00    -0.286 OA
ENDROOT
BRANCH   3  21
ATOM     21  C   UNL     1       6.583  -3.414   2.928  0.00  0.00    +0.162 C 
ATOM     22  O   UNL     1       6.247  -4.434   3.480  0.00  0.00    -0.295 OA
ATOM     23  C   UNL     1       8.014  -3.229   2.493  0.00  0.00    +0.089 C 
ENDBRANCH   3  21
BRANCH  10  24
ATOM     24  O   UNL     1       5.643   1.090   5.195  0.00  0.00    -0.506 OA
ATOM     25  H   UNL     1       6.354   1.549   4.728  0.00  0.00    +0.292 HD
ENDBRANCH  10  24
BRANCH   7  26
ATOM     26  O   UNL     1       1.222   0.084   2.103  0.00  0.00    -0.506 OA
ATOM     27  H   UNL     1       0.518  -0.391   2.566  0.00  0.00    +0.292 HD
ENDBRANCH   7  26
BRANCH   3  28
ATOM     28  O   UNL     1       5.869  -1.669   1.441  0.00  0.00    -0.381 OA
ATOM     29  H   UNL     1       6.746  -1.262   1.415  0.00  0.00    +0.211 HD
ENDBRANCH   3  28
BRANCH   1  30
ATOM     30  O   UNL     1       1.858  -2.335   2.241  0.00  0.00    -0.343 OA
BRANCH  30  36
ATOM     31  C   UNL     1       0.695  -1.962  -2.343  0.00  0.00    +0.040 C 
ATOM     32  C   UNL     1       0.823  -2.959  -1.189  0.00  0.00    +0.145 C 
ATOM     33  C   UNL     1      -0.533  -3.624  -0.937  0.00  0.00    +0.129 C 
ATOM     34  C   UNL     1      -0.411  -4.575   0.258  0.00  0.00    -0.039 C 
ATOM     35  C   UNL     1       0.085  -3.789   1.474  0.00  0.00    +0.048 C 
ATOM     36  C   UNL     1       1.417  -3.117   1.129  0.00  0.00    +0.250 C 
ATOM     37  O   UNL     1       1.241  -2.270  -0.009  0.00  0.00    -0.346 OA
BRANCH  34  38
ATOM     38  N   UNL     1      -1.725  -5.163   0.553  0.00  0.00    +0.382 N 
ATOM     39  H   UNL     1      -2.053  -5.676  -0.252  0.00  0.00    -0.090 HD
ATOM     40  H   UNL     1      -1.644  -5.790   1.340  0.00  0.00    -0.090 HD
ATOM     41  H   UNL     1      -2.380  -4.429   0.774  0.00  0.00    -0.090 HD
ENDBRANCH  34  38
BRANCH  33  42
ATOM     42  O   UNL     1      -0.926  -4.361  -2.097  0.00  0.00    -0.391 OA
ATOM     43  H   UNL     1      -1.018  -3.820  -2.894  0.00  0.00    +0.210 HD
ENDBRANCH  33  42
ENDBRANCH  30  36
ENDBRANCH   1  30
TORSDOF 8
