REMARK  Name = ZINC35747411
REMARK  12 active torsions:
REMARK  status: ('A' for Active; 'I' for Inactive)
REMARK    1  A    between atoms: C_2  and  C_3
REMARK    2  A    between atoms: C_3  and  N_4
REMARK    3  A    between atoms: N_4  and  C_5
REMARK    4  A    between atoms: N_4  and  C_24
REMARK    5  A    between atoms: C_5  and  C_6
REMARK    6  A    between atoms: C_12  and  C_17
REMARK    7  A    between atoms: C_24  and  C_25
REMARK    8  A    between atoms: C_25  and  C_27
REMARK    9  A    between atoms: C_25  and  O_35
REMARK   10  A    between atoms: C_27  and  O_28
REMARK   11  A    between atoms: O_28  and  C_29
REMARK   12  A    between atoms: C_29  and  C_30
REMARK                            x       y       z     vdW  Elec       q    Type
REMARK                         _______ _______ _______ _____ _____    ______ ____
ROOT
ATOM      1  C   UNL     1      -0.391  -2.704  -1.094  0.00  0.00    -0.003 C 
ENDROOT
BRANCH   1   2
ATOM      2  C   UNL     1      -0.295  -3.416  -2.419  0.00  0.00    +0.094 A 
ATOM      3  N   UNL     1       0.625  -4.401  -2.583  0.00  0.00    -0.312 N 
ATOM      4  H   UNL     1       1.210  -4.633  -1.844  0.00  0.00    +0.170 HD
ATOM      5  C   UNL     1       0.743  -5.061  -3.750  0.00  0.00    +0.260 A 
ATOM      6  O   UNL     1       1.573  -5.943  -3.881  0.00  0.00    -0.267 OA
ATOM      7  C   UNL     1      -0.124  -4.712  -4.835  0.00  0.00    +0.080 A 
ATOM      8  C   UNL     1      -0.191  -5.273  -6.179  0.00  0.00    +0.006 A 
ATOM      9  C   UNL     1      -1.105  -4.776  -7.047  0.00  0.00    +0.056 A 
ATOM     10  S   UNL     1      -1.933  -3.515  -6.098  0.00  0.00    -0.076 S 
ATOM     11  C   UNL     1      -1.042  -3.682  -4.573  0.00  0.00    +0.116 A 
ATOM     12  N   UNL     1      -1.103  -3.078  -3.389  0.00  0.00    -0.229 NA
BRANCH   8  13
ATOM     13  C   UNL     1       0.723  -6.366  -6.588  0.00  0.00    +0.019 A 
ATOM     14  C   UNL     1       1.673  -6.148  -7.584  0.00  0.00    +0.011 A 
ATOM     15  C   UNL     1       2.522  -7.169  -7.960  0.00  0.00    +0.001 A 
ATOM     16  C   UNL     1       2.432  -8.408  -7.351  0.00  0.00    +0.003 A 
ATOM     17  C   UNL     1       1.492  -8.632  -6.363  0.00  0.00    +0.039 A 
ATOM     18  C   UNL     1       0.640  -7.616  -5.973  0.00  0.00    +0.131 A 
ATOM     19  F   UNL     1      -0.275  -7.834  -5.003  0.00  0.00    -0.205 F 
ENDBRANCH   8  13
ENDBRANCH   1   2
BRANCH   1  20
ATOM     20  N   UNL     1      -1.540  -1.790  -1.111  0.00  0.00    +0.388 N 
ATOM     21  H   UNL     1      -1.474  -1.181  -1.913  0.00  0.00    -0.081 HD
BRANCH  20  22
ATOM     22  C   UNL     1      -1.542  -0.983   0.116  0.00  0.00    -0.051 C 
BRANCH  22  24
ATOM     23  C   UNL     1      -0.487   1.214   0.274  0.00  0.00    +0.002 C 
ATOM     24  C   UNL     1      -0.336  -0.079   0.126  0.00  0.00    -0.053 C 
ENDBRANCH  22  24
ENDBRANCH  20  22
BRANCH  20  25
ATOM     25  C   UNL     1      -2.784  -2.567  -1.188  0.00  0.00    -0.044 C 
BRANCH  25  26
ATOM     26  C   UNL     1      -3.973  -1.615  -1.332  0.00  0.00    +0.124 C 
BRANCH  26  27
ATOM     27  O   UNL     1      -3.881  -0.923  -2.579  0.00  0.00    -0.391 OA
ATOM     28  H   UNL     1      -3.886  -1.504  -3.352  0.00  0.00    +0.210 HD
ENDBRANCH  26  27
BRANCH  26  29
ATOM     29  C   UNL     1      -5.276  -2.416  -1.286  0.00  0.00    +0.189 C 
BRANCH  29  30
ATOM     30  O   UNL     1      -6.387  -1.518  -1.303  0.00  0.00    -0.370 OA
BRANCH  30  31
ATOM     31  C   UNL     1      -7.660  -2.167  -1.264  0.00  0.00    +0.234 C 
BRANCH  31  32
ATOM     32  C   UNL     1      -8.753  -1.130  -1.286  0.00  0.00    +0.130 A 
ATOM     33  C   UNL     1      -9.342  -0.631  -2.387  0.00  0.00    +0.047 A 
ATOM     34  C   UNL     1     -10.305   0.306  -1.948  0.00  0.00    +0.041 A 
ATOM     35  C   UNL     1     -10.247   0.324  -0.604  0.00  0.00    +0.195 A 
ATOM     36  O   UNL     1      -9.309  -0.552  -0.208  0.00  0.00    -0.465 OA
ENDBRANCH  31  32
ENDBRANCH  30  31
ENDBRANCH  29  30
ENDBRANCH  26  29
ENDBRANCH  25  26
ENDBRANCH  20  25
ENDBRANCH   1  20
TORSDOF 12
