REMARK  Name = ZINC17835436
REMARK  4 active torsions:
REMARK  status: ('A' for Active; 'I' for Inactive)
REMARK    1  A    between atoms: C_4  and  C_7
REMARK    2  A    between atoms: C_9  and  C_30
REMARK    3  A    between atoms: C_12  and  C_24
REMARK    4  A    between atoms: C_14  and  C_18
REMARK                            x       y       z     vdW  Elec       q    Type
REMARK                         _______ _______ _______ _____ _____    ______ ____
ROOT
ATOM      1  C   UNL     1      -3.089   0.943  -1.401  0.00  0.00    +0.107 C 
ATOM      2  C   UNL     1      -2.514   0.980   0.019  0.00  0.00    +0.099 C 
ATOM      3  N   UNL     1      -3.473   1.635   0.917  0.00  0.00    -0.301 NA
ATOM      4  C   UNL     1      -4.708   0.852   1.052  0.00  0.00    +0.099 C 
ATOM      5  C   UNL     1      -5.432   0.807  -0.298  0.00  0.00    +0.107 C 
ATOM      6  C   UNL     1      -4.459   0.299  -1.341  0.00  0.00    +0.152 C 
ATOM      7  O   UNL     1      -4.765  -0.589  -2.100  0.00  0.00    -0.296 OA
ATOM      8  H   UNL     1      -3.023   1.749   1.914  0.00  0.00    +0.123 HD
ENDROOT
BRANCH   1  12
ATOM      9  C   UNL     1      -0.528  -1.353  -3.934  0.00  0.00    +0.000 A 
ATOM     10  C   UNL     1      -0.776  -0.025  -4.224  0.00  0.00    +0.000 A 
ATOM     11  C   UNL     1      -1.605   0.718  -3.405  0.00  0.00    +0.004 A 
ATOM     12  C   UNL     1      -2.186   0.133  -2.295  0.00  0.00    -0.035 A 
ATOM     13  C   UNL     1      -1.932  -1.194  -2.001  0.00  0.00    +0.004 A 
ATOM     14  C   UNL     1      -1.107  -1.939  -2.824  0.00  0.00    +0.000 A 
ENDBRANCH   1  12
BRANCH   5  15
ATOM     15  C   UNL     1      -6.614  -0.123  -0.210  0.00  0.00    -0.035 A 
ATOM     16  C   UNL     1      -6.423  -1.456   0.102  0.00  0.00    +0.004 A 
ATOM     17  C   UNL     1      -7.508  -2.309   0.188  0.00  0.00    +0.000 A 
ATOM     18  C   UNL     1      -8.783  -1.830  -0.048  0.00  0.00    +0.000 A 
ATOM     19  C   UNL     1      -8.974  -0.498  -0.365  0.00  0.00    +0.000 A 
ATOM     20  C   UNL     1      -7.889   0.355  -0.446  0.00  0.00    +0.004 A 
ENDBRANCH   5  15
BRANCH   4  21
ATOM     21  C   UNL     1      -5.601   1.496   2.081  0.00  0.00    -0.029 A 
ATOM     22  C   UNL     1      -5.710   2.873   2.137  0.00  0.00    +0.005 A 
ATOM     23  C   UNL     1      -6.533   3.464   3.077  0.00  0.00    +0.000 A 
ATOM     24  C   UNL     1      -7.240   2.678   3.968  0.00  0.00    +0.000 A 
ATOM     25  C   UNL     1      -7.127   1.301   3.915  0.00  0.00    +0.000 A 
ATOM     26  C   UNL     1      -6.308   0.711   2.972  0.00  0.00    +0.005 A 
ENDBRANCH   4  21
BRANCH   2  27
ATOM     27  C   UNL     1      -1.219   1.751   0.017  0.00  0.00    -0.029 A 
ATOM     28  C   UNL     1      -0.013   1.076   0.008  0.00  0.00    +0.005 A 
ATOM     29  C   UNL     1       1.175   1.783   0.000  0.00  0.00    +0.000 A 
ATOM     30  C   UNL     1       1.156   3.165   0.008  0.00  0.00    +0.000 A 
ATOM     31  C   UNL     1      -0.050   3.840   0.022  0.00  0.00    +0.000 A 
ATOM     32  C   UNL     1      -1.238   3.133   0.029  0.00  0.00    +0.005 A 
ENDBRANCH   2  27
TORSDOF 4
