REMARK  Name = ZINC39666938
REMARK  7 active torsions:
REMARK  status: ('A' for Active; 'I' for Inactive)
REMARK    1  A    between atoms: C_1  and  C_2
REMARK    2  A    between atoms: C_5  and  C_9
REMARK    3  A    between atoms: C_6  and  C_8
REMARK    4  A    between atoms: C_9  and  C_10
REMARK    5  A    between atoms: C_10  and  N_11
REMARK    6  A    between atoms: C_12  and  C_14
REMARK    7  A    between atoms: C_25  and  C_27
REMARK                            x       y       z     vdW  Elec       q    Type
REMARK                         _______ _______ _______ _____ _____    ______ ____
ROOT
ATOM      1  C   UNL     1      -2.220  -9.102   0.153  0.00  0.00    +0.100 C 
ATOM      2  C   UNL     1      -1.386  -9.305   1.438  0.00  0.00    +0.121 C 
ATOM      3  N   UNL     1      -2.392  -9.508   2.508  0.00  0.00    -0.296 N 
ATOM      4  C   UNL     1      -3.440 -10.344   1.875  0.00  0.00    +0.115 C 
ATOM      5  C   UNL     1      -3.565  -9.789   0.442  0.00  0.00    -0.004 C 
ATOM      6  C   UNL     1      -3.801 -10.926  -0.547  0.00  0.00    -0.010 C 
ATOM      7  C   UNL     1      -5.171 -11.555  -0.277  0.00  0.00    -0.082 C 
ATOM      8  N   UNL     1      -6.217 -10.534  -0.415  0.00  0.00    +0.379 N 
ATOM      9  C   UNL     1      -6.035  -9.491   0.601  0.00  0.00    -0.082 C 
ATOM     10  C   UNL     1      -4.702  -8.774   0.367  0.00  0.00    -0.010 C 
ATOM     11  C   UNL     1      -2.360  -9.040   3.771  0.00  0.00    +0.247 C 
ATOM     12  O   UNL     1      -1.491  -8.259   4.108  0.00  0.00    -0.270 OA
ATOM     13  H   UNL     1      -6.161 -10.121  -1.334  0.00  0.00    -0.086 HD
ATOM     14  H   UNL     1      -7.122 -10.964  -0.297  0.00  0.00    -0.086 HD
ENDROOT
BRANCH  11  15
ATOM     15  C   UNL     1      -3.381  -9.474   4.746  0.00  0.00    +0.038 A 
ATOM     16  C   UNL     1      -4.096 -10.655   4.534  0.00  0.00    +0.014 A 
ATOM     17  C   UNL     1      -5.048 -11.056   5.447  0.00  0.00    +0.022 A 
ATOM     18  C   UNL     1      -5.297 -10.290   6.574  0.00  0.00    +0.059 A 
ATOM     19  C   UNL     1      -4.591  -9.117   6.791  0.00  0.00    +0.060 A 
ATOM     20  C   UNL     1      -3.632  -8.709   5.886  0.00  0.00    +0.034 A 
ATOM     21 CL   UNL     1      -4.910  -8.163   8.206  0.00  0.00    -0.082 Cl
ATOM     22 CL   UNL     1      -6.498 -10.801   7.718  0.00  0.00    -0.082 Cl
ENDBRANCH  11  15
BRANCH   1  24
ATOM     23  N   UNL     1      -2.686  -7.204  -1.363  0.00  0.00    -0.315 N 
ATOM     24  C   UNL     1      -2.426  -7.633  -0.112  0.00  0.00    +0.218 C 
ATOM     25  O   UNL     1      -2.359  -6.837   0.800  0.00  0.00    -0.275 OA
ATOM     26  H   UNL     1      -2.740  -7.841  -2.093  0.00  0.00    +0.149 HD
BRANCH  23  27
ATOM     27  C   UNL     1      -2.886  -5.776  -1.621  0.00  0.00    +0.109 C 
BRANCH  27  28
ATOM     28  C   UNL     1      -3.163  -5.560  -3.110  0.00  0.00    +0.054 C 
BRANCH  28  33
ATOM     29  C   UNL     1      -3.955   0.073  -4.123  0.00  0.00    +0.044 C 
ATOM     30  C   UNL     1      -3.748  -1.396  -3.859  0.00  0.00    -0.050 A 
ATOM     31  C   UNL     1      -4.838  -2.219  -3.642  0.00  0.00    +0.003 A 
ATOM     32  C   UNL     1      -4.648  -3.566  -3.400  0.00  0.00    +0.004 A 
ATOM     33  C   UNL     1      -3.370  -4.091  -3.375  0.00  0.00    -0.043 A 
ATOM     34  C   UNL     1      -2.281  -3.269  -3.593  0.00  0.00    -0.047 A 
ATOM     35  C   UNL     1      -2.470  -1.921  -3.840  0.00  0.00    +0.007 A 
ATOM     36  C   UNL     1      -0.887  -3.841  -3.566  0.00  0.00    +0.044 C 
ENDBRANCH  28  33
ENDBRANCH  27  28
ENDBRANCH  23  27
ENDBRANCH   1  24
TORSDOF 5
