REMARK  Name = ZINC60377220
REMARK  16 active torsions:
REMARK  status: ('A' for Active; 'I' for Inactive)
REMARK    1  A    between atoms: C_1  and  C_2
REMARK    2  A    between atoms: C_2  and  C_3
REMARK    3  A    between atoms: C_3  and  C_4
REMARK    4  A    between atoms: C_4  and  N_5
REMARK    5  A    between atoms: C_6  and  N_35
REMARK    6  A    between atoms: C_7  and  N_14
REMARK    7  A    between atoms: N_14  and  C_15
REMARK    8  A    between atoms: C_15  and  C_16
REMARK    9  A    between atoms: C_17  and  C_19
REMARK   10  A    between atoms: C_19  and  N_20
REMARK   11  A    between atoms: N_20  and  C_21
REMARK   12  A    between atoms: N_20  and  C_22
REMARK   13  A    between atoms: C_22  and  C_24
REMARK   14  A    between atoms: C_22  and  C_25
REMARK   15  A    between atoms: C_29  and  S_31
REMARK   16  A    between atoms: S_31  and  N_34
REMARK                            x       y       z     vdW  Elec       q    Type
REMARK                         _______ _______ _______ _____ _____    ______ ____
ROOT
ATOM      1  N   UNL     1      -5.322  -3.614   2.434  0.00  0.00    -0.266 N 
ATOM      2  C   UNL     1      -4.714  -3.314   3.601  0.00  0.00    +0.203 C 
ATOM      3  O   UNL     1      -3.580  -2.883   3.601  0.00  0.00    -0.277 OA
ENDROOT
BRANCH   1   6
ATOM      4  N   UNL     1      -4.548  -2.117  -0.831  0.00  0.00    -0.280 N 
ATOM      5  C   UNL     1      -5.196  -2.375   0.355  0.00  0.00    +0.127 A 
ATOM      6  C   UNL     1      -4.681  -3.327   1.211  0.00  0.00    +0.140 A 
ATOM      7  C   UNL     1      -3.505  -4.007   0.842  0.00  0.00    +0.277 A 
ATOM      8  O   UNL     1      -3.029  -4.854   1.579  0.00  0.00    -0.266 OA
ATOM      9  N   UNL     1      -2.910  -3.717  -0.331  0.00  0.00    -0.273 N 
ATOM     10  H   UNL     1      -2.099  -4.186  -0.586  0.00  0.00    +0.173 HD
ATOM     11  C   UNL     1      -3.429  -2.790  -1.155  0.00  0.00    +0.331 A 
ATOM     12  O   UNL     1      -2.874  -2.551  -2.210  0.00  0.00    -0.246 OA
BRANCH   5  13
ATOM     13  N   UNL     1      -6.342  -1.692   0.684  0.00  0.00    -0.343 N 
ATOM     14  H   UNL     1      -6.662  -0.977   0.111  0.00  0.00    +0.144 HD
ATOM     15  H   UNL     1      -6.831  -1.924   1.488  0.00  0.00    +0.144 HD
ENDBRANCH   5  13
BRANCH   4  16
ATOM     16  C   UNL     1      -5.083  -1.109  -1.749  0.00  0.00    +0.128 C 
BRANCH  16  17
ATOM     17  C   UNL     1      -6.066  -1.771  -2.717  0.00  0.00    +0.021 C 
BRANCH  17  19
ATOM     18  C   UNL     1      -7.608  -1.380  -4.643  0.00  0.00    +0.004 C 
ATOM     19  C   UNL     1      -6.625  -0.718  -3.675  0.00  0.00    -0.002 C 
ENDBRANCH  17  19
ENDBRANCH  16  17
ENDBRANCH   4  16
ENDBRANCH   1   6
BRANCH   1  20
ATOM     20  C   UNL     1      -6.648  -4.237   2.438  0.00  0.00    +0.110 C 
ATOM     21  C   UNL     1      -6.498  -5.754   2.575  0.00  0.00    +0.025 C 
ENDBRANCH   1  20
BRANCH   2  22
ATOM     22  C   UNL     1      -5.444  -3.515   4.904  0.00  0.00    +0.020 C 
BRANCH  22  23
ATOM     23  N   UNL     1      -4.573  -3.118   6.019  0.00  0.00    +0.388 N 
ATOM     24  C   UNL     1      -3.414  -4.019   6.080  0.00  0.00    -0.095 C 
ATOM     25  H   UNL     1      -4.255  -2.171   5.877  0.00  0.00    -0.081 HD
BRANCH  23  26
ATOM     26  C   UNL     1      -5.323  -3.200   7.279  0.00  0.00    -0.040 C 
ATOM     27  C   UNL     1      -4.416  -2.787   8.440  0.00  0.00    -0.008 C 
BRANCH  26  28
ATOM     28  C   UNL     1      -6.512  -2.276   7.217  0.00  0.00    -0.059 A 
ATOM     29  C   UNL     1      -6.390  -1.032   6.627  0.00  0.00    +0.002 A 
ATOM     30  C   UNL     1      -7.480  -0.184   6.570  0.00  0.00    +0.002 A 
ATOM     31  C   UNL     1      -8.693  -0.581   7.103  0.00  0.00    +0.028 A 
ATOM     32  C   UNL     1      -8.815  -1.825   7.692  0.00  0.00    +0.105 A 
ATOM     33  C   UNL     1      -7.725  -2.675   7.745  0.00  0.00    +0.030 A 
BRANCH  32  34
ATOM     34  S   UNL     1     -10.360  -2.331   8.372  0.00  0.00    +0.056 S 
ATOM     35  O   UNL     1     -10.069  -3.320   9.350  0.00  0.00    -0.153 OA
ATOM     36  O   UNL     1     -11.077  -1.143   8.679  0.00  0.00    -0.153 OA
BRANCH  34  37
ATOM     37  N   UNL     1     -11.200  -3.092   7.165  0.00  0.00    -0.204 NA
ATOM     38  H   UNL     1     -11.830  -3.797   7.382  0.00  0.00    +0.144 HD
ATOM     39  H   UNL     1     -11.062  -2.833   6.240  0.00  0.00    +0.144 HD
ENDBRANCH  34  37
ENDBRANCH  32  34
ENDBRANCH  26  28
ENDBRANCH  23  26
ENDBRANCH  22  23
ENDBRANCH   2  22
TORSDOF 12
