REMARK  Name = ZINC39632117
REMARK  13 active torsions:
REMARK  status: ('A' for Active; 'I' for Inactive)
REMARK    1  A    between atoms: C_1  and  C_2
REMARK    2  A    between atoms: C_7  and  C_8
REMARK    3  A    between atoms: C_8  and  C_9
REMARK    4  A    between atoms: C_13  and  C_22
REMARK    5  A    between atoms: N_24  and  C_25
REMARK    6  A    between atoms: C_25  and  C_27
REMARK    7  A    between atoms: C_25  and  C_28
REMARK    8  A    between atoms: C_28  and  C_29
REMARK    9  A    between atoms: C_29  and  C_30
REMARK   10  A    between atoms: C_30  and  C_31
REMARK   11  A    between atoms: C_31  and  C_32
REMARK   12  A    between atoms: C_31  and  C_33
REMARK   13  A    between atoms: C_31  and  O_34
REMARK                            x       y       z     vdW  Elec       q    Type
REMARK                         _______ _______ _______ _____ _____    ______ ____
ROOT
ATOM      1  C   UNL     1      -1.061   0.269   3.005  0.00  0.00    +0.220 C 
ATOM      2  O   UNL     1      -1.906  -0.145   2.240  0.00  0.00    -0.275 OA
ATOM      3  N   UNL     1      -1.425   0.973   4.095  0.00  0.00    -0.300 N 
ATOM      4  C   UNL     1      -0.546   1.562   5.132  0.00  0.00    +0.121 C 
ATOM      5  C   UNL     1      -1.190   2.928   5.460  0.00  0.00    +0.100 C 
ATOM      6  C   UNL     1      -2.667   2.771   5.063  0.00  0.00    -0.004 C 
ATOM      7  C   UNL     1      -2.797   1.339   4.523  0.00  0.00    +0.115 C 
ATOM      8  C   UNL     1      -3.030   3.774   3.972  0.00  0.00    -0.010 C 
ATOM      9  C   UNL     1      -4.517   3.638   3.634  0.00  0.00    -0.082 C 
ATOM     10  N   UNL     1      -5.319   3.883   4.838  0.00  0.00    +0.379 N 
ATOM     11  C   UNL     1      -5.031   2.858   5.849  0.00  0.00    -0.082 C 
ATOM     12  C   UNL     1      -3.566   2.962   6.281  0.00  0.00    -0.010 C 
ATOM     13  H   UNL     1      -5.094   4.793   5.211  0.00  0.00    -0.086 HD
ATOM     14  H   UNL     1      -6.299   3.853   4.600  0.00  0.00    -0.086 HD
ENDROOT
BRANCH   5  15
ATOM     15  C   UNL     1      -0.540   4.022   4.653  0.00  0.00    +0.218 C 
ATOM     16  O   UNL     1      -0.094   3.779   3.551  0.00  0.00    -0.275 OA
ATOM     17  N   UNL     1      -0.454   5.270   5.155  0.00  0.00    -0.312 N 
ATOM     18  H   UNL     1      -0.810   5.463   6.036  0.00  0.00    +0.149 HD
BRANCH  17  19
ATOM     19  C   UNL     1       0.178   6.333   4.370  0.00  0.00    +0.070 C 
ATOM     20  C   UNL     1       1.692   6.298   4.590  0.00  0.00    +0.028 C 
BRANCH  19  21
ATOM     21  C   UNL     1      -0.370   7.690   4.815  0.00  0.00    +0.022 C 
BRANCH  21  22
ATOM     22  C   UNL     1      -1.861   7.772   4.481  0.00  0.00    +0.005 C 
BRANCH  22  23
ATOM     23  C   UNL     1      -2.410   9.129   4.927  0.00  0.00    +0.034 C 
BRANCH  23  24
ATOM     24  C   UNL     1      -3.901   9.211   4.593  0.00  0.00    +0.061 C 
ATOM     25  C   UNL     1      -4.421  10.611   4.923  0.00  0.00    +0.041 C 
ATOM     26  C   UNL     1      -4.106   8.929   3.103  0.00  0.00    +0.041 C 
BRANCH  24  27
ATOM     27  O   UNL     1      -4.615   8.243   5.364  0.00  0.00    -0.389 OA
ATOM     28  H   UNL     1      -4.530   8.361   6.320  0.00  0.00    +0.210 HD
ENDBRANCH  24  27
ENDBRANCH  23  24
ENDBRANCH  22  23
ENDBRANCH  21  22
ENDBRANCH  19  21
ENDBRANCH  17  19
ENDBRANCH   5  15
BRANCH   1  29
ATOM     29  C   UNL     1       0.397  -0.004   2.737  0.00  0.00    +0.131 C 
BRANCH  29  36
ATOM     30  C   UNL     1       0.465   1.343   0.182  0.00  0.00    +0.044 C 
ATOM     31  C   UNL     1       0.566  -0.159   0.245  0.00  0.00    -0.047 A 
ATOM     32  C   UNL     1       0.697  -0.893  -0.919  0.00  0.00    +0.003 A 
ATOM     33  C   UNL     1       0.789  -2.271  -0.862  0.00  0.00    +0.000 A 
ATOM     34  C   UNL     1       0.752  -2.915   0.361  0.00  0.00    +0.000 A 
ATOM     35  C   UNL     1       0.622  -2.182   1.525  0.00  0.00    +0.004 A 
ATOM     36  C   UNL     1       0.533  -0.804   1.468  0.00  0.00    -0.036 A 
ENDBRANCH  29  36
ENDBRANCH   1  29
TORSDOF 9
