REMARK  Name = ZINC62846766
REMARK  7 active torsions:
REMARK  status: ('A' for Active; 'I' for Inactive)
REMARK    1  A    between atoms: C_1  and  C_2
REMARK    2  A    between atoms: C_2  and  C_3
REMARK    3  A    between atoms: C_3  and  C_4
REMARK    4  A    between atoms: C_4  and  C_19
REMARK    5  A    between atoms: N_12  and  C_13
REMARK    6  A    between atoms: C_13  and  C_15
REMARK    7  A    between atoms: C_13  and  C_16
REMARK                            x       y       z     vdW  Elec       q    Type
REMARK                         _______ _______ _______ _____ _____    ______ ____
ROOT
ATOM      1  C   UNL     1       0.740  -2.032  -1.264  0.00  0.00    +0.075 C 
ATOM      2  C   UNL     1      -0.696  -2.561  -1.252  0.00  0.00    +0.037 C 
ATOM      3  C   UNL     1      -1.445  -2.022  -2.475  0.00  0.00    +0.110 C 
ATOM      4  N   UNL     1      -0.685  -2.367  -3.685  0.00  0.00    -0.286 N 
ATOM      5  C   UNL     1       0.732  -1.985  -3.762  0.00  0.00    +0.110 C 
ATOM      6  C   UNL     1       1.456  -2.525  -2.524  0.00  0.00    +0.037 C 
ATOM      7  C   UNL     1      -1.276  -3.022  -4.704  0.00  0.00    +0.303 C 
ATOM      8  O   UNL     1      -0.664  -3.222  -5.735  0.00  0.00    -0.253 OA
ATOM      9  N   UNL     1      -2.546  -3.456  -4.579  0.00  0.00    -0.288 N 
ATOM     10  H   UNL     1      -3.059  -3.234  -3.787  0.00  0.00    +0.151 HD
ENDROOT
BRANCH   1  11
ATOM     11  C   UNL     1       1.469  -2.533  -0.044  0.00  0.00    +0.362 C 
ATOM     12  O   UNL     1       1.060  -2.251   1.069  0.00  0.00    -0.246 OA
ATOM     13  O   UNL     1       2.469  -3.220  -0.171  0.00  0.00    -0.246 OA
ENDBRANCH   1  11
BRANCH   9  14
ATOM     14  C   UNL     1      -3.151  -4.264  -5.641  0.00  0.00    +0.157 C 
ATOM     15  C   UNL     1      -2.784  -5.735  -5.435  0.00  0.00    +0.038 C 
BRANCH  14  16
ATOM     16  C   UNL     1      -4.650  -4.110  -5.597  0.00  0.00    +0.231 C 
ATOM     17  O   UNL     1      -5.162  -3.396  -4.761  0.00  0.00    -0.274 OA
ATOM     18  N   UNL     1      -5.421  -4.766  -6.486  0.00  0.00    -0.328 N 
ATOM     19  H   UNL     1      -5.012  -5.337  -7.155  0.00  0.00    +0.145 HD
ATOM     20  H   UNL     1      -6.386  -4.667  -6.458  0.00  0.00    +0.145 HD
ENDBRANCH  14  16
ENDBRANCH   9  14
BRANCH   1  21
ATOM     21  C   UNL     1       0.720  -0.502  -1.254  0.00  0.00    +0.018 C 
BRANCH  21  23
ATOM     22  C   UNL     1      -0.015   1.520   0.015  0.00  0.00    +0.004 C 
ATOM     23  C   UNL     1       0.004  -0.010   0.005  0.00  0.00    -0.002 C 
ENDBRANCH  21  23
ENDBRANCH   1  21
TORSDOF 5
