REMARK  Name = ZINC39671591
REMARK  6 active torsions:
REMARK  status: ('A' for Active; 'I' for Inactive)
REMARK    1  A    between atoms: C_1  and  C_2
REMARK    2  A    between atoms: C_4  and  C_9
REMARK    3  A    between atoms: C_5  and  C_8
REMARK    4  A    between atoms: C_13  and  C_22
REMARK    5  A    between atoms: N_24  and  C_25
REMARK    6  A    between atoms: C_25  and  C_26
REMARK                            x       y       z     vdW  Elec       q    Type
REMARK                         _______ _______ _______ _____ _____    ______ ____
ROOT
ATOM      1  C   UNL     1       0.372  -0.078  -2.692  0.00  0.00    +0.247 C 
ATOM      2  O   UNL     1       0.999  -0.545  -3.626  0.00  0.00    -0.270 OA
ATOM      3  N   UNL     1      -0.614   0.812  -2.920  0.00  0.00    -0.296 N 
ATOM      4  C   UNL     1      -1.407   1.565  -1.921  0.00  0.00    +0.121 C 
ATOM      5  C   UNL     1      -1.571   2.974  -2.533  0.00  0.00    +0.100 C 
ATOM      6  C   UNL     1      -1.403   2.766  -4.047  0.00  0.00    -0.004 C 
ATOM      7  C   UNL     1      -1.146   1.263  -4.229  0.00  0.00    +0.115 C 
ATOM      8  C   UNL     1      -0.209   3.564  -4.562  0.00  0.00    -0.010 C 
ATOM      9  C   UNL     1      -0.097   3.386  -6.079  0.00  0.00    -0.082 C 
ATOM     10  N   UNL     1      -1.334   3.849  -6.720  0.00  0.00    +0.379 N 
ATOM     11  C   UNL     1      -2.463   3.016  -6.290  0.00  0.00    -0.082 C 
ATOM     12  C   UNL     1      -2.675   3.178  -4.782  0.00  0.00    -0.010 C 
ATOM     13  H   UNL     1      -1.507   4.808  -6.460  0.00  0.00    -0.086 HD
ATOM     14  H   UNL     1      -1.235   3.788  -7.722  0.00  0.00    -0.086 HD
ENDROOT
BRANCH   1  17
ATOM     15  C   UNL     1       3.163  -0.284  -1.187  0.00  0.00    +0.046 C 
ATOM     16  C   UNL     1       1.824   0.043  -0.523  0.00  0.00    +0.182 C 
ATOM     17  C   UNL     1       0.679  -0.469  -1.368  0.00  0.00    +0.066 C 
ATOM     18  C   UNL     1       0.007  -1.367  -0.622  0.00  0.00    +0.046 C 
ATOM     19  N   UNL     1       0.575  -1.502   0.606  0.00  0.00    -0.269 N 
ATOM     20  O   UNL     1       1.704  -0.653   0.727  0.00  0.00    -0.266 OA
ATOM     21  C   UNL     1      -1.212  -2.120  -1.087  0.00  0.00    +0.066 C 
ATOM     22  H   UNL     1       0.253  -2.096   1.302  0.00  0.00    +0.194 HD
ENDBRANCH   1  17
BRANCH   5  23
ATOM     23  C   UNL     1      -2.939   3.525  -2.225  0.00  0.00    +0.219 C 
ATOM     24  O   UNL     1      -3.889   2.776  -2.141  0.00  0.00    -0.275 OA
ATOM     25  N   UNL     1      -3.107   4.850  -2.043  0.00  0.00    -0.309 N 
ATOM     26  H   UNL     1      -2.347   5.449  -2.110  0.00  0.00    +0.149 HD
BRANCH  25  27
ATOM     27  C   UNL     1      -4.438   5.385  -1.744  0.00  0.00    +0.157 C 
BRANCH  27  28
ATOM     28  C   UNL     1      -4.353   6.882  -1.587  0.00  0.00    +0.034 A 
ATOM     29  H   UNL     1      -3.810   7.100   0.411  0.00  0.00    +0.166 HD
ATOM     30  C   UNL     1      -4.596   7.773  -2.561  0.00  0.00    +0.032 A 
ATOM     31  C   UNL     1      -4.400   9.104  -1.982  0.00  0.00    -0.000 A 
ATOM     32  C   UNL     1      -4.502  10.404  -2.481  0.00  0.00    +0.010 A 
ATOM     33  C   UNL     1      -4.247  11.467  -1.660  0.00  0.00    +0.001 A 
ATOM     34  C   UNL     1      -3.889  11.265  -0.335  0.00  0.00    +0.002 A 
ATOM     35  C   UNL     1      -3.783   9.991   0.178  0.00  0.00    +0.026 A 
ATOM     36  C   UNL     1      -4.037   8.894  -0.639  0.00  0.00    +0.047 A 
ATOM     37  N   UNL     1      -4.024   7.533  -0.430  0.00  0.00    -0.357 N 
ENDBRANCH  27  28
ENDBRANCH  25  27
ENDBRANCH   5  23
TORSDOF 4
