REMARK  Name = ZINC28535049
REMARK  6 active torsions:
REMARK  status: ('A' for Active; 'I' for Inactive)
REMARK    1  A    between atoms: C_4  and  C_24
REMARK    2  A    between atoms: C_6  and  C_7
REMARK    3  A    between atoms: C_7  and  C_9
REMARK    4  A    between atoms: C_9  and  N_10
REMARK    5  A    between atoms: N_13  and  N_17
REMARK    6  A    between atoms: N_17  and  C_18
REMARK                            x       y       z     vdW  Elec       q    Type
REMARK                         _______ _______ _______ _____ _____    ______ ____
ROOT
ATOM      1  N   UNL     1       0.873   3.078   0.658  0.00  0.00    -0.230 N 
ATOM      2  C   UNL     1      -0.323   2.626   1.090  0.00  0.00    +0.197 A 
ATOM      3  S   UNL     1      -0.747   2.278   2.712  0.00  0.00    -0.010 S 
ATOM      4  N   UNL     1      -1.120   2.492   0.012  0.00  0.00    -0.206 N 
ATOM      5  C   UNL     1      -0.411   2.876  -1.102  0.00  0.00    +0.231 A 
ATOM      6  N   UNL     1       0.787   3.227  -0.733  0.00  0.00    -0.133 NA
ATOM      7  N   UNL     1      -0.890   2.882  -2.404  0.00  0.00    -0.326 N 
ATOM      8  H   UNL     1      -0.239   3.209  -3.228  0.00  0.00    +0.145 HD
ATOM      9  H   UNL     1      -1.921   2.561  -2.612  0.00  0.00    +0.145 HD
ENDROOT
BRANCH   4  10
ATOM     10  N   UNL     1      -2.447   2.042   0.024  0.00  0.00    -0.249 N 
ATOM     11  H   UNL     1      -3.267   2.752   0.204  0.00  0.00    +0.173 HD
BRANCH  10  12
ATOM     12  C   UNL     1      -2.727   0.696  -0.192  0.00  0.00    +0.050 A 
ATOM     13  C   UNL     1      -1.699  -0.238  -0.316  0.00  0.00    +0.042 A 
ATOM     14  C   UNL     1      -2.019  -1.563  -0.524  0.00  0.00    +0.084 A 
ATOM     15  N   UNL     1      -3.278  -1.949  -0.617  0.00  0.00    -0.367 N 
ATOM     16  C   UNL     1      -4.279  -1.095  -0.509  0.00  0.00    +0.084 A 
ATOM     17  C   UNL     1      -4.044   0.246  -0.295  0.00  0.00    +0.042 A 
ATOM     18  H   UNL     1      -3.517  -3.009  -0.788  0.00  0.00    +0.165 HD
ENDBRANCH  10  12
ENDBRANCH   4  10
BRANCH   1  19
ATOM     19  C   UNL     1       2.045   3.362   1.490  0.00  0.00    +0.225 C 
BRANCH  19  20
ATOM     20  C   UNL     1       2.892   2.120   1.605  0.00  0.00    +0.184 C 
ATOM     21  O   UNL     1       2.550   1.099   1.048  0.00  0.00    -0.290 OA
BRANCH  20  27
ATOM     22  C   UNL     1       4.533   3.325   3.034  0.00  0.00    +0.013 A 
ATOM     23  C   UNL     1       5.694   3.341   3.777  0.00  0.00    +0.021 A 
ATOM     24  C   UNL     1       6.470   2.198   3.881  0.00  0.00    +0.053 A 
ATOM     25  C   UNL     1       6.083   1.030   3.244  0.00  0.00    +0.074 A 
ATOM     26  C   UNL     1       4.921   0.997   2.503  0.00  0.00    +0.025 A 
ATOM     27  C   UNL     1       4.133   2.147   2.394  0.00  0.00    +0.020 A 
ATOM     28 CL   UNL     1       7.934   2.230   4.813  0.00  0.00    -0.083 Cl
BRANCH  25  29
ATOM     29  C   UNL     1       6.934  -0.209   3.363  0.00  0.00    +0.419 C 
ATOM     30  F   UNL     1       6.343  -1.251   2.641  0.00  0.00    -0.166 F 
ATOM     31  F   UNL     1       8.209   0.051   2.849  0.00  0.00    -0.166 F 
ATOM     32  F   UNL     1       7.039  -0.574   4.709  0.00  0.00    -0.166 F 
ENDBRANCH  25  29
ENDBRANCH  20  27
ENDBRANCH  19  20
ENDBRANCH   1  19
TORSDOF 6
