REMARK  Name = ZINC09460778
REMARK  14 active torsions:
REMARK  status: ('A' for Active; 'I' for Inactive)
REMARK    1  A    between atoms: C_1  and  C_2
REMARK    2  A    between atoms: C_2  and  N_64
REMARK    3  A    between atoms: C_3  and  C_4
REMARK    4  A    between atoms: C_3  and  N_64
REMARK    5  A    between atoms: C_5  and  C_6
REMARK    6  A    between atoms: C_5  and  N_64
REMARK    7  A    between atoms: C_6  and  N_7
REMARK    8  A    between atoms: C_8  and  C_27
REMARK    9  A    between atoms: C_11  and  C_12
REMARK   10  A    between atoms: C_11  and  O_22
REMARK   11  A    between atoms: C_15  and  O_18
REMARK   12  A    between atoms: O_18  and  C_19
REMARK   13  A    between atoms: C_19  and  C_20
REMARK   14  A    between atoms: C_19  and  C_21
REMARK                            x       y       z     vdW  Elec       q    Type
REMARK                         _______ _______ _______ _____ _____    ______ ____
ROOT
ATOM      1  N   UNL     1      -4.167   3.689   1.092  0.00  0.00    -0.285 N 
ATOM      2  C   UNL     1      -4.159   2.701   0.009  0.00  0.00    +0.144 C 
ATOM      3  C   UNL     1      -4.778   3.373  -1.195  0.00  0.00    +0.071 C 
ATOM      4  C   UNL     1      -4.976   2.819  -2.445  0.00  0.00    +0.133 C 
ATOM      5  C   UNL     1      -5.110   4.674  -0.788  0.00  0.00    +0.249 C 
ATOM      6  O   UNL     1      -5.631   5.528  -1.481  0.00  0.00    -0.282 OA
ATOM      7  C   UNL     1      -4.714   4.829   0.638  0.00  0.00    +0.288 C 
ATOM      8  O   UNL     1      -4.864   5.838   1.296  0.00  0.00    -0.266 OA
ENDROOT
BRANCH   2   9
ATOM      9  C   UNL     1      -2.744   2.287  -0.302  0.00  0.00    -0.021 A 
ATOM     10  C   UNL     1      -2.456   0.963  -0.579  0.00  0.00    +0.007 A 
ATOM     11  C   UNL     1      -1.160   0.583  -0.871  0.00  0.00    +0.022 A 
ATOM     12  C   UNL     1      -0.148   1.527  -0.879  0.00  0.00    +0.059 A 
ATOM     13  C   UNL     1      -0.435   2.851  -0.595  0.00  0.00    +0.060 A 
ATOM     14  C   UNL     1      -1.733   3.230  -0.304  0.00  0.00    +0.027 A 
ATOM     15 CL   UNL     1       0.834   4.036  -0.605  0.00  0.00    -0.082 Cl
ATOM     16 CL   UNL     1       1.481   1.050  -1.244  0.00  0.00    -0.082 Cl
ENDBRANCH   2   9
BRANCH   4  17
ATOM     17  C   UNL     1      -5.731   3.560  -3.467  0.00  0.00    +0.017 A 
ATOM     18  C   UNL     1      -6.989   4.094  -3.161  0.00  0.00    +0.015 A 
ATOM     19  C   UNL     1      -7.689   4.791  -4.118  0.00  0.00    +0.046 A 
ATOM     20  C   UNL     1      -7.155   4.956  -5.392  0.00  0.00    +0.121 A 
ATOM     21  C   UNL     1      -5.908   4.423  -5.702  0.00  0.00    +0.046 A 
ATOM     22  C   UNL     1      -5.197   3.729  -4.750  0.00  0.00    +0.015 A 
BRANCH  20  23
ATOM     23  O   UNL     1      -7.852   5.640  -6.334  0.00  0.00    -0.489 OA
BRANCH  23  24
ATOM     24  C   UNL     1      -7.298   5.675  -7.651  0.00  0.00    +0.167 C 
ATOM     25  C   UNL     1      -8.418   5.907  -8.668  0.00  0.00    +0.051 C 
ATOM     26  C   UNL     1      -6.280   6.813  -7.746  0.00  0.00    +0.051 C 
ENDBRANCH  23  24
ENDBRANCH  20  23
ENDBRANCH   4  17
BRANCH   4  27
ATOM     27  O   UNL     1      -4.476   1.597  -2.728  0.00  0.00    -0.506 OA
ATOM     28  H   UNL     1      -4.710   1.351  -3.669  0.00  0.00    +0.292 HD
ENDBRANCH   4  27
BRANCH   1  29
ATOM     29  C   UNL     1      -3.660   3.468   2.448  0.00  0.00    +0.090 C 
BRANCH  29  30
ATOM     30  C   UNL     1      -2.181   3.854   2.509  0.00  0.00    -0.060 C 
BRANCH  30  31
ATOM     31  N   UNL     1      -1.690   3.646   3.887  0.00  0.00    +0.380 N 
ATOM     32  H   UNL     1      -2.319   4.126   4.541  0.00  0.00    -0.082 HD
BRANCH  31  34
ATOM     33  C   UNL     1      -0.738   1.453   3.257  0.00  0.00    -0.017 C 
ATOM     34  C   UNL     1      -1.675   2.203   4.206  0.00  0.00    -0.082 C 
ENDBRANCH  31  34
BRANCH  31  35
ATOM     35  C   UNL     1      -0.330   4.209   4.029  0.00  0.00    -0.082 C 
ATOM     36  C   UNL     1       0.027   4.264   5.516  0.00  0.00    -0.017 C 
ENDBRANCH  31  35
ENDBRANCH  30  31
ENDBRANCH  29  30
ENDBRANCH   1  29
TORSDOF 10
