REMARK  Name = ZINC11553522
REMARK  8 active torsions:
REMARK  status: ('A' for Active; 'I' for Inactive)
REMARK    1  A    between atoms: C_1  and  C_2
REMARK    2  A    between atoms: C_5  and  N_8
REMARK    3  A    between atoms: C_9  and  C_35
REMARK    4  A    between atoms: C_10  and  C_26
REMARK    5  A    between atoms: C_11  and  C_16
REMARK    6  A    between atoms: C_21  and  O_22
REMARK    7  A    between atoms: O_22  and  C_23
REMARK    8  A    between atoms: C_31  and  C_34
REMARK                            x       y       z     vdW  Elec       q    Type
REMARK                         _______ _______ _______ _____ _____    ______ ____
ROOT
ATOM      1  N   UNL     1       1.258  -2.050   0.072  0.00  0.00    -0.255 N 
ATOM      2  C   UNL     1       2.355  -2.855  -0.055  0.00  0.00    +0.025 C 
ATOM      3  C   UNL     1       2.224  -4.175  -0.311  0.00  0.00    +0.056 C 
ATOM      4  C   UNL     1       0.821  -4.730  -0.452  0.00  0.00    +0.143 C 
ATOM      5  N   UNL     1      -0.292  -3.779  -0.296  0.00  0.00    -0.315 N 
ATOM      6  C   UNL     1      -0.002  -2.488  -0.037  0.00  0.00    +0.142 C 
ATOM      7  S   UNL     1      -1.287  -1.373   0.152  0.00  0.00    -0.018 S 
ATOM      8  C   UNL     1       3.732  -2.262   0.092  0.00  0.00    +0.062 C 
ATOM      9  H   UNL     1      -1.212  -4.075  -0.375  0.00  0.00    +0.149 HD
ENDROOT
BRANCH   3  10
ATOM     10  C   UNL     1       3.359  -5.011  -0.444  0.00  0.00    +0.249 C 
ATOM     11  O   UNL     1       4.477  -4.528  -0.424  0.00  0.00    -0.270 OA
ATOM     12  N   UNL     1       3.203  -6.341  -0.593  0.00  0.00    -0.264 N 
ATOM     13  C   UNL     1       4.320  -7.174  -0.632  0.00  0.00    +0.168 A 
ATOM     14  C   UNL     1       5.676  -6.792  -0.452  0.00  0.00    +0.091 A 
ATOM     15  C   UNL     1       6.361  -7.950  -0.582  0.00  0.00    +0.136 A 
ATOM     16  O   UNL     1       5.454  -8.909  -0.817  0.00  0.00    -0.358 OA
ATOM     17  N   UNL     1       4.329  -8.465  -0.837  0.00  0.00    -0.063 NA
ATOM     18  C   UNL     1       7.854  -8.129  -0.482  0.00  0.00    +0.089 C 
ATOM     19  H   UNL     1       2.313  -6.719  -0.672  0.00  0.00    +0.157 HD
ENDBRANCH   3  10
BRANCH   1  24
ATOM     20  C   UNL     1       2.091   3.459   1.150  0.00  0.00    +0.044 C 
ATOM     21  C   UNL     1       1.870   1.996   0.864  0.00  0.00    -0.050 A 
ATOM     22  C   UNL     1       1.729   1.562  -0.442  0.00  0.00    +0.005 A 
ATOM     23  C   UNL     1       1.527   0.222  -0.707  0.00  0.00    +0.024 A 
ATOM     24  C   UNL     1       1.464  -0.690   0.338  0.00  0.00    +0.040 A 
ATOM     25  C   UNL     1       1.606  -0.251   1.648  0.00  0.00    +0.024 A 
ATOM     26  C   UNL     1       1.808   1.091   1.907  0.00  0.00    +0.005 A 
ENDBRANCH   1  24
BRANCH   4  27
ATOM     27  C   UNL     1       0.706  -5.361  -1.815  0.00  0.00    +0.019 A 
ATOM     28  C   UNL     1       1.602  -5.023  -2.811  0.00  0.00    +0.009 A 
ATOM     29  C   UNL     1       1.500  -5.605  -4.061  0.00  0.00    +0.001 A 
ATOM     30  C   UNL     1       0.494  -6.518  -4.321  0.00  0.00    +0.004 A 
ATOM     31  C   UNL     1      -0.408  -6.854  -3.331  0.00  0.00    +0.046 A 
ATOM     32  C   UNL     1      -0.304  -6.276  -2.074  0.00  0.00    +0.132 A 
BRANCH  32  33
ATOM     33  O   UNL     1      -1.190  -6.606  -1.097  0.00  0.00    -0.434 OA
BRANCH  33  34
ATOM     34  C   UNL     1      -2.177  -7.586  -1.421  0.00  0.00    +0.541 C 
ATOM     35  F   UNL     1      -2.967  -7.121  -2.478  0.00  0.00    -0.166 F 
ATOM     36  F   UNL     1      -1.546  -8.776  -1.800  0.00  0.00    -0.166 F 
ENDBRANCH  33  34
ENDBRANCH  32  33
ENDBRANCH   4  27
TORSDOF 5
