REMARK  Name = ZINC39654317
REMARK  10 active torsions:
REMARK  status: ('A' for Active; 'I' for Inactive)
REMARK    1  A    between atoms: C_1  and  C_2
REMARK    2  A    between atoms: C_2  and  C_3
REMARK    3  A    between atoms: C_6  and  C_9
REMARK    4  A    between atoms: C_9  and  C_10
REMARK    5  A    between atoms: C_10  and  N_11
REMARK    6  A    between atoms: C_12  and  C_14
REMARK    7  A    between atoms: C_25  and  C_27
REMARK    8  A    between atoms: C_27  and  C_29
REMARK    9  A    between atoms: C_27  and  C_30
REMARK   10  A    between atoms: C_30  and  C_31
REMARK                            x       y       z     vdW  Elec       q    Type
REMARK                         _______ _______ _______ _____ _____    ______ ____
ROOT
ATOM      1  C   UNL     1       6.642  -0.945   9.055  0.00  0.00    +0.100 C 
ATOM      2  C   UNL     1       5.246  -1.196   9.667  0.00  0.00    +0.121 C 
ATOM      3  N   UNL     1       5.441  -1.027  11.126  0.00  0.00    -0.300 N 
ATOM      4  C   UNL     1       6.373   0.120  11.243  0.00  0.00    +0.115 C 
ATOM      5  C   UNL     1       7.378  -0.080  10.092  0.00  0.00    -0.004 C 
ATOM      6  C   UNL     1       7.757   1.267   9.483  0.00  0.00    -0.010 C 
ATOM      7  C   UNL     1       8.539   2.086  10.513  0.00  0.00    -0.082 C 
ATOM      8  N   UNL     1       9.744   1.351  10.914  0.00  0.00    +0.379 N 
ATOM      9  C   UNL     1       9.368   0.100  11.582  0.00  0.00    -0.082 C 
ATOM     10  C   UNL     1       8.622  -0.804  10.597  0.00  0.00    -0.010 C 
ATOM     11  C   UNL     1       4.895  -1.752  12.122  0.00  0.00    +0.218 C 
ATOM     12  O   UNL     1       4.208  -2.718  11.864  0.00  0.00    -0.275 OA
ATOM     13  H   UNL     1      10.296   1.141  10.095  0.00  0.00    -0.086 HD
ATOM     14  H   UNL     1      10.288   1.919  11.546  0.00  0.00    -0.086 HD
ENDROOT
BRANCH   1  16
ATOM     15  N   UNL     1       7.467  -0.341   6.803  0.00  0.00    -0.315 N 
ATOM     16  C   UNL     1       6.517  -0.205   7.748  0.00  0.00    +0.218 C 
ATOM     17  O   UNL     1       5.560   0.513   7.547  0.00  0.00    -0.275 OA
ATOM     18  H   UNL     1       8.232  -0.915   6.963  0.00  0.00    +0.149 HD
BRANCH  15  19
ATOM     19  C   UNL     1       7.345   0.378   5.532  0.00  0.00    +0.109 C 
BRANCH  19  20
ATOM     20  C   UNL     1       8.547   0.051   4.644  0.00  0.00    +0.054 C 
BRANCH  20  24
ATOM     21  C   UNL     1       8.193   2.148   0.939  0.00  0.00    -0.048 A 
ATOM     22  C   UNL     1       8.847   2.735   2.005  0.00  0.00    +0.004 A 
ATOM     23  C   UNL     1       8.961   2.057   3.204  0.00  0.00    +0.004 A 
ATOM     24  C   UNL     1       8.422   0.791   3.337  0.00  0.00    -0.046 A 
ATOM     25  C   UNL     1       7.767   0.204   2.270  0.00  0.00    +0.004 A 
ATOM     26  C   UNL     1       7.649   0.884   1.072  0.00  0.00    +0.004 A 
BRANCH  21  28
ATOM     27  C   UNL     1       6.785   3.719  -0.363  0.00  0.00    +0.009 C 
ATOM     28  C   UNL     1       8.069   2.887  -0.369  0.00  0.00    +0.032 C 
ENDBRANCH  21  28
ENDBRANCH  20  24
ENDBRANCH  19  20
ENDBRANCH  15  19
ENDBRANCH   1  16
BRANCH  11  29
ATOM     29  C   UNL     1       5.138  -1.364  13.558  0.00  0.00    +0.072 C 
ATOM     30  C   UNL     1       4.082  -0.347  13.997  0.00  0.00    +0.017 C 
BRANCH  29  31
ATOM     31  C   UNL     1       5.049  -2.607  14.445  0.00  0.00    +0.009 C 
ATOM     32  C   UNL     1       5.418  -2.235  15.883  0.00  0.00    +0.004 C 
ENDBRANCH  29  31
ENDBRANCH  11  29
TORSDOF 7
