REMARK  Name = ZINC61811918
REMARK  7 active torsions:
REMARK  status: ('A' for Active; 'I' for Inactive)
REMARK    1  A    between atoms: C_1  and  C_2
REMARK    2  A    between atoms: C_4  and  N_11
REMARK    3  A    between atoms: C_5  and  O_9
REMARK    4  A    between atoms: O_9  and  C_10
REMARK    5  A    between atoms: N_11  and  C_12
REMARK    6  A    between atoms: C_16  and  C_18
REMARK    7  A    between atoms: C_18  and  N_20
REMARK                            x       y       z     vdW  Elec       q    Type
REMARK                         _______ _______ _______ _____ _____    ______ ____
ROOT
ATOM      1  N   UNL     1       0.028  -2.768  -2.426  0.00  0.00    -0.312 N 
ATOM      2  H   UNL     1      -0.221  -3.704  -2.382  0.00  0.00    +0.152 HD
ENDROOT
BRANCH   1   6
ATOM      3  C   UNL     1       1.420   1.385  -0.191  0.00  0.00    +0.045 C 
ATOM      4  C   UNL     1       1.193  -0.105  -0.171  0.00  0.00    -0.030 A 
ATOM      5  C   UNL     1       0.719  -0.746  -1.300  0.00  0.00    +0.031 A 
ATOM      6  C   UNL     1       0.510  -2.117  -1.283  0.00  0.00    +0.074 A 
ATOM      7  C   UNL     1       0.780  -2.845  -0.126  0.00  0.00    +0.143 A 
ATOM      8  C   UNL     1       1.255  -2.196   1.001  0.00  0.00    +0.067 A 
ATOM      9  C   UNL     1       1.466  -0.829   0.976  0.00  0.00    +0.047 A 
ATOM     10 CL   UNL     1       2.069  -0.019   2.388  0.00  0.00    -0.083 Cl
BRANCH   7  11
ATOM     11  O   UNL     1       0.577  -4.189  -0.104  0.00  0.00    -0.493 OA
ATOM     12  C   UNL     1       0.875  -4.871   1.116  0.00  0.00    +0.277 C 
ENDBRANCH   7  11
ENDBRANCH   1   6
BRANCH   1  13
ATOM     13  C   UNL     1      -0.093  -2.071  -3.625  0.00  0.00    +0.035 A 
ATOM     14  C   UNL     1       0.901  -1.184  -4.040  0.00  0.00    +0.041 A 
ATOM     15  C   UNL     1       0.748  -0.509  -5.236  0.00  0.00    +0.085 A 
ATOM     16  N   UNL     1      -0.319  -0.691  -5.986  0.00  0.00    -0.359 N 
ATOM     17  C   UNL     1      -1.291  -1.525  -5.631  0.00  0.00    +0.069 A 
ATOM     18  C   UNL     1      -1.207  -2.246  -4.444  0.00  0.00    +0.051 A 
ATOM     19  H   UNL     1      -0.398  -0.203  -6.820  0.00  0.00    +0.165 HD
BRANCH  17  20
ATOM     20  C   UNL     1      -2.469  -1.693  -6.508  0.00  0.00    +0.093 C 
ATOM     21  S   UNL     1      -3.228  -3.222  -6.640  0.00  0.00    -0.034 S 
BRANCH  20  22
ATOM     22  N   UNL     1      -2.946  -0.642  -7.205  0.00  0.00    -0.351 N 
ATOM     23  H   UNL     1      -2.517   0.225  -7.130  0.00  0.00    +0.143 HD
ATOM     24  H   UNL     1      -3.719  -0.752  -7.780  0.00  0.00    +0.143 HD
ENDBRANCH  20  22
ENDBRANCH  17  20
ENDBRANCH   1  13
TORSDOF 5
