REMARK  Name = ZINC39993776
REMARK  7 active torsions:
REMARK  status: ('A' for Active; 'I' for Inactive)
REMARK    1  A    between atoms: C_4  and  C_7
REMARK    2  A    between atoms: C_7  and  N_8
REMARK    3  A    between atoms: N_11  and  C_14
REMARK    4  A    between atoms: C_15  and  C_25
REMARK    5  A    between atoms: C_26  and  C_27
REMARK    6  A    between atoms: C_26  and  C_29
REMARK    7  A    between atoms: N_31  and  C_32
REMARK                            x       y       z     vdW  Elec       q    Type
REMARK                         _______ _______ _______ _____ _____    ______ ____
ROOT
ATOM      1  C   UNL     1       5.477  -3.380   4.406  0.00  0.00    +0.136 A 
ATOM      2  C   UNL     1       6.842  -3.766   4.391  0.00  0.00    +0.081 A 
ATOM      3  C   UNL     1       7.243  -4.848   5.217  0.00  0.00    +0.267 A 
ATOM      4  O   UNL     1       8.404  -5.215   5.237  0.00  0.00    -0.267 OA
ATOM      5  N   UNL     1       6.315  -5.463   5.981  0.00  0.00    -0.268 N 
ATOM      6  C   UNL     1       6.691  -6.503   6.778  0.00  0.00    +0.096 A 
ATOM      7  C   UNL     1       5.788  -7.142   7.556  0.00  0.00    +0.018 A 
ATOM      8  C   UNL     1       4.446  -6.739   7.550  0.00  0.00    +0.005 A 
ATOM      9  C   UNL     1       4.060  -5.699   6.756  0.00  0.00    +0.047 A 
ATOM     10  C   UNL     1       5.013  -5.046   5.955  0.00  0.00    +0.142 A 
ATOM     11  N   UNL     1       4.625  -4.028   5.186  0.00  0.00    -0.214 NA
ENDROOT
BRANCH   1  15
ATOM     12  N   UNL     1       3.491  -0.932   1.782  0.00  0.00    -0.295 NA
ATOM     13  C   UNL     1       2.920  -1.260   3.096  0.00  0.00    +0.103 C 
ATOM     14  C   UNL     1       4.049  -1.376   4.125  0.00  0.00    +0.122 C 
ATOM     15  N   UNL     1       5.043  -2.337   3.622  0.00  0.00    -0.312 N 
ATOM     16  C   UNL     1       5.560  -2.152   2.257  0.00  0.00    +0.122 C 
ATOM     17  C   UNL     1       4.372  -2.005   1.302  0.00  0.00    +0.103 C 
BRANCH  12  18
ATOM     18  C   UNL     1       2.432  -0.642   0.806  0.00  0.00    +0.119 C 
BRANCH  18  22
ATOM     19  C   UNL     1       0.366   2.916   1.954  0.00  0.00    +0.000 A 
ATOM     20  C   UNL     1       1.472   2.994   1.128  0.00  0.00    +0.000 A 
ATOM     21  C   UNL     1       2.140   1.843   0.756  0.00  0.00    +0.005 A 
ATOM     22  C   UNL     1       1.704   0.613   1.212  0.00  0.00    -0.033 A 
ATOM     23  C   UNL     1       0.599   0.534   2.038  0.00  0.00    +0.005 A 
ATOM     24  C   UNL     1      -0.071   1.685   2.409  0.00  0.00    +0.000 A 
ENDBRANCH  18  22
ENDBRANCH  12  18
ENDBRANCH   1  15
BRANCH   2  25
ATOM     25  C   UNL     1       7.772  -3.096   3.578  0.00  0.00    +0.040 C 
ATOM     26  C   UNL     1       8.405  -3.772   2.543  0.00  0.00    +0.114 C 
BRANCH  26  27
ATOM     27  C   UNL     1       9.462  -3.110   1.774  0.00  0.00    +0.259 C 
ATOM     28  O   UNL     1       9.786  -1.968   2.041  0.00  0.00    -0.269 OA
ATOM     29  N   UNL     1      10.076  -3.767   0.769  0.00  0.00    -0.281 N 
ATOM     30  H   UNL     1       9.867  -4.699   0.600  0.00  0.00    +0.155 HD
BRANCH  29  31
ATOM     31  C   UNL     1      11.015  -3.105  -0.028  0.00  0.00    +0.035 A 
ATOM     32  C   UNL     1      11.108  -3.398  -1.383  0.00  0.00    +0.023 A 
ATOM     33  C   UNL     1      12.036  -2.743  -2.168  0.00  0.00    +0.003 A 
ATOM     34  C   UNL     1      12.873  -1.795  -1.607  0.00  0.00    +0.020 A 
ATOM     35  C   UNL     1      12.783  -1.500  -0.258  0.00  0.00    +0.043 A 
ATOM     36  C   UNL     1      11.852  -2.148   0.531  0.00  0.00    +0.043 A 
ATOM     37 CL   UNL     1      13.836  -0.310   0.441  0.00  0.00    -0.083 Cl
ENDBRANCH  29  31
ENDBRANCH  26  27
BRANCH  26  38
ATOM     38  C   UNL     1       8.024  -5.117   2.229  0.00  0.00    +0.104 C 
ATOM     39  N   UNL     1       7.722  -6.183   1.979  0.00  0.00    -0.191 NA
ENDBRANCH  26  38
ENDBRANCH   2  25
TORSDOF 7
