REMARK  Name = ZINC02427390
REMARK  10 active torsions:
REMARK  status: ('A' for Active; 'I' for Inactive)
REMARK    1  A    between atoms: C_1  and  C_2
REMARK    2  A    between atoms: C_2  and  C_3
REMARK    3  A    between atoms: C_3  and  C_4
REMARK    4  A    between atoms: C_4  and  S_5
REMARK    5  A    between atoms: S_5  and  C_6
REMARK    6  A    between atoms: C_17  and  C_19
REMARK    7  A    between atoms: C_17  and  C_20
REMARK    8  A    between atoms: C_26  and  C_27
REMARK    9  A    between atoms: C_26  and  N_61
REMARK   10  A    between atoms: C_27  and  O_28
REMARK                            x       y       z     vdW  Elec       q    Type
REMARK                         _______ _______ _______ _____ _____    ______ ____
ROOT
ATOM      1  C   UNL     1      -2.321   2.308  -4.729  0.00  0.00    +0.191 A 
ATOM      2  N   UNL     1      -1.745   2.020  -3.567  0.00  0.00    -0.206 NA
ATOM      3  C   UNL     1      -1.488   2.948  -2.661  0.00  0.00    +0.134 A 
ATOM      4  C   UNL     1      -1.842   4.300  -2.929  0.00  0.00    +0.051 A 
ATOM      5  C   UNL     1      -1.650   5.481  -2.089  0.00  0.00    -0.020 A 
ATOM      6  C   UNL     1      -2.073   6.664  -2.586  0.00  0.00    +0.021 A 
ATOM      7  S   UNL     1      -2.735   6.283  -4.183  0.00  0.00    -0.071 S 
ATOM      8  C   UNL     1      -2.443   4.533  -4.183  0.00  0.00    +0.115 A 
ATOM      9  N   UNL     1      -2.667   3.551  -5.035  0.00  0.00    -0.215 NA
ATOM     10  C   UNL     1      -1.984   7.993  -1.903  0.00  0.00    +0.203 C 
ATOM     11  O   UNL     1      -1.674   7.760  -0.520  0.00  0.00    -0.368 OA
ATOM     12  C   UNL     1      -0.586   6.853  -0.325  0.00  0.00    +0.068 C 
ATOM     13  C   UNL     1      -1.012   5.431  -0.703  0.00  0.00    +0.071 C 
ATOM     14  C   UNL     1       0.594   7.279  -1.202  0.00  0.00    +0.041 C 
ATOM     15  C   UNL     1      -0.161   6.878   1.145  0.00  0.00    +0.041 C 
ATOM     16  N   UNL     1      -0.888   2.607  -1.463  0.00  0.00    -0.318 N 
ATOM     17  C   UNL     1       0.117   1.552  -1.659  0.00  0.00    +0.088 C 
ATOM     18  C   UNL     1       0.813   1.261  -0.327  0.00  0.00    -0.059 C 
ATOM     19  C   UNL     1      -1.194   1.906   0.863  0.00  0.00    -0.059 C 
ATOM     20  C   UNL     1      -1.890   2.197  -0.469  0.00  0.00    +0.088 C 
ATOM     21  N   UNL     1      -0.202   0.829   0.657  0.00  0.00    +0.383 N 
ATOM     22  H   UNL     1      -0.683  -0.004   0.297  0.00  0.00    -0.082 HD
ENDROOT
BRANCH   1  23
ATOM     23  S   UNL     1      -2.630   1.015  -5.885  0.00  0.00    -0.086 S 
BRANCH  23  24
ATOM     24  C   UNL     1      -3.395   1.965  -7.222  0.00  0.00    +0.077 C 
BRANCH  24  25
ATOM     25  C   UNL     1      -3.760   1.024  -8.372  0.00  0.00    +0.011 C 
BRANCH  25  27
ATOM     26  C   UNL     1      -4.773   0.886 -10.652  0.00  0.00    +0.004 C 
ATOM     27  C   UNL     1      -4.408   1.827  -9.502  0.00  0.00    -0.003 C 
ENDBRANCH  25  27
ENDBRANCH  24  25
ENDBRANCH  23  24
ENDBRANCH   1  23
BRANCH  21  28
ATOM     28  C   UNL     1       0.450   0.490   1.940  0.00  0.00    -0.051 C 
BRANCH  28  29
ATOM     29  C   UNL     1      -0.627   0.163   2.976  0.00  0.00    +0.137 C 
BRANCH  29  30
ATOM     30  O   UNL     1      -1.377  -0.973   2.542  0.00  0.00    -0.397 OA
ATOM     31  H   UNL     1      -2.079  -1.238   3.152  0.00  0.00    +0.209 HD
ENDBRANCH  29  30
ENDBRANCH  28  29
ENDBRANCH  21  28
TORSDOF 7
