REMARK  Name = ZINC09638457
REMARK  5 active torsions:
REMARK  status: ('A' for Active; 'I' for Inactive)
REMARK    1  A    between atoms: C_1  and  C_2
REMARK    2  A    between atoms: C_2  and  C_4
REMARK    3  A    between atoms: C_2  and  N_55
REMARK    4  A    between atoms: N_6  and  C_7
REMARK    5  A    between atoms: C_8  and  C_15
REMARK                            x       y       z     vdW  Elec       q    Type
REMARK                         _______ _______ _______ _____ _____    ______ ____
ROOT
ATOM      1  C   UNL     1      -2.365  -0.406  -0.259  0.00  0.00    +0.204 C 
ATOM      2  O   UNL     1      -2.414   0.738   0.143  0.00  0.00    -0.277 OA
ATOM      3  N   UNL     1      -1.296  -0.827  -0.963  0.00  0.00    -0.281 N 
ATOM      4  H   UNL     1      -1.258  -1.742  -1.285  0.00  0.00    +0.155 HD
ENDROOT
BRANCH   3   5
ATOM      5  C   UNL     1      -0.253   0.046  -1.228  0.00  0.00    +0.084 A 
ATOM      6  C   UNL     1       0.917  -0.198  -1.927  0.00  0.00    +0.068 A 
ATOM      7  C   UNL     1       1.866   0.906  -2.067  0.00  0.00    -0.023 A 
ATOM      8  C   UNL     1       1.489   2.059  -1.487  0.00  0.00    -0.004 A 
ATOM      9  S   UNL     1      -0.095   1.706  -0.766  0.00  0.00    -0.077 S 
ATOM     10  C   UNL     1       2.516   3.144  -1.669  0.00  0.00    +0.043 C 
ATOM     11  C   UNL     1       3.803   2.397  -2.083  0.00  0.00    +0.010 C 
ATOM     12  C   UNL     1       3.230   1.117  -2.725  0.00  0.00    +0.037 C 
BRANCH   6  13
ATOM     13  C   UNL     1       1.195  -1.517  -2.506  0.00  0.00    +0.244 C 
ATOM     14  O   UNL     1       0.837  -1.770  -3.642  0.00  0.00    -0.270 OA
ATOM     15  N   UNL     1       1.846  -2.447  -1.781  0.00  0.00    -0.325 N 
ATOM     16  H   UNL     1       2.132  -2.245  -0.876  0.00  0.00    +0.145 HD
ATOM     17  H   UNL     1       2.030  -3.319  -2.164  0.00  0.00    +0.145 HD
ENDBRANCH   6  13
ENDBRANCH   3   5
BRANCH   1  19
ATOM     18  C   UNL     1      -3.216  -2.109   1.329  0.00  0.00    -0.004 C 
ATOM     19  C   UNL     1      -3.500  -1.355   0.029  0.00  0.00    +0.016 C 
BRANCH  19  29
ATOM     20  C   UNL     1      -4.977   0.261  -1.004  0.00  0.00    -0.077 C 
ATOM     21  C   UNL     1      -6.351   0.928  -0.894  0.00  0.00    -0.015 C 
ATOM     22  C   UNL     1      -6.403   1.763   0.390  0.00  0.00    -0.011 C 
ATOM     23  C   UNL     1      -5.333   2.855   0.321  0.00  0.00    +0.004 C 
ATOM     24  C   UNL     1      -5.356   3.676   1.612  0.00  0.00    +0.000 C 
ATOM     25  C   UNL     1      -5.066   2.760   2.803  0.00  0.00    +0.000 C 
ATOM     26  C   UNL     1      -6.137   1.670   2.876  0.00  0.00    +0.002 C 
ATOM     27  C   UNL     1      -6.124   0.850   1.587  0.00  0.00    -0.025 C 
ATOM     28  C   UNL     1      -4.757   0.187   1.409  0.00  0.00    -0.074 C 
ATOM     29  N   UNL     1      -4.772  -0.617   0.168  0.00  0.00    +0.387 N 
ATOM     30  H   UNL     1      -5.545  -1.291   0.218  0.00  0.00    -0.081 HD
ENDBRANCH  19  29
ENDBRANCH   1  19
TORSDOF 4
