REMARK  Name = ZINC59058522
REMARK  13 active torsions:
REMARK  status: ('A' for Active; 'I' for Inactive)
REMARK    1  A    between atoms: C_1  and  C_2
REMARK    2  A    between atoms: C_2  and  O_3
REMARK    3  A    between atoms: O_3  and  C_4
REMARK    4  A    between atoms: C_6  and  C_18
REMARK    5  A    between atoms: C_9  and  O_10
REMARK    6  A    between atoms: O_10  and  C_11
REMARK    7  A    between atoms: C_11  and  C_12
REMARK    8  A    between atoms: N_21  and  C_37
REMARK    9  A    between atoms: C_22  and  C_32
REMARK   10  A    between atoms: N_24  and  C_25
REMARK   11  A    between atoms: C_32  and  O_34
REMARK   12  A    between atoms: O_34  and  C_35
REMARK   13  A    between atoms: C_35  and  C_36
REMARK                            x       y       z     vdW  Elec       q    Type
REMARK                         _______ _______ _______ _____ _____    ______ ____
ROOT
ATOM      1  C   UNL     1       0.947  -4.921  -0.095  0.00  0.00    +0.212 C 
ATOM      2  N   UNL     1       1.980  -4.374   0.805  0.00  0.00    -0.213 NA
ATOM      3  N   UNL     1       1.442  -4.147   2.044  0.00  0.00    -0.245 N 
ATOM      4  C   UNL     1       0.642  -5.130   2.643  0.00  0.00    +0.238 C 
ATOM      5  N   UNL     1       0.129  -6.091   1.920  0.00  0.00    -0.154 NA
ATOM      6  N   UNL     1       0.394  -6.130   0.538  0.00  0.00    -0.199 N 
ATOM      7  C   UNL     1       1.701  -2.884   2.739  0.00  0.00    +0.152 C 
ATOM      8  H   UNL     1       2.380  -3.530   0.424  0.00  0.00    +0.147 HD
ENDROOT
BRANCH   6   9
ATOM      9  C   UNL     1       0.142  -7.280  -0.210  0.00  0.00    +0.054 A 
ATOM     10  C   UNL     1       0.417  -7.300  -1.573  0.00  0.00    +0.026 A 
ATOM     11  C   UNL     1       0.167  -8.440  -2.310  0.00  0.00    +0.022 A 
ATOM     12  C   UNL     1      -0.359  -9.562  -1.695  0.00  0.00    +0.041 A 
ATOM     13  C   UNL     1      -0.635  -9.546  -0.339  0.00  0.00    +0.022 A 
ATOM     14  C   UNL     1      -0.380  -8.412   0.406  0.00  0.00    +0.026 A 
ATOM     15 CL   UNL     1      -0.673 -10.993  -2.626  0.00  0.00    -0.084 Cl
ENDBRANCH   6   9
BRANCH   1  18
ATOM     16  C   UNL     1      -0.854  -1.618  -0.436  0.00  0.00    +0.162 A 
ATOM     17  C   UNL     1       0.150  -2.555  -0.253  0.00  0.00    +0.056 A 
ATOM     18  C   UNL     1      -0.147  -3.904  -0.295  0.00  0.00    -0.006 A 
ATOM     19  C   UNL     1      -1.446  -4.322  -0.520  0.00  0.00    +0.011 A 
ATOM     20  C   UNL     1      -2.452  -3.393  -0.704  0.00  0.00    +0.050 A 
ATOM     21  C   UNL     1      -2.162  -2.039  -0.657  0.00  0.00    +0.162 A 
BRANCH  16  22
ATOM     22  O   UNL     1      -0.564  -0.290  -0.395  0.00  0.00    -0.489 OA
BRANCH  22  24
ATOM     23  C   UNL     1       0.931   1.593  -0.151  0.00  0.00    +0.048 C 
ATOM     24  C   UNL     1       0.800   0.069  -0.164  0.00  0.00    +0.226 C 
ENDBRANCH  22  24
ENDBRANCH  16  22
BRANCH  21  25
ATOM     25  O   UNL     1      -3.152  -1.124  -0.833  0.00  0.00    -0.484 OA
BRANCH  25  26
ATOM     26  C   UNL     1      -4.471  -1.628  -1.055  0.00  0.00    +0.264 C 
BRANCH  26  27
ATOM     27  C   UNL     1      -5.428  -0.477  -1.226  0.00  0.00    -0.010 A 
ATOM     28  C   UNL     1      -6.064   0.063  -0.124  0.00  0.00    +0.007 A 
ATOM     29  C   UNL     1      -6.941   1.119  -0.280  0.00  0.00    +0.000 A 
ATOM     30  C   UNL     1      -7.182   1.637  -1.540  0.00  0.00    +0.000 A 
ATOM     31  C   UNL     1      -6.545   1.098  -2.642  0.00  0.00    +0.000 A 
ATOM     32  C   UNL     1      -5.664   0.044  -2.484  0.00  0.00    +0.007 A 
ENDBRANCH  26  27
ENDBRANCH  25  26
ENDBRANCH  21  25
ENDBRANCH   1  18
BRANCH   4  33
ATOM     33  C   UNL     1       0.381  -5.081   4.085  0.00  0.00    +0.375 C 
ATOM     34  O   UNL     1       0.767  -4.132   4.741  0.00  0.00    -0.242 OA
BRANCH  33  35
ATOM     35  O   UNL     1      -0.288  -6.087   4.685  0.00  0.00    -0.459 OA
BRANCH  35  36
ATOM     36  C   UNL     1      -0.507  -5.974   6.092  0.00  0.00    +0.229 C 
ATOM     37  C   UNL     1      -1.275  -7.200   6.590  0.00  0.00    +0.048 C 
ENDBRANCH  35  36
ENDBRANCH  33  35
ENDBRANCH   4  33
TORSDOF 10
