REMARK  Name = ZINC35022562
REMARK  8 active torsions:
REMARK  status: ('A' for Active; 'I' for Inactive)
REMARK    1  A    between atoms: C_1  and  N_2
REMARK    2  A    between atoms: N_2  and  C_3
REMARK    3  A    between atoms: N_2  and  C_4
REMARK    4  A    between atoms: C_4  and  C_5
REMARK    5  A    between atoms: C_5  and  N_6
REMARK    6  A    between atoms: C_7  and  C_9
REMARK    7  A    between atoms: C_15  and  N_20
REMARK    8  A    between atoms: N_23  and  C_24
REMARK                            x       y       z     vdW  Elec       q    Type
REMARK                         _______ _______ _______ _____ _____    ______ ____
ROOT
ATOM      1  C   UNL     1       0.826   0.101   6.101  0.00  0.00    +0.053 A 
ATOM      2  C   UNL     1       1.918  -0.759   5.831  0.00  0.00    +0.018 A 
ATOM      3  C   UNL     1       2.484  -1.458   6.848  0.00  0.00    +0.047 A 
ATOM      4  C   UNL     1       1.981  -1.321   8.158  0.00  0.00    +0.140 A 
ATOM      5  N   UNL     1       2.544  -2.011   9.146  0.00  0.00    -0.235 NA
ATOM      6  C   UNL     1       2.107  -1.916  10.393  0.00  0.00    +0.142 A 
ATOM      7  C   UNL     1       1.042  -1.085  10.694  0.00  0.00    +0.119 A 
ATOM      8  C   UNL     1       0.442  -0.352   9.655  0.00  0.00    +0.280 A 
ATOM      9  O   UNL     1      -0.500   0.391   9.883  0.00  0.00    -0.265 OA
ATOM     10  N   UNL     1       0.924  -0.484   8.400  0.00  0.00    -0.266 N 
ATOM     11  C   UNL     1       0.355   0.223   7.388  0.00  0.00    +0.109 A 
ENDROOT
BRANCH   7  12
ATOM     12  N   UNL     1       0.569  -0.976  12.012  0.00  0.00    -0.264 N 
ATOM     13  C   UNL     1      -0.713  -1.279  12.295  0.00  0.00    +0.308 C 
ATOM     14  O   UNL     1      -1.438  -1.729  11.428  0.00  0.00    -0.252 OA
ATOM     15  N   UNL     1      -1.193  -1.084  13.540  0.00  0.00    -0.269 N 
ATOM     16  H   UNL     1       1.165  -0.682  12.718  0.00  0.00    +0.157 HD
ATOM     17  H   UNL     1      -0.638  -0.660  14.212  0.00  0.00    +0.156 HD
BRANCH  15  18
ATOM     18  C   UNL     1      -2.492  -1.494  13.861  0.00  0.00    +0.036 A 
ATOM     19  C   UNL     1      -3.229  -0.791  14.805  0.00  0.00    +0.023 A 
ATOM     20  C   UNL     1      -4.511  -1.196  15.120  0.00  0.00    +0.003 A 
ATOM     21  C   UNL     1      -5.061  -2.301  14.497  0.00  0.00    +0.020 A 
ATOM     22  C   UNL     1      -4.330  -3.004  13.556  0.00  0.00    +0.043 A 
ATOM     23  C   UNL     1      -3.048  -2.599  13.232  0.00  0.00    +0.043 A 
ATOM     24 CL   UNL     1      -5.024  -4.391  12.776  0.00  0.00    -0.083 Cl
ENDBRANCH  15  18
ENDBRANCH   7  12
BRANCH   1  26
ATOM     25  N   UNL     1       0.663   0.748   3.747  0.00  0.00    -0.313 N 
ATOM     26  C   UNL     1       0.200   0.869   5.007  0.00  0.00    +0.245 C 
ATOM     27  O   UNL     1      -0.735   1.611   5.242  0.00  0.00    -0.270 OA
ATOM     28  H   UNL     1       1.408   0.156   3.559  0.00  0.00    +0.149 HD
BRANCH  25  29
ATOM     29  C   UNL     1       0.041   1.510   2.661  0.00  0.00    +0.086 C 
BRANCH  29  30
ATOM     30  C   UNL     1       0.750   1.192   1.343  0.00  0.00    -0.061 C 
BRANCH  30  32
ATOM     31  C   UNL     1       0.344   3.391   0.477  0.00  0.00    -0.097 C 
ATOM     32  N   UNL     1       0.127   1.956   0.255  0.00  0.00    +0.377 N 
ATOM     33  C   UNL     1       0.728   1.562  -1.027  0.00  0.00    -0.097 C 
ATOM     34  H   UNL     1      -0.864   1.765   0.234  0.00  0.00    -0.083 HD
ENDBRANCH  30  32
ENDBRANCH  29  30
ENDBRANCH  25  29
ENDBRANCH   1  26
TORSDOF 6
