REMARK  Name = ZINC63755391
REMARK  10 active torsions:
REMARK  status: ('A' for Active; 'I' for Inactive)
REMARK    1  A    between atoms: C_1  and  C_2
REMARK    2  A    between atoms: C_2  and  C_3
REMARK    3  A    between atoms: C_3  and  C_4
REMARK    4  A    between atoms: C_4  and  N_5
REMARK    5  A    between atoms: N_5  and  C_6
REMARK    6  A    between atoms: N_5  and  C_14
REMARK    7  A    between atoms: C_6  and  C_7
REMARK    8  A    between atoms: C_14  and  C_15
REMARK    9  A    between atoms: N_17  and  C_18
REMARK   10  A    between atoms: C_19  and  C_23
REMARK                            x       y       z     vdW  Elec       q    Type
REMARK                         _______ _______ _______ _____ _____    ______ ____
ROOT
ATOM      1  C   UNL     1       1.890  -3.955   2.262  0.00  0.00    +0.019 C 
ENDROOT
BRANCH   1   2
ATOM      2  C   UNL     1       2.717  -4.206   1.028  0.00  0.00    +0.201 C 
ATOM      3  O   UNL     1       3.016  -3.284   0.300  0.00  0.00    -0.278 OA
ATOM      4  N   UNL     1       3.126  -5.457   0.734  0.00  0.00    -0.281 N 
ATOM      5  H   UNL     1       2.887  -6.194   1.317  0.00  0.00    +0.155 HD
BRANCH   4   6
ATOM      6  C   UNL     1       3.887  -5.688  -0.401  0.00  0.00    +0.084 A 
ATOM      7  C   UNL     1       4.387  -6.898  -0.861  0.00  0.00    +0.065 A 
ATOM      8  C   UNL     1       5.157  -6.857  -2.083  0.00  0.00    +0.022 A 
ATOM      9  C   UNL     1       5.305  -5.642  -2.643  0.00  0.00    +0.048 A 
ATOM     10  S   UNL     1       4.410  -4.571  -1.538  0.00  0.00    -0.081 S 
BRANCH   7  11
ATOM     11  C   UNL     1       4.146  -8.154  -0.144  0.00  0.00    +0.244 C 
ATOM     12  O   UNL     1       3.493  -8.153   0.883  0.00  0.00    -0.270 OA
ATOM     13  N   UNL     1       4.648  -9.310  -0.622  0.00  0.00    -0.325 N 
ATOM     14  H   UNL     1       5.168  -9.311  -1.440  0.00  0.00    +0.145 HD
ATOM     15  H   UNL     1       4.489 -10.141  -0.147  0.00  0.00    +0.145 HD
ENDBRANCH   7  11
ENDBRANCH   4   6
ENDBRANCH   1   2
BRANCH   1  16
ATOM     16  N   UNL     1       1.575  -2.523   2.357  0.00  0.00    +0.388 N 
ATOM     17  H   UNL     1       2.431  -1.988   2.331  0.00  0.00    -0.081 HD
BRANCH  16  18
ATOM     18  C   UNL     1       0.719  -2.133   1.229  0.00  0.00    -0.078 C 
BRANCH  18  19
ATOM     19  C   UNL     1       0.515  -0.617   1.244  0.00  0.00    -0.019 C 
BRANCH  19  21
ATOM     20  C   UNL     1      -0.469   1.321   0.011  0.00  0.00    +0.004 C 
ATOM     21  C   UNL     1      -0.264  -0.195  -0.004  0.00  0.00    -0.005 C 
ENDBRANCH  19  21
ENDBRANCH  18  19
ENDBRANCH  16  18
BRANCH  16  22
ATOM     22  C   UNL     1       0.872  -2.259   3.620  0.00  0.00    -0.039 C 
BRANCH  22  23
ATOM     23  C   UNL     1       1.799  -2.527   4.777  0.00  0.00    -0.029 A 
ATOM     24  C   UNL     1       1.645  -3.672   5.535  0.00  0.00    +0.004 A 
ATOM     25  C   UNL     1       2.495  -3.919   6.597  0.00  0.00    +0.000 A 
ATOM     26  C   UNL     1       3.501  -3.020   6.902  0.00  0.00    +0.003 A 
ATOM     27  C   UNL     1       3.657  -1.875   6.145  0.00  0.00    +0.038 A 
ATOM     28  C   UNL     1       2.809  -1.630   5.078  0.00  0.00    +0.125 A 
ATOM     29  F   UNL     1       2.965  -0.512   4.334  0.00  0.00    -0.205 F 
ENDBRANCH  22  23
ENDBRANCH  16  22
ENDBRANCH   1  16
TORSDOF 9
