REMARK  Name = ZINC20086037
REMARK  12 active torsions:
REMARK  status: ('A' for Active; 'I' for Inactive)
REMARK    1  A    between atoms: C_1  and  O_2
REMARK    2  A    between atoms: O_2  and  C_3
REMARK    3  A    between atoms: C_6  and  C_11
REMARK    4  A    between atoms: C_8  and  O_9
REMARK    5  A    between atoms: O_9  and  C_10
REMARK    6  A    between atoms: C_16  and  C_24
REMARK    7  A    between atoms: C_26  and  O_34
REMARK    8  A    between atoms: C_27  and  O_32
REMARK    9  A    between atoms: C_28  and  O_30
REMARK   10  A    between atoms: O_30  and  C_31
REMARK   11  A    between atoms: O_32  and  C_33
REMARK   12  A    between atoms: O_34  and  C_35
REMARK                            x       y       z     vdW  Elec       q    Type
REMARK                         _______ _______ _______ _____ _____    ______ ____
ROOT
ATOM      1  C   UNL     1       2.507  -2.501  -4.386  0.00  0.00    +0.032 C 
ATOM      2  C   UNL     1       3.972  -2.066  -4.458  0.00  0.00    +0.060 C 
ATOM      3  C   UNL     1       4.632  -2.698  -5.661  0.00  0.00    +0.020 C 
ATOM      4  C   UNL     1       3.924  -2.972  -6.777  0.00  0.00    +0.041 C 
ATOM      5  C   UNL     1       4.556  -3.607  -7.996  0.00  0.00    +0.176 C 
ATOM      6  N   UNL     1       6.009  -3.550  -7.891  0.00  0.00    -0.221 N 
ATOM      7  C   UNL     1       6.663  -3.256  -6.739  0.00  0.00    +0.218 A 
ATOM      8  N   UNL     1       7.944  -3.296  -6.982  0.00  0.00    -0.201 NA
ATOM      9  C   UNL     1       8.146  -3.604  -8.267  0.00  0.00    +0.247 A 
ATOM     10  N   UNL     1       6.988  -3.767  -8.859  0.00  0.00    -0.156 NA
ATOM     11  N   UNL     1       5.976  -2.973  -5.570  0.00  0.00    -0.287 N 
ATOM     12  C   UNL     1       2.550  -2.678  -6.850  0.00  0.00    +0.164 C 
ATOM     13  O   UNL     1       1.945  -2.915  -7.877  0.00  0.00    -0.292 OA
ATOM     14  C   UNL     1       1.813  -2.077  -5.685  0.00  0.00    +0.088 C 
ATOM     15  H   UNL     1       6.430  -2.969  -4.713  0.00  0.00    +0.155 HD
ENDROOT
BRANCH   1  19
ATOM     16  C   UNL     1       0.606  -0.608  -1.056  0.00  0.00    +0.161 A 
ATOM     17  C   UNL     1       1.173   0.159  -2.062  0.00  0.00    +0.049 A 
ATOM     18  C   UNL     1       1.787  -0.456  -3.137  0.00  0.00    +0.008 A 
ATOM     19  C   UNL     1       1.837  -1.836  -3.212  0.00  0.00    -0.040 A 
ATOM     20  C   UNL     1       1.273  -2.606  -2.212  0.00  0.00    +0.053 A 
ATOM     21  C   UNL     1       0.662  -1.996  -1.129  0.00  0.00    +0.162 A 
BRANCH  16  23
ATOM     22  C   UNL     1      -0.017   1.425   0.010  0.00  0.00    +0.277 C 
ATOM     23  O   UNL     1       0.002  -0.004   0.002  0.00  0.00    -0.491 OA
ENDBRANCH  16  23
BRANCH  21  24
ATOM     24  O   UNL     1       0.112  -2.753  -0.142  0.00  0.00    -0.491 OA
ATOM     25  C   UNL     1       0.206  -4.171  -0.283  0.00  0.00    +0.277 C 
ENDBRANCH  21  24
ENDBRANCH   1  19
BRANCH   5  26
ATOM     26  C   UNL     1       4.120  -5.045  -8.094  0.00  0.00    -0.011 A 
ATOM     27  C   UNL     1       4.405  -5.924  -7.066  0.00  0.00    +0.055 A 
ATOM     28  C   UNL     1       4.006  -7.249  -7.152  0.00  0.00    +0.166 A 
ATOM     29  C   UNL     1       3.317  -7.693  -8.275  0.00  0.00    +0.204 A 
ATOM     30  C   UNL     1       3.032  -6.807  -9.307  0.00  0.00    +0.166 A 
ATOM     31  C   UNL     1       3.431  -5.482  -9.210  0.00  0.00    +0.055 A 
BRANCH  30  32
ATOM     32  O   UNL     1       2.359  -7.237 -10.407  0.00  0.00    -0.491 OA
ATOM     33  C   UNL     1       2.101  -6.271 -11.428  0.00  0.00    +0.277 C 
ENDBRANCH  30  32
BRANCH  29  34
ATOM     34  O   UNL     1       2.924  -8.993  -8.364  0.00  0.00    -0.488 OA
ATOM     35  C   UNL     1       1.632  -9.317  -7.846  0.00  0.00    +0.277 C 
ENDBRANCH  29  34
BRANCH  28  36
ATOM     36  O   UNL     1       4.287  -8.113  -6.141  0.00  0.00    -0.491 OA
ATOM     37  C   UNL     1       4.998  -7.587  -5.018  0.00  0.00    +0.277 C 
ENDBRANCH  28  36
ENDBRANCH   5  26
TORSDOF 7
