REMARK  Name = ZINC50604125
REMARK  4 active torsions:
REMARK  status: ('A' for Active; 'I' for Inactive)
REMARK    1  A    between atoms: C_7  and  C_9
REMARK    2  A    between atoms: C_9  and  N_10
REMARK    3  A    between atoms: N_16  and  C_19
REMARK    4  A    between atoms: C_19  and  C_20
REMARK                            x       y       z     vdW  Elec       q    Type
REMARK                         _______ _______ _______ _____ _____    ______ ____
ROOT
ATOM      1  N   UNL     1      -1.398  -1.999  -0.199  0.00  0.00    -0.299 N 
ATOM      2  C   UNL     1      -2.532  -2.692  -0.424  0.00  0.00    +0.302 C 
ATOM      3  O   UNL     1      -3.575  -2.101  -0.629  0.00  0.00    -0.253 OA
ATOM      4  N   UNL     1      -2.510  -4.039  -0.421  0.00  0.00    -0.289 N 
ATOM      5  C   UNL     1      -1.290  -4.775  -0.058  0.00  0.00    +0.091 C 
ATOM      6  C   UNL     1      -1.651  -5.823   1.000  0.00  0.00    -0.059 C 
ATOM      7  N   UNL     1      -2.742  -6.668   0.498  0.00  0.00    +0.389 N 
ATOM      8  C   UNL     1      -3.954  -5.861   0.311  0.00  0.00    -0.059 C 
ATOM      9  C   UNL     1      -3.709  -4.816  -0.776  0.00  0.00    +0.091 C 
ATOM     10  H   UNL     1      -0.582  -2.468   0.035  0.00  0.00    +0.150 HD
ATOM     11  H   UNL     1      -2.471  -7.076  -0.384  0.00  0.00    -0.081 HD
ENDROOT
BRANCH   1  12
ATOM     12  C   UNL     1      -1.398  -0.538  -0.310  0.00  0.00    +0.111 C 
BRANCH  12  19
ATOM     13  C   UNL     1      -0.017   1.534   0.001  0.00  0.00    +0.029 C 
ATOM     14  C   UNL     1       1.430   2.081  -0.015  0.00  0.00    +0.166 C 
ATOM     15  S   UNL     1       2.356   0.748  -0.881  0.00  0.00    -0.031 S 
ATOM     16  O   UNL     1       3.317   0.200   0.010  0.00  0.00    -0.174 OA
ATOM     17  O   UNL     1       2.774   1.226  -2.152  0.00  0.00    -0.174 OA
ATOM     18  C   UNL     1       0.993  -0.468  -1.115  0.00  0.00    +0.171 C 
ATOM     19  C   UNL     1       0.004  -0.004  -0.008  0.00  0.00    +0.029 C 
ENDBRANCH  12  19
ENDBRANCH   1  12
BRANCH   7  20
ATOM     20  C   UNL     1      -3.014  -7.740   1.466  0.00  0.00    +0.048 C 
BRANCH  20  21
ATOM     21  C   UNL     1      -4.046  -8.679   0.898  0.00  0.00    +0.340 C 
ATOM     22  O   UNL     1      -4.513  -8.475  -0.209  0.00  0.00    -0.249 OA
ATOM     23  O   UNL     1      -4.415  -9.643   1.547  0.00  0.00    -0.249 OA
ENDBRANCH  20  21
ENDBRANCH   7  20
TORSDOF 4
