REMARK  Name = ZINC12882709
REMARK  6 active torsions:
REMARK  status: ('A' for Active; 'I' for Inactive)
REMARK    1  A    between atoms: C_1  and  C_2
REMARK    2  A    between atoms: C_2  and  C_4
REMARK    3  A    between atoms: C_2  and  O_34
REMARK    4  A    between atoms: N_12  and  C_15
REMARK    5  A    between atoms: C_15  and  C_16
REMARK    6  A    between atoms: C_16  and  C_17
REMARK                            x       y       z     vdW  Elec       q    Type
REMARK                         _______ _______ _______ _____ _____    ______ ____
ROOT
ATOM      1  C   UNL     1      -2.164   1.050   1.278  0.00  0.00    -0.028 C 
ATOM      2  C   UNL     1      -2.895   1.504   2.559  0.00  0.00    +0.075 C 
ATOM      3  C   UNL     1      -3.787   0.293   2.958  0.00  0.00    +0.088 C 
ATOM      4  C   UNL     1      -5.191   0.822   2.776  0.00  0.00    +0.225 C 
ATOM      5  O   UNL     1      -6.208   0.193   2.977  0.00  0.00    -0.275 OA
ATOM      6  N   UNL     1      -5.138   2.095   2.356  0.00  0.00    -0.241 N 
ATOM      7  C   UNL     1      -3.899   2.577   2.203  0.00  0.00    +0.224 C 
ATOM      8  O   UNL     1      -3.625   3.699   1.835  0.00  0.00    -0.275 OA
ATOM      9  C   UNL     1      -3.493  -0.771   1.893  0.00  0.00    +0.050 C 
ATOM     10  C   UNL     1      -3.515  -2.155   2.476  0.00  0.00    -0.026 A 
ATOM     11  C   UNL     1      -2.797  -2.775   3.475  0.00  0.00    +0.004 A 
ATOM     12  C   UNL     1      -3.053  -4.096   3.795  0.00  0.00    +0.002 A 
ATOM     13  C   UNL     1      -4.032  -4.793   3.110  0.00  0.00    +0.022 A 
ATOM     14  C   UNL     1      -4.753  -4.177   2.107  0.00  0.00    +0.062 A 
ATOM     15  C   UNL     1      -4.500  -2.846   1.778  0.00  0.00    +0.054 A 
ATOM     16  N   UNL     1      -5.085  -2.016   0.819  0.00  0.00    -0.285 N 
ATOM     17  C   UNL     1      -4.548  -0.781   0.821  0.00  0.00    +0.211 C 
ATOM     18  O   UNL     1      -4.856   0.144   0.099  0.00  0.00    -0.277 OA
ATOM     19 CL   UNL     1      -5.978  -5.062   1.253  0.00  0.00    -0.082 Cl
ATOM     20  H   UNL     1      -5.795  -2.297   0.221  0.00  0.00    +0.155 HD
ATOM     21  N   UNL     1      -2.194  -0.413   1.351  0.00  0.00    +0.396 N 
ATOM     22  H   UNL     1      -1.446  -0.753   1.967  0.00  0.00    -0.083 HD
ATOM     23  H   UNL     1      -2.076  -0.818   0.414  0.00  0.00    -0.083 HD
ENDROOT
BRANCH   1  25
ATOM     24  C   UNL     1      -0.013   1.086   0.008  0.00  0.00    +0.036 C 
ATOM     25  C   UNL     1      -0.729   1.579   1.267  0.00  0.00    +0.098 C 
BRANCH  25  26
ATOM     26  O   UNL     1      -0.038   1.106   2.425  0.00  0.00    -0.394 OA
ATOM     27  H   UNL     1       0.014   0.142   2.485  0.00  0.00    +0.210 HD
ENDBRANCH  25  26
ENDBRANCH   1  25
BRANCH   6  28
ATOM     28  C   UNL     1      -6.337   2.892   2.087  0.00  0.00    +0.121 C 
BRANCH  28  29
ATOM     29  C   UNL     1      -6.748   2.718   0.624  0.00  0.00    +0.054 C 
BRANCH  29  30
ATOM     30  C   UNL     1      -7.982   3.538   0.347  0.00  0.00    -0.046 A 
ATOM     31  C   UNL     1      -9.235   2.981   0.519  0.00  0.00    +0.004 A 
ATOM     32  C   UNL     1     -10.367   3.735   0.269  0.00  0.00    +0.000 A 
ATOM     33  C   UNL     1     -10.245   5.043  -0.161  0.00  0.00    +0.000 A 
ATOM     34  C   UNL     1      -8.991   5.599  -0.337  0.00  0.00    +0.000 A 
ATOM     35  C   UNL     1      -7.860   4.846  -0.083  0.00  0.00    +0.004 A 
ENDBRANCH  29  30
ENDBRANCH  28  29
ENDBRANCH   6  28
TORSDOF 5
