REMARK  Name = ZINC53681189
REMARK  11 active torsions:
REMARK  status: ('A' for Active; 'I' for Inactive)
REMARK    1  A    between atoms: C_1  and  C_2
REMARK    2  A    between atoms: C_2  and  C_4
REMARK    3  A    between atoms: C_2  and  N_16
REMARK    4  A    between atoms: N_6  and  C_7
REMARK    5  A    between atoms: C_10  and  C_13
REMARK    6  A    between atoms: N_16  and  C_17
REMARK    7  A    between atoms: N_16  and  C_18
REMARK    8  A    between atoms: C_18  and  C_19
REMARK    9  A    between atoms: C_19  and  C_20
REMARK   10  A    between atoms: C_20  and  O_21
REMARK   11  A    between atoms: O_21  and  C_22
REMARK                            x       y       z     vdW  Elec       q    Type
REMARK                         _______ _______ _______ _____ _____    ______ ____
ROOT
ATOM      1  C   UNL     1       0.094   1.097   0.827  0.00  0.00    -0.004 C 
ATOM      2  C   UNL     1       0.018  -0.145  -0.064  0.00  0.00    +0.016 C 
ENDROOT
BRANCH   2   3
ATOM      3  C   UNL     1      -1.399  -0.659  -0.089  0.00  0.00    +0.203 C 
ATOM      4  O   UNL     1      -1.744  -1.524   0.688  0.00  0.00    -0.277 OA
ATOM      5  N   UNL     1      -2.283  -0.157  -0.974  0.00  0.00    -0.287 N 
ATOM      6  H   UNL     1      -1.991   0.488  -1.637  0.00  0.00    +0.155 HD
BRANCH   5   7
ATOM      7  C   UNL     1      -3.615  -0.564  -0.936  0.00  0.00    +0.033 A 
ATOM      8  C   UNL     1      -4.205  -0.896   0.279  0.00  0.00    +0.024 A 
ATOM      9  C   UNL     1      -5.521  -1.299   0.320  0.00  0.00    +0.015 A 
ATOM     10  C   UNL     1      -6.265  -1.373  -0.861  0.00  0.00    +0.037 A 
ATOM     11  C   UNL     1      -5.669  -1.038  -2.080  0.00  0.00    +0.015 A 
ATOM     12  C   UNL     1      -4.354  -0.632  -2.113  0.00  0.00    +0.024 A 
BRANCH  10  13
ATOM     13  C   UNL     1      -7.676  -1.805  -0.821  0.00  0.00    +0.242 C 
ATOM     14  O   UNL     1      -8.192  -2.097   0.240  0.00  0.00    -0.270 OA
ATOM     15  N   UNL     1      -8.391  -1.876  -1.961  0.00  0.00    -0.325 N 
ATOM     16  H   UNL     1      -7.979  -1.644  -2.807  0.00  0.00    +0.145 HD
ATOM     17  H   UNL     1      -9.318  -2.160  -1.934  0.00  0.00    +0.145 HD
ENDBRANCH  10  13
ENDBRANCH   5   7
ENDBRANCH   2   3
BRANCH   2  18
ATOM     18  N   UNL     1       0.907  -1.186   0.469  0.00  0.00    +0.385 N 
ATOM     19  C   UNL     1       0.903  -2.343  -0.436  0.00  0.00    -0.095 C 
ATOM     20  H   UNL     1       0.582  -1.471   1.381  0.00  0.00    -0.081 HD
BRANCH  18  21
ATOM     21  C   UNL     1       2.272  -0.654   0.579  0.00  0.00    -0.075 C 
BRANCH  21  22
ATOM     22  C   UNL     1       3.171  -1.695   1.249  0.00  0.00    +0.022 C 
BRANCH  22  23
ATOM     23  C   UNL     1       4.593  -1.141   1.364  0.00  0.00    +0.227 C 
BRANCH  23  24
ATOM     24  O   UNL     1       5.434  -2.113   1.990  0.00  0.00    -0.492 OA
BRANCH  24  25
ATOM     25  C   UNL     1       6.738  -1.777   2.169  0.00  0.00    +0.121 A 
ATOM     26  C   UNL     1       7.198  -0.535   1.756  0.00  0.00    +0.047 A 
ATOM     27  C   UNL     1       8.525  -0.195   1.939  0.00  0.00    +0.023 A 
ATOM     28  C   UNL     1       9.394  -1.092   2.534  0.00  0.00    +0.041 A 
ATOM     29  C   UNL     1       8.937  -2.332   2.946  0.00  0.00    +0.023 A 
ATOM     30  C   UNL     1       7.610  -2.673   2.770  0.00  0.00    +0.047 A 
ATOM     31 CL   UNL     1      11.061  -0.663   2.762  0.00  0.00    -0.084 Cl
ENDBRANCH  24  25
ENDBRANCH  23  24
ENDBRANCH  22  23
ENDBRANCH  21  22
ENDBRANCH  18  21
ENDBRANCH   2  18
TORSDOF 9
