REMARK  Name = ZINC59958903
REMARK  14 active torsions:
REMARK  status: ('A' for Active; 'I' for Inactive)
REMARK    1  A    between atoms: C_1  and  C_2
REMARK    2  A    between atoms: C_2  and  O_3
REMARK    3  A    between atoms: O_3  and  C_4
REMARK    4  A    between atoms: C_4  and  C_6
REMARK    5  A    between atoms: C_7  and  C_34
REMARK    6  A    between atoms: C_8  and  C_30
REMARK    7  A    between atoms: C_10  and  N_11
REMARK    8  A    between atoms: C_12  and  C_14
REMARK    9  A    between atoms: C_14  and  N_15
REMARK   10  A    between atoms: N_15  and  C_16
REMARK   11  A    between atoms: N_15  and  C_23
REMARK   12  A    between atoms: C_16  and  C_17
REMARK   13  A    between atoms: C_23  and  C_24
REMARK   14  A    between atoms: N_32  and  C_33
REMARK                            x       y       z     vdW  Elec       q    Type
REMARK                         _______ _______ _______ _____ _____    ______ ____
ROOT
ATOM      1  N   UNL     1      -0.016  -2.246  -4.806  0.00  0.00    -0.281 N 
ATOM      2  C   UNL     1      -0.764  -2.517  -5.894  0.00  0.00    +0.201 C 
ATOM      3  O   UNL     1      -0.233  -2.898  -6.915  0.00  0.00    -0.278 OA
ATOM      4  H   UNL     1      -0.446  -2.013  -3.968  0.00  0.00    +0.155 HD
ENDROOT
BRANCH   1   9
ATOM      5  C   UNL     1       2.294  -1.958  -3.902  0.00  0.00    +0.091 A 
ATOM      6  C   UNL     1       3.639  -2.105  -4.213  0.00  0.00    -0.015 A 
ATOM      7  C   UNL     1       3.924  -2.570  -5.468  0.00  0.00    +0.079 A 
ATOM      8  S   UNL     1       2.307  -2.791  -6.182  0.00  0.00    -0.068 S 
ATOM      9  C   UNL     1       1.362  -2.300  -4.883  0.00  0.00    +0.087 A 
ATOM     10  C   UNL     1       4.725  -1.769  -3.224  0.00  0.00    +0.046 C 
BRANCH   7  11
ATOM     11  C   UNL     1       5.233  -2.822  -6.074  0.00  0.00    +0.251 C 
ATOM     12  O   UNL     1       6.249  -2.614  -5.437  0.00  0.00    -0.270 OA
ATOM     13  N   UNL     1       5.313  -3.285  -7.337  0.00  0.00    -0.314 N 
ATOM     14  C   UNL     1       6.623  -3.538  -7.943  0.00  0.00    +0.128 C 
ATOM     15  H   UNL     1       4.504  -3.451  -7.845  0.00  0.00    +0.149 HD
ENDBRANCH   7  11
BRANCH   5  16
ATOM     16  C   UNL     1       1.867  -1.468  -2.587  0.00  0.00    +0.342 C 
ATOM     17  O   UNL     1       1.670  -2.253  -1.679  0.00  0.00    -0.245 OA
BRANCH  16  18
ATOM     18  O   UNL     1       1.692  -0.146  -2.384  0.00  0.00    -0.461 OA
BRANCH  18  20
ATOM     19  C   UNL     1       1.132   1.783  -1.041  0.00  0.00    +0.048 C 
ATOM     20  C   UNL     1       1.276   0.260  -1.079  0.00  0.00    +0.229 C 
ENDBRANCH  18  20
ENDBRANCH  16  18
ENDBRANCH   5  16
ENDBRANCH   1   9
BRANCH   2  21
ATOM     21  C   UNL     1      -2.260  -2.346  -5.841  0.00  0.00    +0.019 C 
BRANCH  21  22
ATOM     22  N   UNL     1      -2.855  -2.860  -7.083  0.00  0.00    +0.390 N 
ATOM     23  H   UNL     1      -2.410  -2.421  -7.875  0.00  0.00    -0.081 HD
BRANCH  22  24
ATOM     24  C   UNL     1      -2.661  -4.314  -7.154  0.00  0.00    -0.042 C 
BRANCH  24  25
ATOM     25  C   UNL     1      -3.162  -4.823  -8.481  0.00  0.00    -0.064 A 
ATOM     26  C   UNL     1      -4.479  -5.219  -8.618  0.00  0.00    +0.002 A 
ATOM     27  C   UNL     1      -4.938  -5.686  -9.835  0.00  0.00    +0.000 A 
ATOM     28  C   UNL     1      -4.079  -5.756 -10.917  0.00  0.00    +0.000 A 
ATOM     29  C   UNL     1      -2.762  -5.359 -10.780  0.00  0.00    +0.000 A 
ATOM     30  C   UNL     1      -2.304  -4.888  -9.564  0.00  0.00    +0.002 A 
ENDBRANCH  24  25
ENDBRANCH  22  24
BRANCH  22  31
ATOM     31  C   UNL     1      -4.293  -2.556  -7.099  0.00  0.00    -0.046 C 
BRANCH  31  32
ATOM     32  C   UNL     1      -4.493  -1.044  -7.226  0.00  0.00    +0.102 C 
ATOM     33  C   UNL     1      -6.000  -0.712  -7.367  0.00  0.00    +0.032 C 
ATOM     34  C   UNL     1      -6.030   0.748  -6.838  0.00  0.00    +0.030 C 
ATOM     35  C   UNL     1      -4.941   0.723  -5.744  0.00  0.00    +0.160 C 
ATOM     36  O   UNL     1      -4.071  -0.383  -6.023  0.00  0.00    -0.378 OA
ENDBRANCH  31  32
ENDBRANCH  22  31
ENDBRANCH  21  22
ENDBRANCH   2  21
TORSDOF 11
