REMARK  Name = ZINC20686354
REMARK  11 active torsions:
REMARK  status: ('A' for Active; 'I' for Inactive)
REMARK    1  A    between atoms: C_1  and  C_2
REMARK    2  A    between atoms: C_7  and  N_8
REMARK    3  A    between atoms: C_9  and  C_11
REMARK    4  A    between atoms: C_11  and  N_12
REMARK    5  A    between atoms: N_12  and  C_13
REMARK    6  A    between atoms: N_12  and  C_14
REMARK    7  A    between atoms: C_14  and  C_15
REMARK    8  A    between atoms: N_17  and  C_18
REMARK    9  A    between atoms: C_18  and  C_19
REMARK   10  A    between atoms: C_22  and  S_25
REMARK   11  A    between atoms: S_25  and  N_28
REMARK                            x       y       z     vdW  Elec       q    Type
REMARK                         _______ _______ _______ _____ _____    ______ ____
ROOT
ATOM      1  C   UNL     1       3.681   1.743   0.187  0.00  0.00    +0.019 C 
ENDROOT
BRANCH   1   2
ATOM      2  C   UNL     1       4.780   0.736   0.407  0.00  0.00    +0.197 C 
ATOM      3  O   UNL     1       4.528  -0.450   0.385  0.00  0.00    -0.278 OA
ATOM      4  N   UNL     1       6.042   1.153   0.630  0.00  0.00    -0.313 N 
ATOM      5  H   UNL     1       6.270   2.229   0.650  0.00  0.00    +0.149 HD
BRANCH   4   6
ATOM      6  C   UNL     1       7.110   0.173   0.844  0.00  0.00    +0.139 C 
BRANCH   6   7
ATOM      7  C   UNL     1       8.415   0.894   1.068  0.00  0.00    -0.030 A 
ATOM      8  C   UNL     1       9.231   1.196  -0.006  0.00  0.00    +0.007 A 
ATOM      9  C   UNL     1      10.426   1.860   0.199  0.00  0.00    +0.029 A 
ATOM     10  C   UNL     1      10.809   2.215   1.479  0.00  0.00    +0.105 A 
ATOM     11  C   UNL     1       9.995   1.908   2.554  0.00  0.00    +0.029 A 
ATOM     12  C   UNL     1       8.798   1.247   2.349  0.00  0.00    +0.007 A 
BRANCH  10  13
ATOM     13  S   UNL     1      12.333   3.058   1.741  0.00  0.00    +0.056 S 
ATOM     14  O   UNL     1      12.651   3.711   0.520  0.00  0.00    -0.153 OA
ATOM     15  O   UNL     1      12.203   3.761   2.969  0.00  0.00    -0.153 OA
BRANCH  13  16
ATOM     16  N   UNL     1      13.497   1.903   1.978  0.00  0.00    -0.204 NA
ATOM     17  H   UNL     1      14.468   2.391   2.146  0.00  0.00    +0.144 HD
ATOM     18  H   UNL     1      13.559   1.258   1.089  0.00  0.00    +0.144 HD
ENDBRANCH  13  16
ENDBRANCH  10  13
ENDBRANCH   6   7
ENDBRANCH   4   6
ENDBRANCH   1   2
BRANCH   1  19
ATOM     19  N   UNL     1       2.410   1.041  -0.032  0.00  0.00    +0.389 N 
ATOM     20  C   UNL     1       2.439   0.276  -1.286  0.00  0.00    -0.095 C 
ATOM     21  H   UNL     1       2.270   0.330   0.795  0.00  0.00    -0.081 HD
BRANCH  19  22
ATOM     22  C   UNL     1       1.280   1.980  -0.015  0.00  0.00    +0.019 C 
BRANCH  22  24
ATOM     23  N   UNL     1      -1.191   1.867   0.018  0.00  0.00    -0.287 N 
ATOM     24  C   UNL     1      -0.014   1.209   0.005  0.00  0.00    +0.201 C 
ATOM     25  O   UNL     1       0.003  -0.004   0.005  0.00  0.00    -0.278 OA
ATOM     26  H   UNL     1      -1.207   2.963   0.109  0.00  0.00    +0.155 HD
BRANCH  23  33
ATOM     27  C   UNL     1      -3.546   3.040   1.100  0.00  0.00    +0.046 C 
ATOM     28  C   UNL     1      -3.564   1.691   0.428  0.00  0.00    -0.028 A 
ATOM     29  C   UNL     1      -4.749   0.989   0.320  0.00  0.00    +0.020 A 
ATOM     30  C   UNL     1      -4.765  -0.252  -0.291  0.00  0.00    +0.018 A 
ATOM     31  C   UNL     1      -3.597  -0.791  -0.800  0.00  0.00    +0.017 A 
ATOM     32  C   UNL     1      -2.411  -0.091  -0.699  0.00  0.00    +0.024 A 
ATOM     33  C   UNL     1      -2.391   1.155  -0.086  0.00  0.00    +0.036 A 
ATOM     34 BR   UNL     1      -6.387  -1.214  -0.431  0.00  0.00    -0.050 Br
ENDBRANCH  23  33
ENDBRANCH  22  24
ENDBRANCH  19  22
ENDBRANCH   1  19
TORSDOF 9
