REMARK  Name = ZINC34785309
REMARK  5 active torsions:
REMARK  status: ('A' for Active; 'I' for Inactive)
REMARK    1  A    between atoms: C_6  and  N_7
REMARK    2  A    between atoms: C_8  and  C_10
REMARK    3  A    between atoms: C_10  and  N_11
REMARK    4  A    between atoms: N_19  and  C_20
REMARK    5  A    between atoms: C_21  and  C_29
REMARK                            x       y       z     vdW  Elec       q    Type
REMARK                         _______ _______ _______ _____ _____    ______ ____
ROOT
ATOM      1  N   UNL     1      -2.196  -4.260  -0.320  0.00  0.00    +0.387 N 
ATOM      2  C   UNL     1      -1.475  -4.524  -1.571  0.00  0.00    -0.059 C 
ATOM      3  C   UNL     1      -1.075  -6.003  -1.627  0.00  0.00    +0.091 C 
ATOM      4  N   UNL     1      -2.284  -6.820  -1.438  0.00  0.00    -0.289 N 
ATOM      5  C   UNL     1      -3.156  -6.513  -0.294  0.00  0.00    +0.091 C 
ATOM      6  C   UNL     1      -3.458  -5.011  -0.301  0.00  0.00    -0.059 C 
ATOM      7  C   UNL     1      -2.584  -7.820  -2.290  0.00  0.00    +0.307 C 
ATOM      8  O   UNL     1      -1.807  -8.117  -3.177  0.00  0.00    -0.252 OA
ATOM      9  N   UNL     1      -3.745  -8.491  -2.159  0.00  0.00    -0.263 N 
ATOM     10  H   UNL     1      -4.331  -8.305  -1.409  0.00  0.00    +0.157 HD
ATOM     11  H   UNL     1      -1.625  -4.545   0.461  0.00  0.00    -0.081 HD
ENDROOT
BRANCH   9  12
ATOM     12  C   UNL     1      -4.104  -9.448  -3.099  0.00  0.00    +0.091 A 
ATOM     13  C   UNL     1      -5.251 -10.224  -3.129  0.00  0.00    +0.084 A 
ATOM     14  C   UNL     1      -5.391 -11.161  -4.230  0.00  0.00    -0.018 A 
ATOM     15  C   UNL     1      -4.357 -11.150  -5.099  0.00  0.00    -0.004 A 
ATOM     16  S   UNL     1      -3.250  -9.925  -4.464  0.00  0.00    -0.077 S 
ATOM     17  C   UNL     1      -4.205 -11.994  -6.327  0.00  0.00    +0.043 C 
ATOM     18  C   UNL     1      -5.219 -13.144  -6.250  0.00  0.00    +0.005 C 
ATOM     19  C   UNL     1      -6.590 -12.572  -5.879  0.00  0.00    +0.005 C 
ATOM     20  C   UNL     1      -6.579 -12.091  -4.426  0.00  0.00    +0.037 C 
BRANCH  13  21
ATOM     21  C   UNL     1      -6.256 -10.108  -2.116  0.00  0.00    +0.102 C 
ATOM     22  N   UNL     1      -7.054 -10.017  -1.313  0.00  0.00    -0.191 NA
ENDBRANCH  13  21
ENDBRANCH   9  12
BRANCH   1  23
ATOM     23  C   UNL     1      -2.482  -2.823  -0.216  0.00  0.00    +0.019 C 
BRANCH  23  25
ATOM     24  N   UNL     1      -1.204  -0.716  -0.005  0.00  0.00    -0.287 N 
ATOM     25  C   UNL     1      -1.187  -2.059  -0.111  0.00  0.00    +0.201 C 
ATOM     26  O   UNL     1      -0.130  -2.654  -0.122  0.00  0.00    -0.278 OA
ATOM     27  H   UNL     1      -2.049  -0.246   0.071  0.00  0.00    +0.155 HD
BRANCH  24  33
ATOM     28  C   UNL     1       0.061   1.252  -0.604  0.00  0.00    +0.024 A 
ATOM     29  C   UNL     1       1.249   1.958  -0.603  0.00  0.00    +0.017 A 
ATOM     30  C   UNL     1       2.374   1.419  -0.005  0.00  0.00    +0.018 A 
ATOM     31  C   UNL     1       2.314   0.173   0.592  0.00  0.00    +0.017 A 
ATOM     32  C   UNL     1       1.129  -0.537   0.593  0.00  0.00    +0.024 A 
ATOM     33  C   UNL     1      -0.002   0.001  -0.005  0.00  0.00    +0.033 A 
ATOM     34 BR   UNL     1       3.998   2.388  -0.005  0.00  0.00    -0.050 Br
ENDBRANCH  24  33
ENDBRANCH  23  25
ENDBRANCH   1  23
TORSDOF 5
