REMARK  Name = ZINC52637677
REMARK  11 active torsions:
REMARK  status: ('A' for Active; 'I' for Inactive)
REMARK    1  A    between atoms: C_1  and  C_2
REMARK    2  A    between atoms: C_2  and  C_3
REMARK    3  A    between atoms: C_2  and  C_4
REMARK    4  A    between atoms: C_2  and  C_5
REMARK    5  A    between atoms: C_5  and  N_6
REMARK    6  A    between atoms: C_12  and  C_15
REMARK    7  A    between atoms: C_16  and  C_25
REMARK    8  A    between atoms: C_18  and  C_21
REMARK    9  A    between atoms: C_21  and  C_22
REMARK   10  A    between atoms: C_21  and  C_23
REMARK   11  A    between atoms: C_21  and  C_24
REMARK                            x       y       z     vdW  Elec       q    Type
REMARK                         _______ _______ _______ _____ _____    ______ ____
ROOT
ATOM      1  C   UNL     1       4.523  -3.531   1.084  0.00  0.00    +0.113 A 
ATOM      2  C   UNL     1       3.761  -4.650   0.796  0.00  0.00    +0.078 A 
ATOM      3  N   UNL     1       4.143  -5.616   1.698  0.00  0.00    -0.341 N 
ATOM      4  C   UNL     1       5.103  -5.073   2.489  0.00  0.00    +0.114 A 
ATOM      5  N   UNL     1       5.327  -3.844   2.118  0.00  0.00    -0.230 NA
ATOM      6  H   UNL     1       3.791  -6.518   1.757  0.00  0.00    +0.167 HD
ENDROOT
BRANCH   1  13
ATOM      7  N   UNL     1       2.093   0.010  -1.267  0.00  0.00    -0.299 N 
ATOM      8  C   UNL     1       2.545   1.278  -1.851  0.00  0.00    +0.211 C 
ATOM      9  N   UNL     1       3.992   1.334  -1.610  0.00  0.00    -0.326 N 
ATOM     10  C   UNL     1       4.343   0.163  -0.927  0.00  0.00    +0.067 A 
ATOM     11  C   UNL     1       3.209  -0.622  -0.719  0.00  0.00    +0.122 A 
ATOM     12  N   UNL     1       3.308  -1.782  -0.081  0.00  0.00    -0.340 N 
ATOM     13  C   UNL     1       4.470  -2.231   0.379  0.00  0.00    +0.068 A 
ATOM     14  C   UNL     1       5.638  -1.493   0.206  0.00  0.00    +0.030 A 
ATOM     15  C   UNL     1       5.577  -0.282  -0.463  0.00  0.00    +0.028 A 
ATOM     16  H   UNL     1       4.593   2.049  -1.875  0.00  0.00    +0.148 HD
ATOM     17  H   UNL     1       2.509  -2.315   0.053  0.00  0.00    +0.167 HD
BRANCH   7  18
ATOM     18  C   UNL     1       0.718  -0.497  -1.257  0.00  0.00    +0.114 C 
BRANCH  18  20
ATOM     19  C   UNL     1      -0.019   1.526   0.010  0.00  0.00    +0.012 C 
ATOM     20  C   UNL     1       0.002  -0.004   0.002  0.00  0.00    -0.022 C 
ATOM     21  C   UNL     1       0.742  -0.511   1.242  0.00  0.00    +0.012 C 
ATOM     22  C   UNL     1      -1.433  -0.534   0.013  0.00  0.00    +0.012 C 
ENDBRANCH  18  20
ENDBRANCH   7  18
ENDBRANCH   1  13
BRANCH   2  23
ATOM     23  C   UNL     1       2.743  -4.780  -0.264  0.00  0.00    +0.036 A 
ATOM     24  C   UNL     1       1.401  -4.973   0.072  0.00  0.00    +0.015 A 
ATOM     25  C   UNL     1       0.454  -5.093  -0.923  0.00  0.00    +0.039 A 
ATOM     26  C   UNL     1       0.830  -5.024  -2.255  0.00  0.00    +0.126 A 
ATOM     27  C   UNL     1       2.159  -4.833  -2.597  0.00  0.00    +0.077 A 
ATOM     28  C   UNL     1       3.117  -4.705  -1.610  0.00  0.00    +0.135 A 
ATOM     29  F   UNL     1       4.412  -4.513  -1.943  0.00  0.00    -0.205 F 
ATOM     30  F   UNL     1      -0.103  -5.144  -3.225  0.00  0.00    -0.205 F 
ENDBRANCH   2  23
BRANCH   4  31
ATOM     31  C   UNL     1       5.804  -5.784   3.618  0.00  0.00    +0.020 C 
ATOM     32  C   UNL     1       6.822  -6.772   3.045  0.00  0.00    +0.018 C 
ATOM     33  C   UNL     1       6.526  -4.759   4.495  0.00  0.00    +0.018 C 
ATOM     34  C   UNL     1       4.776  -6.541   4.461  0.00  0.00    +0.018 C 
ENDBRANCH   4  31
TORSDOF 5
