REMARK  Name = ZINC63386724
REMARK  6 active torsions:
REMARK  status: ('A' for Active; 'I' for Inactive)
REMARK    1  A    between atoms: C_10  and  C_15
REMARK    2  A    between atoms: C_15  and  C_16
REMARK    3  A    between atoms: C_16  and  C_17
REMARK    4  A    between atoms: N_19  and  C_20
REMARK    5  A    between atoms: C_20  and  C_21
REMARK    6  A    between atoms: C_21  and  C_22
REMARK                            x       y       z     vdW  Elec       q    Type
REMARK                         _______ _______ _______ _____ _____    ______ ____
ROOT
ATOM      1  C   UNL     1       1.472  -2.171  -3.556  0.00  0.00    +0.098 C 
ENDROOT
BRANCH   1   2
ATOM      2  C   UNL     1       0.859  -1.211  -4.542  0.00  0.00    +0.213 C 
ATOM      3  O   UNL     1       1.132  -0.030  -4.490  0.00  0.00    -0.276 OA
ATOM      4  N   UNL     1       0.006  -1.664  -5.483  0.00  0.00    -0.315 N 
ATOM      5  H   UNL     1      -0.212  -2.608  -5.524  0.00  0.00    +0.149 HD
BRANCH   4   6
ATOM      6  C   UNL     1      -0.590  -0.731  -6.441  0.00  0.00    +0.108 C 
BRANCH   6   7
ATOM      7  C   UNL     1      -1.512  -1.496  -7.392  0.00  0.00    +0.052 C 
BRANCH   7   8
ATOM      8  C   UNL     1      -2.126  -0.536  -8.379  0.00  0.00    -0.040 C 
ATOM      9  C   UNL     1      -1.680  -0.255  -9.624  0.00  0.00    +0.000 A 
ATOM     10  C   UNL     1      -0.535  -0.740 -10.403  0.00  0.00    +0.030 A 
ATOM     11  C   UNL     1      -0.343  -0.262 -11.655  0.00  0.00    +0.042 A 
ATOM     12  C   UNL     1      -1.209   0.684 -12.224  0.00  0.00    +0.022 A 
ATOM     13  C   UNL     1      -2.282   1.176 -11.569  0.00  0.00    +0.027 A 
ATOM     14  C   UNL     1      -2.579   0.742 -10.248  0.00  0.00    +0.043 A 
ATOM     15  N   UNL     1      -3.543   1.065  -9.420  0.00  0.00    -0.380 N 
ATOM     16  C   UNL     1      -3.368   0.303  -8.178  0.00  0.00    +0.144 C 
ATOM     17 CL   UNL     1       1.011  -0.832 -12.580  0.00  0.00    -0.084 Cl
ATOM     18  H   UNL     1      -4.255   1.698  -9.600  0.00  0.00    +0.160 HD
ENDBRANCH   7   8
ENDBRANCH   6   7
ENDBRANCH   4   6
ENDBRANCH   1   2
BRANCH   1  19
ATOM     19  C   UNL     1       2.395  -1.405  -2.605  0.00  0.00    +0.041 C 
BRANCH  19  29
ATOM     20  C   UNL     1      -0.017   1.370   0.010  0.00  0.00    +0.001 A 
ATOM     21  C   UNL     1       1.173   2.080   0.002  0.00  0.00    +0.002 A 
ATOM     22  C   UNL     1       2.377   1.413  -0.011  0.00  0.00    +0.024 A 
ATOM     23  C   UNL     1       2.418   0.016  -0.018  0.00  0.00    +0.046 A 
ATOM     24  C   UNL     1       1.222  -0.701  -0.013  0.00  0.00    +0.058 A 
ATOM     25  C   UNL     1       0.002  -0.004   0.002  0.00  0.00    +0.015 A 
ATOM     26  C   UNL     1       1.166  -2.168  -0.030  0.00  0.00    +0.246 C 
ATOM     27  O   UNL     1       0.328  -2.710   0.664  0.00  0.00    -0.270 OA
ATOM     28  N   UNL     1       1.970  -2.945  -0.753  0.00  0.00    -0.300 N 
ATOM     29  C   UNL     1       3.018  -2.380  -1.604  0.00  0.00    +0.160 C 
ATOM     30  C   UNL     1       4.008  -1.651  -0.737  0.00  0.00    +0.238 C 
ATOM     31  O   UNL     1       5.152  -2.051  -0.686  0.00  0.00    -0.273 OA
ATOM     32  N   UNL     1       3.665  -0.582  -0.025  0.00  0.00    -0.283 N 
ATOM     33  H   UNL     1       1.858  -3.908  -0.715  0.00  0.00    +0.150 HD
ATOM     34  H   UNL     1       4.349  -0.188   0.539  0.00  0.00    +0.155 HD
ENDBRANCH  19  29
ENDBRANCH   1  19
TORSDOF 6
