REMARK  Name = ZINC07875365
REMARK  15 active torsions:
REMARK  status: ('A' for Active; 'I' for Inactive)
REMARK    1  A    between atoms: C_1  and  C_2
REMARK    2  A    between atoms: C_2  and  C_3
REMARK    3  A    between atoms: C_2  and  C_4
REMARK    4  A    between atoms: C_4  and  C_5
REMARK    5  A    between atoms: C_8  and  C_11
REMARK    6  A    between atoms: C_11  and  C_13
REMARK    7  A    between atoms: C_11  and  N_62
REMARK    8  A    between atoms: C_13  and  C_14
REMARK    9  A    between atoms: C_13  and  C_15
REMARK   10  A    between atoms: C_16  and  C_18
REMARK   11  A    between atoms: C_16  and  C_19
REMARK   12  A    between atoms: C_16  and  N_62
REMARK   13  A    between atoms: N_21  and  C_22
REMARK   14  A    between atoms: C_25  and  S_28
REMARK   15  A    between atoms: S_28  and  N_31
REMARK                            x       y       z     vdW  Elec       q    Type
REMARK                         _______ _______ _______ _____ _____    ______ ____
ROOT
ATOM      1  C   UNL     1      -4.095   4.808   5.481  0.00  0.00    +0.014 C 
ATOM      2  C   UNL     1      -5.389   4.619   4.686  0.00  0.00    -0.004 C 
ENDROOT
BRANCH   1   3
ATOM      3  C   UNL     1      -3.945   6.259   5.859  0.00  0.00    +0.203 C 
ATOM      4  O   UNL     1      -2.980   6.888   5.481  0.00  0.00    -0.277 OA
ATOM      5  N   UNL     1      -4.884   6.857   6.619  0.00  0.00    -0.287 N 
ATOM      6  H   UNL     1      -5.688   6.375   6.866  0.00  0.00    +0.155 HD
BRANCH   5   7
ATOM      7  C   UNL     1      -4.698   8.175   7.052  0.00  0.00    +0.033 A 
ATOM      8  C   UNL     1      -5.163   8.570   8.299  0.00  0.00    +0.025 A 
ATOM      9  C   UNL     1      -4.973   9.870   8.726  0.00  0.00    +0.030 A 
ATOM     10  C   UNL     1      -4.331  10.781   7.907  0.00  0.00    +0.105 A 
ATOM     11  C   UNL     1      -3.872  10.392   6.662  0.00  0.00    +0.030 A 
ATOM     12  C   UNL     1      -4.054   9.092   6.232  0.00  0.00    +0.025 A 
BRANCH  10  13
ATOM     13  S   UNL     1      -4.097  12.440   8.452  0.00  0.00    +0.056 S 
ATOM     14  O   UNL     1      -4.131  12.410   9.872  0.00  0.00    -0.153 OA
ATOM     15  O   UNL     1      -2.987  12.952   7.727  0.00  0.00    -0.153 OA
BRANCH  13  16
ATOM     16  N   UNL     1      -5.421  13.307   7.965  0.00  0.00    -0.204 NA
ATOM     17  H   UNL     1      -6.134  12.869   7.474  0.00  0.00    +0.144 HD
ATOM     18  H   UNL     1      -5.484  14.253   8.170  0.00  0.00    +0.144 HD
ENDBRANCH  13  16
ENDBRANCH  10  13
ENDBRANCH   5   7
ENDBRANCH   1   3
BRANCH   1  19
ATOM     19  N   UNL     1      -2.944   4.403   4.651  0.00  0.00    +0.391 N 
ATOM     20  H   UNL     1      -3.130   4.648   3.671  0.00  0.00    -0.084 HD
ATOM     21  H   UNL     1      -2.104   4.896   4.974  0.00  0.00    -0.084 HD
BRANCH  19  22
ATOM     22  C   UNL     1      -2.725   2.948   4.755  0.00  0.00    -0.037 C 
BRANCH  22  26
ATOM     23  C   UNL     1      -0.717   1.578   1.242  0.00  0.00    -0.047 A 
ATOM     24  C   UNL     1      -0.356   2.781   1.820  0.00  0.00    +0.004 A 
ATOM     25  C   UNL     1      -1.009   3.226   2.954  0.00  0.00    +0.002 A 
ATOM     26  C   UNL     1      -2.017   2.465   3.516  0.00  0.00    -0.061 A 
ATOM     27  C   UNL     1      -2.374   1.260   2.941  0.00  0.00    +0.002 A 
ATOM     28  C   UNL     1      -1.724   0.816   1.804  0.00  0.00    +0.004 A 
BRANCH  23  29
ATOM     29  C   UNL     1      -0.008   1.095   0.004  0.00  0.00    +0.038 C 
BRANCH  29  31
ATOM     30  C   UNL     1       0.047   1.225  -2.491  0.00  0.00    +0.007 C 
ATOM     31  C   UNL     1      -0.741   1.610  -1.237  0.00  0.00    -0.013 C 
ATOM     32  C   UNL     1      -2.137   0.988  -1.300  0.00  0.00    +0.007 C 
ENDBRANCH  29  31
ENDBRANCH  23  29
ENDBRANCH  22  26
BRANCH  22  33
ATOM     33  C   UNL     1      -1.865   2.648   5.984  0.00  0.00    -0.027 C 
ATOM     34  C   UNL     1      -1.630   1.139   6.086  0.00  0.00    +0.006 C 
ATOM     35  C   UNL     1      -0.520   3.365   5.853  0.00  0.00    +0.006 C 
ENDBRANCH  22  33
ENDBRANCH  19  22
ENDBRANCH   1  19
TORSDOF 10
