REMARK  Name = ZINC43250529
REMARK  8 active torsions:
REMARK  status: ('A' for Active; 'I' for Inactive)
REMARK    1  A    between atoms: C_1  and  S_2
REMARK    2  A    between atoms: S_2  and  C_3
REMARK    3  A    between atoms: C_3  and  C_4
REMARK    4  A    between atoms: C_4  and  C_5
REMARK    5  A    between atoms: C_5  and  C_7
REMARK    6  A    between atoms: C_5  and  N_25
REMARK    7  A    between atoms: C_9  and  C_12
REMARK    8  A    between atoms: N_14  and  C_15
REMARK                            x       y       z     vdW  Elec       q    Type
REMARK                         _______ _______ _______ _____ _____    ______ ____
ROOT
ATOM      1  C   UNL     1       1.744  -3.825   3.089  0.00  0.00    +0.065 A 
ATOM      2  N   UNL     1       1.032  -4.529   3.926  0.00  0.00    -0.241 NA
ATOM      3  C   UNL     1       1.176  -5.858   3.920  0.00  0.00    +0.133 A 
ATOM      4  C   UNL     1       2.074  -6.362   3.017  0.00  0.00    +0.079 A 
ATOM      5  S   UNL     1       2.636  -4.976   2.254  0.00  0.00    -0.081 S 
ENDROOT
BRANCH   3   6
ATOM      6  C   UNL     1       0.414  -6.729   4.830  0.00  0.00    +0.263 C 
ATOM      7  O   UNL     1       0.572  -7.934   4.794  0.00  0.00    -0.268 OA
ATOM      8  N   UNL     1      -0.460  -6.190   5.704  0.00  0.00    -0.305 N 
ATOM      9  H   UNL     1      -0.587  -5.229   5.733  0.00  0.00    +0.150 HD
BRANCH   8  10
ATOM     10  C   UNL     1      -1.219  -7.056   6.609  0.00  0.00    +0.036 C 
ATOM     11  C   UNL     1      -0.249  -7.843   7.494  0.00  0.00    +0.029 C 
ATOM     12  C   UNL     1      -1.041  -8.748   8.440  0.00  0.00    -0.008 C 
ATOM     13  C   UNL     1      -1.954  -7.891   9.320  0.00  0.00    +0.007 C 
ATOM     14  C   UNL     1      -2.923  -7.105   8.435  0.00  0.00    -0.008 C 
ATOM     15  C   UNL     1      -2.131  -6.200   7.489  0.00  0.00    +0.029 C 
ATOM     16  C   UNL     1      -3.772  -8.079   7.617  0.00  0.00    +0.007 C 
ATOM     17  C   UNL     1      -2.860  -8.936   6.737  0.00  0.00    -0.008 C 
ATOM     18  C   UNL     1      -1.890  -9.723   7.622  0.00  0.00    +0.007 C 
ATOM     19  C   UNL     1      -2.068  -8.031   5.791  0.00  0.00    +0.029 C 
ENDBRANCH   8  10
ENDBRANCH   3   6
BRANCH   1  20
ATOM     20  C   UNL     1       1.757  -2.329   2.909  0.00  0.00    -0.017 C 
BRANCH  20  21
ATOM     21  N   UNL     1       3.145  -1.860   2.805  0.00  0.00    +0.384 N 
ATOM     22  H   UNL     1       3.154  -0.858   2.685  0.00  0.00    -0.089 HD
ATOM     23  H   UNL     1       3.646  -2.102   3.647  0.00  0.00    -0.089 HD
ATOM     24  H   UNL     1       3.589  -2.297   2.012  0.00  0.00    -0.089 HD
ENDBRANCH  20  21
BRANCH  20  25
ATOM     25  C   UNL     1       0.997  -1.962   1.633  0.00  0.00    +0.001 C 
BRANCH  25  26
ATOM     26  C   UNL     1       0.902  -0.439   1.516  0.00  0.00    +0.067 C 
BRANCH  26  28
ATOM     27  C   UNL     1      -0.022   1.810   0.012  0.00  0.00    +0.084 C 
ATOM     28  S   UNL     1       0.002  -0.004   0.002  0.00  0.00    -0.164 S 
ENDBRANCH  26  28
ENDBRANCH  25  26
ENDBRANCH  20  25
ENDBRANCH   1  20
TORSDOF 7
