REMARK  Name = ZINC44686716
REMARK  5 active torsions:
REMARK  status: ('A' for Active; 'I' for Inactive)
REMARK    1  A    between atoms: C_5  and  S_8
REMARK    2  A    between atoms: C_6  and  N_7
REMARK    3  A    between atoms: S_8  and  N_11
REMARK    4  A    between atoms: N_11  and  C_12
REMARK    5  A    between atoms: N_16  and  C_18
REMARK                            x       y       z     vdW  Elec       q    Type
REMARK                         _______ _______ _______ _____ _____    ______ ____
ROOT
ATOM      1  S   UNL     1       1.014  -2.278  -0.991  0.00  0.00    +0.061 S 
ATOM      2  O   UNL     1      -0.355  -2.531  -1.275  0.00  0.00    -0.153 OA
ATOM      3  O   UNL     1       2.037  -2.447  -1.962  0.00  0.00    -0.153 OA
ENDROOT
BRANCH   1   8
ATOM      4  C   UNL     1       0.056   1.364   0.440  0.00  0.00    +0.040 A 
ATOM      5  C   UNL     1       1.273   2.019   0.427  0.00  0.00    +0.021 A 
ATOM      6  C   UNL     1       2.408   1.364  -0.018  0.00  0.00    +0.032 A 
ATOM      7  C   UNL     1       2.328   0.052  -0.450  0.00  0.00    +0.047 A 
ATOM      8  C   UNL     1       1.114  -0.608  -0.439  0.00  0.00    +0.140 A 
ATOM      9  C   UNL     1      -0.027   0.047   0.006  0.00  0.00    +0.053 A 
ATOM     10 BR   UNL     1       3.882  -0.838  -1.058  0.00  0.00    -0.048 Br
ATOM     11 BR   UNL     1       1.387   3.812   1.017  0.00  0.00    -0.050 Br
BRANCH   9  12
ATOM     12  N   UNL     1      -1.255  -0.618   0.018  0.00  0.00    -0.356 N 
ATOM     13  H   UNL     1      -2.080  -0.114  -0.059  0.00  0.00    +0.142 HD
ATOM     14  H   UNL     1      -1.283  -1.584   0.104  0.00  0.00    +0.142 HD
ENDBRANCH   9  12
ENDBRANCH   1   8
BRANCH   1  15
ATOM     15  N   UNL     1       1.417  -3.243   0.293  0.00  0.00    -0.189 NA
ATOM     16  H   UNL     1       2.218  -3.789   0.258  0.00  0.00    +0.148 HD
BRANCH  15  17
ATOM     17  C   UNL     1       0.562  -3.273   1.483  0.00  0.00    +0.058 C 
ATOM     18  C   UNL     1       1.129  -2.336   2.574  0.00  0.00    -0.000 C 
ATOM     19  C   UNL     1       0.884  -3.135   3.879  0.00  0.00    -0.077 C 
ATOM     20  N   UNL     1       1.144  -4.540   3.471  0.00  0.00    +0.383 N 
ATOM     21  C   UNL     1       0.571  -4.678   2.112  0.00  0.00    -0.058 C 
ATOM     22  H   UNL     1       2.136  -4.718   3.451  0.00  0.00    -0.081 HD
BRANCH  20  23
ATOM     23  C   UNL     1       0.479  -5.467   4.396  0.00  0.00    -0.069 C 
ATOM     24  C   UNL     1       1.370  -6.340   5.283  0.00  0.00    -0.017 C 
ATOM     25  C   UNL     1       0.611  -6.965   4.111  0.00  0.00    -0.017 C 
ENDBRANCH  20  23
ENDBRANCH  15  17
ENDBRANCH   1  15
TORSDOF 5
