REMARK  Name = ZINC63089641
REMARK  10 active torsions:
REMARK  status: ('A' for Active; 'I' for Inactive)
REMARK    1  A    between atoms: C_1  and  C_2
REMARK    2  A    between atoms: C_2  and  C_4
REMARK    3  A    between atoms: C_2  and  N_9
REMARK    4  A    between atoms: C_4  and  C_5
REMARK    5  A    between atoms: N_6  and  O_7
REMARK    6  A    between atoms: N_9  and  C_10
REMARK    7  A    between atoms: N_9  and  C_11
REMARK    8  A    between atoms: C_11  and  C_12
REMARK    9  A    between atoms: C_15  and  O_19
REMARK   10  A    between atoms: O_19  and  C_20
REMARK                            x       y       z     vdW  Elec       q    Type
REMARK                         _______ _______ _______ _____ _____    ______ ____
ROOT
ATOM      1  N   UNL     1       0.589  -0.528  -1.393  0.00  0.00    +0.382 N 
ATOM      2  C   UNL     1      -0.071   0.339  -2.379  0.00  0.00    -0.095 C 
ATOM      3  H   UNL     1       1.590  -0.456  -1.500  0.00  0.00    -0.081 HD
ENDROOT
BRANCH   1   5
ATOM      4  C   UNL     1       0.538   1.376   0.146  0.00  0.00    -0.013 C 
ATOM      5  C   UNL     1       0.209  -0.106  -0.038  0.00  0.00    -0.065 C 
BRANCH   5   6
ATOM      6  C   UNL     1       0.985  -0.933   0.989  0.00  0.00    +0.059 C 
BRANCH   6   7
ATOM      7  C   UNL     1       0.487  -0.609   2.374  0.00  0.00    +0.130 C 
ATOM      8  N   UNL     1      -0.530   0.172   2.528  0.00  0.00    -0.077 NA
ATOM      9  N   UNL     1       1.117  -1.144   3.475  0.00  0.00    -0.344 N 
ATOM     10  H   UNL     1       1.881  -1.730   3.359  0.00  0.00    +0.143 HD
ATOM     11  H   UNL     1       0.797  -0.935   4.367  0.00  0.00    +0.143 HD
BRANCH   8  12
ATOM     12  O   UNL     1      -0.998   0.477   3.830  0.00  0.00    -0.408 OA
ATOM     13  H   UNL     1      -1.763   1.068   3.844  0.00  0.00    +0.328 HD
ENDBRANCH   8  12
ENDBRANCH   6   7
ENDBRANCH   5   6
ENDBRANCH   1   5
BRANCH   1  14
ATOM     14  C   UNL     1       0.172  -1.920  -1.608  0.00  0.00    -0.043 C 
BRANCH  14  15
ATOM     15  C   UNL     1       0.686  -2.398  -2.942  0.00  0.00    -0.063 A 
ATOM     16  C   UNL     1      -0.083  -2.229  -4.079  0.00  0.00    +0.005 A 
ATOM     17  C   UNL     1       0.385  -2.666  -5.303  0.00  0.00    +0.047 A 
ATOM     18  C   UNL     1       1.628  -3.275  -5.391  0.00  0.00    +0.134 A 
ATOM     19  C   UNL     1       2.399  -3.443  -4.250  0.00  0.00    +0.060 A 
ATOM     20  C   UNL     1       1.928  -2.999  -3.028  0.00  0.00    +0.020 A 
ATOM     21 BR   UNL     1       4.094  -4.273  -4.365  0.00  0.00    -0.047 Br
BRANCH  18  22
ATOM     22  O   UNL     1       2.090  -3.707  -6.594  0.00  0.00    -0.494 OA
ATOM     23  C   UNL     1       1.243  -3.501  -7.727  0.00  0.00    +0.277 C 
ENDBRANCH  18  22
ENDBRANCH  14  15
ENDBRANCH   1  14
TORSDOF 7
