REMARK  Name = ZINC29483772
REMARK  10 active torsions:
REMARK  status: ('A' for Active; 'I' for Inactive)
REMARK    1  A    between atoms: C_1  and  C_2
REMARK    2  A    between atoms: C_2  and  O_3
REMARK    3  A    between atoms: O_3  and  C_4
REMARK    4  A    between atoms: C_7  and  N_10
REMARK    5  A    between atoms: C_11  and  C_13
REMARK    6  A    between atoms: C_16  and  N_19
REMARK    7  A    between atoms: C_20  and  C_22
REMARK    8  A    between atoms: C_22  and  N_23
REMARK    9  A    between atoms: N_23  and  C_24
REMARK   10  A    between atoms: N_23  and  C_25
REMARK                            x       y       z     vdW  Elec       q    Type
REMARK                         _______ _______ _______ _____ _____    ______ ____
ROOT
ATOM      1  C   UNL     1       1.855   2.358  -9.546  0.00  0.00    +0.037 A 
ATOM      2  C   UNL     1       0.482   2.611  -9.608  0.00  0.00    +0.015 A 
ATOM      3  C   UNL     1      -0.254   2.695  -8.447  0.00  0.00    +0.024 A 
ATOM      4  C   UNL     1       0.368   2.529  -7.213  0.00  0.00    +0.033 A 
ATOM      5  C   UNL     1       1.736   2.283  -7.148  0.00  0.00    +0.024 A 
ATOM      6  C   UNL     1       2.477   2.192  -8.305  0.00  0.00    +0.015 A 
ENDROOT
BRANCH   1   8
ATOM      7  N   UNL     1       3.971   2.024 -10.727  0.00  0.00    -0.281 N 
ATOM      8  C   UNL     1       2.647   2.268 -10.788  0.00  0.00    +0.248 C 
ATOM      9  O   UNL     1       2.104   2.413 -11.867  0.00  0.00    -0.270 OA
ATOM     10  H   UNL     1       4.445   1.803  -9.760  0.00  0.00    +0.155 HD
BRANCH   7  14
ATOM     11  C   UNL     1       6.269   2.112 -14.204  0.00  0.00    +0.121 A 
ATOM     12  C   UNL     1       5.198   2.981 -14.059  0.00  0.00    +0.047 A 
ATOM     13  C   UNL     1       4.436   2.953 -12.908  0.00  0.00    +0.027 A 
ATOM     14  C   UNL     1       4.743   2.054 -11.895  0.00  0.00    +0.034 A 
ATOM     15  C   UNL     1       5.818   1.187 -12.039  0.00  0.00    +0.027 A 
ATOM     16  C   UNL     1       6.576   1.213 -13.193  0.00  0.00    +0.047 A 
BRANCH  11  17
ATOM     17  O   UNL     1       7.019   2.140 -15.338  0.00  0.00    -0.492 OA
BRANCH  17  19
ATOM     18  C   UNL     1       8.827   1.396 -16.758  0.00  0.00    +0.048 C 
ATOM     19  C   UNL     1       8.106   1.217 -15.421  0.00  0.00    +0.225 C 
ENDBRANCH  17  19
ENDBRANCH  11  17
ENDBRANCH   7  14
ENDBRANCH   1   8
BRANCH   4  20
ATOM     20  N   UNL     1      -0.380   2.615  -6.040  0.00  0.00    -0.287 N 
ATOM     21  C   UNL     1      -0.074   1.831  -4.987  0.00  0.00    +0.201 C 
ATOM     22  O   UNL     1       0.899   1.109  -5.031  0.00  0.00    -0.278 OA
ATOM     23  H   UNL     1      -1.219   3.323  -5.973  0.00  0.00    +0.155 HD
BRANCH  21  24
ATOM     24  C   UNL     1      -0.943   1.851  -3.756  0.00  0.00    +0.019 C 
BRANCH  24  25
ATOM     25  N   UNL     1      -0.402   0.916  -2.760  0.00  0.00    +0.388 N 
ATOM     26  C   UNL     1       0.837   1.437  -2.167  0.00  0.00    -0.095 C 
ATOM     27  H   UNL     1      -0.160  -0.025  -3.276  0.00  0.00    -0.081 HD
BRANCH  25  28
ATOM     28  C   UNL     1      -1.398   0.619  -1.722  0.00  0.00    -0.037 C 
ATOM     29  C   UNL     1      -1.906   1.926  -1.077  0.00  0.00    -0.006 C 
ATOM     30  C   UNL     1      -3.386   1.601  -0.781  0.00  0.00    +0.034 C 
ATOM     31  C   UNL     1      -3.765   0.538  -1.794  0.00  0.00    -0.046 A 
ATOM     32  C   UNL     1      -2.623  -0.024  -2.335  0.00  0.00    -0.058 A 
ATOM     33  C   UNL     1      -2.732  -1.020  -3.290  0.00  0.00    +0.002 A 
ATOM     34  C   UNL     1      -3.976  -1.454  -3.704  0.00  0.00    +0.000 A 
ATOM     35  C   UNL     1      -5.117  -0.893  -3.164  0.00  0.00    +0.000 A 
ATOM     36  C   UNL     1      -5.012   0.102  -2.211  0.00  0.00    +0.004 A 
ENDBRANCH  25  28
ENDBRANCH  24  25
ENDBRANCH  21  24
ENDBRANCH   4  20
TORSDOF 8
