REMARK  Name = ZINC36389649
REMARK  6 active torsions:
REMARK  status: ('A' for Active; 'I' for Inactive)
REMARK    1  A    between atoms: C_1  and  C_2
REMARK    2  A    between atoms: C_2  and  C_3
REMARK    3  A    between atoms: C_2  and  N_15
REMARK    4  A    between atoms: N_5  and  C_6
REMARK    5  A    between atoms: C_9  and  C_12
REMARK    6  A    between atoms: C_19  and  C_20
REMARK                            x       y       z     vdW  Elec       q    Type
REMARK                         _______ _______ _______ _____ _____    ______ ____
ROOT
ATOM      1  C   UNL     1       0.900  -0.368  -1.218  0.00  0.00    -0.004 C 
ATOM      2  C   UNL     1      -0.008  -0.068  -0.023  0.00  0.00    +0.017 C 
ENDROOT
BRANCH   2   3
ATOM      3  N   UNL     1       0.608  -0.593   1.203  0.00  0.00    +0.392 N 
ATOM      4  C   UNL     1       1.982  -0.075   1.330  0.00  0.00    -0.077 C 
ATOM      5  C   UNL     1       2.928  -1.293   1.369  0.00  0.00    -0.020 C 
ATOM      6  C   UNL     1       1.998  -2.444   1.834  0.00  0.00    -0.013 C 
ATOM      7  C   UNL     1       0.665  -2.069   1.138  0.00  0.00    -0.037 C 
ATOM      8  H   UNL     1       0.064  -0.309   2.005  0.00  0.00    -0.080 HD
BRANCH   7   9
ATOM      9  C   UNL     1      -0.501  -2.673   1.878  0.00  0.00    -0.057 A 
ATOM     10  C   UNL     1      -0.922  -2.116   3.071  0.00  0.00    +0.006 A 
ATOM     11  C   UNL     1      -1.992  -2.665   3.755  0.00  0.00    +0.049 A 
ATOM     12  C   UNL     1      -2.641  -3.775   3.240  0.00  0.00    +0.162 A 
ATOM     13  C   UNL     1      -2.217  -4.333   2.042  0.00  0.00    +0.162 A 
ATOM     14  C   UNL     1      -1.149  -3.779   1.357  0.00  0.00    +0.051 A 
ATOM     15  O   UNL     1      -2.864  -5.426   1.542  0.00  0.00    -0.488 OA
ATOM     16  C   UNL     1      -2.708  -6.637   2.283  0.00  0.00    +0.232 C 
ATOM     17  C   UNL     1      -3.711  -6.705   3.424  0.00  0.00    +0.082 C 
ATOM     18  C   UNL     1      -3.478  -5.621   4.465  0.00  0.00    +0.232 C 
ATOM     19  O   UNL     1      -3.698  -4.325   3.904  0.00  0.00    -0.488 OA
ENDBRANCH   7   9
ENDBRANCH   2   3
BRANCH   2  20
ATOM     20  C   UNL     1      -0.192   1.422   0.106  0.00  0.00    +0.203 C 
ATOM     21  O   UNL     1       0.253   2.007   1.071  0.00  0.00    -0.277 OA
ATOM     22  N   UNL     1      -0.850   2.105  -0.852  0.00  0.00    -0.287 N 
ATOM     23  H   UNL     1      -1.142   1.651  -1.658  0.00  0.00    +0.155 HD
BRANCH  22  24
ATOM     24  C   UNL     1      -1.111   3.465  -0.684  0.00  0.00    +0.033 A 
ATOM     25  C   UNL     1      -0.183   4.275  -0.038  0.00  0.00    +0.024 A 
ATOM     26  C   UNL     1      -0.438   5.617   0.129  0.00  0.00    +0.015 A 
ATOM     27  C   UNL     1      -1.629   6.166  -0.352  0.00  0.00    +0.037 A 
ATOM     28  C   UNL     1      -2.559   5.349  -1.001  0.00  0.00    +0.015 A 
ATOM     29  C   UNL     1      -2.296   4.009  -1.169  0.00  0.00    +0.024 A 
BRANCH  27  30
ATOM     30  C   UNL     1      -1.906   7.605  -0.174  0.00  0.00    +0.242 C 
ATOM     31  O   UNL     1      -1.096   8.314   0.392  0.00  0.00    -0.270 OA
ATOM     32  N   UNL     1      -3.056   8.133  -0.638  0.00  0.00    -0.325 N 
ATOM     33  H   UNL     1      -3.702   7.567  -1.089  0.00  0.00    +0.145 HD
ATOM     34  H   UNL     1      -3.238   9.079  -0.521  0.00  0.00    +0.145 HD
ENDBRANCH  27  30
ENDBRANCH  22  24
ENDBRANCH   2  20
TORSDOF 5
