REMARK  Name = ZINC50577161
REMARK  10 active torsions:
REMARK  status: ('A' for Active; 'I' for Inactive)
REMARK    1  A    between atoms: C_1  and  N_2
REMARK    2  A    between atoms: N_2  and  C_3
REMARK    3  A    between atoms: N_2  and  C_4
REMARK    4  A    between atoms: C_4  and  C_5
REMARK    5  A    between atoms: C_4  and  C_20
REMARK    6  A    between atoms: C_5  and  N_6
REMARK    7  A    between atoms: C_7  and  C_9
REMARK    8  A    between atoms: C_9  and  N_10
REMARK    9  A    between atoms: N_13  and  C_14
REMARK   10  A    between atoms: C_14  and  C_15
REMARK                            x       y       z     vdW  Elec       q    Type
REMARK                         _______ _______ _______ _____ _____    ______ ____
ROOT
ATOM      1  N   UNL     1      -0.871  -2.414   1.123  0.00  0.00    -0.316 N 
ATOM      2  C   UNL     1      -0.780  -3.743   1.332  0.00  0.00    +0.230 C 
ATOM      3  O   UNL     1      -1.308  -4.515   0.560  0.00  0.00    -0.274 OA
ATOM      4  H   UNL     1      -0.448  -1.797   1.741  0.00  0.00    +0.149 HD
ENDROOT
BRANCH   1   5
ATOM      5  C   UNL     1      -1.607  -1.903  -0.035  0.00  0.00    +0.089 C 
BRANCH   5   6
ATOM      6  C   UNL     1      -1.399  -0.392  -0.146  0.00  0.00    -0.049 C 
BRANCH   6   7
ATOM      7  C   UNL     1      -2.352   0.179  -1.198  0.00  0.00    -0.023 C 
ATOM      8  C   UNL     1      -2.066   1.669  -1.390  0.00  0.00    +0.002 C 
ATOM      9  C   UNL     1      -3.019   2.240  -2.443  0.00  0.00    +0.000 C 
ATOM     10  C   UNL     1      -4.464   2.054  -1.976  0.00  0.00    +0.000 C 
ATOM     11  C   UNL     1      -4.750   0.563  -1.784  0.00  0.00    +0.000 C 
ATOM     12  C   UNL     1      -3.797  -0.007  -0.732  0.00  0.00    +0.002 C 
ENDBRANCH   6   7
BRANCH   6  14
ATOM     13  C   UNL     1       0.904  -0.660   0.472  0.00  0.00    -0.096 C 
ATOM     14  N   UNL     1      -0.011  -0.116  -0.541  0.00  0.00    +0.379 N 
ATOM     15  C   UNL     1       0.263  -0.748  -1.839  0.00  0.00    -0.096 C 
ATOM     16  H   UNL     1       0.125   0.881  -0.617  0.00  0.00    -0.082 HD
ENDBRANCH   6  14
ENDBRANCH   5   6
ENDBRANCH   1   5
BRANCH   2  17
ATOM     17  C   UNL     1      -0.022  -4.269   2.524  0.00  0.00    +0.201 C 
BRANCH  17  18
ATOM     18  N   UNL     1      -0.071  -5.733   2.526  0.00  0.00    -0.291 N 
ATOM     19  C   UNL     1       0.543  -6.426   3.506  0.00  0.00    +0.300 C 
ATOM     20  O   UNL     1       1.137  -5.835   4.388  0.00  0.00    -0.253 OA
ATOM     21  N   UNL     1       0.499  -7.773   3.508  0.00  0.00    -0.299 N 
ATOM     22  H   UNL     1      -0.544  -6.204   1.823  0.00  0.00    +0.151 HD
ATOM     23  H   UNL     1       0.025  -8.243   2.805  0.00  0.00    +0.150 HD
BRANCH  21  24
ATOM     24  C   UNL     1       1.166  -8.526   4.573  0.00  0.00    +0.109 C 
BRANCH  24  25
ATOM     25  C   UNL     1       0.964 -10.025   4.341  0.00  0.00    +0.006 C 
ATOM     26  C   UNL     1      -0.520 -10.395   4.542  0.00  0.00    +0.005 C 
ATOM     27  C   UNL     1      -0.475 -11.788   5.219  0.00  0.00    +0.000 C 
ATOM     28  C   UNL     1       0.737 -11.664   6.176  0.00  0.00    +0.000 C 
ATOM     29  C   UNL     1       1.763 -10.831   5.380  0.00  0.00    +0.005 C 
ENDBRANCH  24  25
ENDBRANCH  21  24
ENDBRANCH  17  18
ENDBRANCH   2  17
TORSDOF 8
