REMARK  Name = ZINC20157039
REMARK  11 active torsions:
REMARK  status: ('A' for Active; 'I' for Inactive)
REMARK    1  A    between atoms: C_1  and  C_2
REMARK    2  A    between atoms: C_1  and  S_13
REMARK    3  A    between atoms: C_2  and  C_4
REMARK    4  A    between atoms: C_2  and  S_9
REMARK    5  A    between atoms: C_4  and  S_5
REMARK    6  A    between atoms: S_13  and  S_14
REMARK    7  A    between atoms: S_14  and  C_15
REMARK    8  A    between atoms: C_15  and  C_16
REMARK    9  A    between atoms: C_16  and  C_18
REMARK   10  A    between atoms: C_16  and  S_23
REMARK   11  A    between atoms: C_18  and  S_19
REMARK                            x       y       z     vdW  Elec       q    Type
REMARK                         _______ _______ _______ _____ _____    ______ ____
ROOT
ATOM      1  S   UNL     1       1.776   2.774  -0.018  0.00  0.00    -0.091 S 
ENDROOT
BRANCH   1   2
ATOM      2  C   UNL     1       0.674   1.334  -0.077  0.00  0.00    +0.111 C 
BRANCH   2   3
ATOM      3  C   UNL     1       1.494   0.057   0.122  0.00  0.00    +0.196 C 
BRANCH   3   4
ATOM      4  S   UNL     1       2.288   0.096   1.753  0.00  0.00    +0.115 S 
ATOM      5  O   UNL     1       2.938  -1.184   1.984  0.00  0.00    -0.145 OA
ATOM      6  O   UNL     1       3.270   1.170   1.765  0.00  0.00    -0.145 OA
ATOM      7  O   UNL     1       1.268   0.334   2.762  0.00  0.00    -0.047 OA
ENDBRANCH   3   4
BRANCH   3   8
ATOM      8  C   UNL     1       0.571  -1.160   0.034  0.00  0.00    +0.230 C 
BRANCH   8   9
ATOM      9  S   UNL     1      -0.267  -1.169  -1.575  0.00  0.00    +0.112 S 
ATOM     10  O   UNL     1      -1.063  -2.382  -1.678  0.00  0.00    -0.145 OA
ATOM     11  O   UNL     1      -1.123   0.005  -1.659  0.00  0.00    -0.145 OA
ATOM     12  O   UNL     1       0.740  -1.135  -2.623  0.00  0.00    -0.048 OA
ENDBRANCH   8   9
ENDBRANCH   3   8
ENDBRANCH   2   3
ENDBRANCH   1   2
BRANCH   1  13
ATOM     13  S   UNL     1       2.868   2.634  -1.746  0.00  0.00    -0.091 S 
BRANCH  13  14
ATOM     14  C   UNL     1       1.821   3.433  -2.993  0.00  0.00    +0.111 C 
BRANCH  14  15
ATOM     15  C   UNL     1       1.879   4.951  -2.812  0.00  0.00    +0.196 C 
BRANCH  15  16
ATOM     16  S   UNL     1       0.971   5.757  -4.160  0.00  0.00    +0.115 S 
ATOM     17  O   UNL     1       1.260   7.182  -4.129  0.00  0.00    -0.145 OA
ATOM     18  O   UNL     1       1.405   5.181  -5.423  0.00  0.00    -0.145 OA
ATOM     19  O   UNL     1      -0.452   5.527  -3.964  0.00  0.00    -0.047 OA
ENDBRANCH  15  16
BRANCH  15  20
ATOM     20  C   UNL     1       3.338   5.412  -2.834  0.00  0.00    +0.230 C 
BRANCH  20  21
ATOM     21  S   UNL     1       4.035   5.132  -4.486  0.00  0.00    +0.112 S 
ATOM     22  O   UNL     1       5.485   5.207  -4.397  0.00  0.00    -0.145 OA
ATOM     23  O   UNL     1       3.625   3.815  -4.947  0.00  0.00    -0.145 OA
ATOM     24  O   UNL     1       3.531   6.160  -5.383  0.00  0.00    -0.048 OA
ENDBRANCH  20  21
ENDBRANCH  15  20
ENDBRANCH  14  15
ENDBRANCH  13  14
ENDBRANCH   1  13
TORSDOF 11
