REMARK  Name = ZINC43712196
REMARK  4 active torsions:
REMARK  status: ('A' for Active; 'I' for Inactive)
REMARK    1  A    between atoms: C_3  and  C_6
REMARK    2  A    between atoms: C_6  and  N_7
REMARK    3  A    between atoms: N_16  and  C_17
REMARK    4  A    between atoms: C_20  and  C_23
REMARK                            x       y       z     vdW  Elec       q    Type
REMARK                         _______ _______ _______ _____ _____    ______ ____
ROOT
ATOM      1  N   UNL     1       3.538   1.425   1.516  0.00  0.00    +0.384 N 
ATOM      2  C   UNL     1       4.706   1.915   0.789  0.00  0.00    -0.077 C 
ATOM      3  C   UNL     1       5.351   3.034   1.576  0.00  0.00    +0.000 C 
ATOM      4  C   UNL     1       6.465   2.457   2.469  0.00  0.00    +0.107 C 
ATOM      5  N   UNL     1       6.056   1.167   3.060  0.00  0.00    -0.287 N 
ATOM      6  C   UNL     1       4.723   0.940   3.580  0.00  0.00    +0.091 C 
ATOM      7  C   UNL     1       3.806   0.405   2.456  0.00  0.00    -0.059 C 
ATOM      8  C   UNL     1       6.955   0.165   3.118  0.00  0.00    +0.306 C 
ATOM      9  O   UNL     1       8.052   0.302   2.612  0.00  0.00    -0.252 OA
ATOM     10  N   UNL     1       6.638  -0.990   3.738  0.00  0.00    -0.269 N 
ATOM     11  H   UNL     1       5.732  -1.140   4.049  0.00  0.00    +0.156 HD
ATOM     12  H   UNL     1       3.119   2.204   2.003  0.00  0.00    -0.081 HD
ENDROOT
BRANCH  10  13
ATOM     13  C   UNL     1       7.613  -1.967   3.931  0.00  0.00    +0.035 A 
ATOM     14  C   UNL     1       8.933  -1.594   4.169  0.00  0.00    +0.024 A 
ATOM     15  C   UNL     1       9.898  -2.557   4.361  0.00  0.00    +0.015 A 
ATOM     16  C   UNL     1       9.551  -3.910   4.316  0.00  0.00    +0.037 A 
ATOM     17  C   UNL     1       8.225  -4.281   4.078  0.00  0.00    +0.015 A 
ATOM     18  C   UNL     1       7.264  -3.313   3.892  0.00  0.00    +0.024 A 
BRANCH  16  19
ATOM     19  C   UNL     1      10.584  -4.945   4.521  0.00  0.00    +0.242 C 
ATOM     20  O   UNL     1      11.737  -4.620   4.728  0.00  0.00    -0.270 OA
ATOM     21  N   UNL     1      10.248  -6.249   4.478  0.00  0.00    -0.325 N 
ATOM     22  H   UNL     1       9.328  -6.508   4.313  0.00  0.00    +0.145 HD
ATOM     23  H   UNL     1      10.926  -6.929   4.612  0.00  0.00    +0.145 HD
ENDBRANCH  16  19
ENDBRANCH  10  13
BRANCH   1  24
ATOM     24  C   UNL     1       2.565   0.914   0.541  0.00  0.00    -0.036 C 
BRANCH  24  27
ATOM     25  C   UNL     1      -0.911   0.994   2.097  0.00  0.00    +0.008 A 
ATOM     26  C   UNL     1       0.200   1.467   1.425  0.00  0.00    +0.009 A 
ATOM     27  C   UNL     1       1.256   0.639   1.235  0.00  0.00    -0.027 A 
ATOM     28  S   UNL     1       0.693  -0.863   2.019  0.00  0.00    -0.103 S 
ATOM     29  C   UNL     1      -0.912  -0.285   2.546  0.00  0.00    +0.045 A 
ENDBRANCH  24  27
ENDBRANCH   1  24
TORSDOF 4
