REMARK  Name = ZINC39935737
REMARK  8 active torsions:
REMARK  status: ('A' for Active; 'I' for Inactive)
REMARK    1  A    between atoms: C_1  and  C_2
REMARK    2  A    between atoms: C_2  and  N_3
REMARK    3  A    between atoms: C_4  and  C_24
REMARK    4  A    between atoms: C_8  and  S_10
REMARK    5  A    between atoms: S_10  and  C_11
REMARK    6  A    between atoms: C_11  and  C_12
REMARK    7  A    between atoms: C_27  and  O_30
REMARK    8  A    between atoms: O_30  and  C_31
REMARK                            x       y       z     vdW  Elec       q    Type
REMARK                         _______ _______ _______ _____ _____    ______ ____
ROOT
ATOM      1  N   UNL     1       0.544  -0.512  -0.983  0.00  0.00    +0.410 N 
ATOM      2  C   UNL     1       0.851  -1.956  -1.169  0.00  0.00    +0.049 C 
ATOM      3  N   UNL     1       1.065  -2.061  -2.636  0.00  0.00    -0.267 NA
ATOM      4  N   UNL     1       0.074  -1.152  -3.217  0.00  0.00    -0.262 NA
ATOM      5  C   UNL     1      -0.261  -0.161  -2.175  0.00  0.00    +0.077 C 
ATOM      6  H   UNL     1       0.920  -3.007  -2.955  0.00  0.00    +0.139 HD
ATOM      7  H   UNL     1      -0.748  -1.656  -3.515  0.00  0.00    +0.140 HD
ATOM      8  H   UNL     1       1.393   0.031  -0.957  0.00  0.00    -0.075 HD
ENDROOT
BRANCH   2   9
ATOM      9  C   UNL     1       2.099  -2.337  -0.414  0.00  0.00    -0.046 A 
ATOM     10  C   UNL     1       2.021  -3.215   0.651  0.00  0.00    +0.007 A 
ATOM     11  C   UNL     1       3.163  -3.565   1.344  0.00  0.00    +0.046 A 
ATOM     12  C   UNL     1       4.390  -3.036   0.970  0.00  0.00    +0.120 A 
ATOM     13  C   UNL     1       4.466  -2.155  -0.099  0.00  0.00    +0.046 A 
ATOM     14  C   UNL     1       3.321  -1.812  -0.792  0.00  0.00    +0.007 A 
BRANCH  12  15
ATOM     15  O   UNL     1       5.515  -3.379   1.651  0.00  0.00    -0.495 OA
ATOM     16  C   UNL     1       6.743  -2.795   1.211  0.00  0.00    +0.277 C 
ENDBRANCH  12  15
ENDBRANCH   2   9
BRANCH   1  18
ATOM     17  C   UNL     1      -0.531   1.185   0.417  0.00  0.00    -0.017 C 
ATOM     18  C   UNL     1      -0.237  -0.306   0.244  0.00  0.00    -0.076 C 
ENDBRANCH   1  18
BRANCH   5  19
ATOM     19  S   UNL     1       0.167   1.508  -2.744  0.00  0.00    -0.152 S 
BRANCH  19  20
ATOM     20  C   UNL     1       1.936   1.400  -3.131  0.00  0.00    +0.143 C 
BRANCH  20  21
ATOM     21  C   UNL     1       2.425   2.738  -3.621  0.00  0.00    +0.120 A 
ATOM     22  N   UNL     1       3.733   2.857  -3.969  0.00  0.00    -0.310 N 
ATOM     23  H   UNL     1       4.322   2.090  -3.896  0.00  0.00    +0.170 HD
ATOM     24  C   UNL     1       4.222   4.038  -4.416  0.00  0.00    +0.259 A 
ATOM     25  O   UNL     1       5.392   4.159  -4.731  0.00  0.00    -0.267 OA
ATOM     26  C   UNL     1       3.286   5.168  -4.506  0.00  0.00    +0.065 A 
ATOM     27  C   UNL     1       3.688   6.425  -4.953  0.00  0.00    +0.015 A 
ATOM     28  C   UNL     1       2.769   7.449  -5.017  0.00  0.00    +0.001 A 
ATOM     29  C   UNL     1       1.449   7.237  -4.640  0.00  0.00    +0.002 A 
ATOM     30  C   UNL     1       1.031   6.003  -4.196  0.00  0.00    +0.028 A 
ATOM     31  C   UNL     1       1.944   4.949  -4.122  0.00  0.00    +0.078 A 
ATOM     32  N   UNL     1       1.575   3.716  -3.695  0.00  0.00    -0.233 NA
ENDBRANCH  20  21
ENDBRANCH  19  20
ENDBRANCH   5  19
TORSDOF 6
