REMARK  Name = ZINC43262342
REMARK  8 active torsions:
REMARK  status: ('A' for Active; 'I' for Inactive)
REMARK    1  A    between atoms: C_1  and  C_2
REMARK    2  A    between atoms: C_2  and  C_3
REMARK    3  A    between atoms: C_3  and  C_5
REMARK    4  A    between atoms: C_3  and  N_23
REMARK    5  A    between atoms: C_5  and  C_7
REMARK    6  A    between atoms: C_5  and  N_13
REMARK    7  A    between atoms: C_17  and  C_19
REMARK    8  A    between atoms: N_21  and  C_22
REMARK                            x       y       z     vdW  Elec       q    Type
REMARK                         _______ _______ _______ _____ _____    ______ ____
ROOT
ATOM      1  C   UNL     1       0.650  -2.132  -1.393  0.00  0.00    -0.013 C 
ENDROOT
BRANCH   1   2
ATOM      2  C   UNL     1       1.525  -2.863  -0.407  0.00  0.00    -0.021 A 
ATOM      3  C   UNL     1       2.743  -3.426  -0.600  0.00  0.00    +0.011 A 
ATOM      4  C   UNL     1       3.368  -4.052   0.462  0.00  0.00    +0.023 A 
ATOM      5  C   UNL     1       2.744  -4.084   1.666  0.00  0.00    +0.055 A 
ATOM      6  S   UNL     1       1.229  -3.205   1.320  0.00  0.00    -0.088 S 
ATOM      7 BR   UNL     1       3.330  -4.854   3.291  0.00  0.00    -0.043 Br
ENDBRANCH   1   2
BRANCH   1   8
ATOM      8  N   UNL     1      -0.753  -2.508  -1.175  0.00  0.00    +0.393 N 
ATOM      9  C   UNL     1      -0.882  -3.981  -1.188  0.00  0.00    -0.077 C 
ATOM     10  C   UNL     1      -2.247  -4.253  -1.867  0.00  0.00    -0.020 C 
ATOM     11  C   UNL     1      -2.284  -3.143  -2.951  0.00  0.00    -0.008 C 
ATOM     12  C   UNL     1      -1.589  -1.954  -2.256  0.00  0.00    +0.020 C 
ATOM     13  H   UNL     1      -1.067  -2.150  -0.285  0.00  0.00    -0.080 HD
BRANCH  12  14
ATOM     14  C   UNL     1      -0.725  -1.215  -3.244  0.00  0.00    +0.199 C 
ATOM     15  O   UNL     1       0.136  -1.808  -3.860  0.00  0.00    -0.278 OA
ATOM     16  N   UNL     1      -0.908   0.105  -3.445  0.00  0.00    -0.320 N 
ATOM     17  C   UNL     1      -0.068   0.823  -4.407  0.00  0.00    +0.128 C 
ATOM     18  H   UNL     1      -1.597   0.579  -2.953  0.00  0.00    +0.148 HD
ENDBRANCH  12  14
ENDBRANCH   1   8
BRANCH   1  19
ATOM     19  C   UNL     1       0.811  -0.624  -1.197  0.00  0.00    +0.042 C 
BRANCH  19  20
ATOM     20  N   UNL     1       2.214  -0.248  -1.415  0.00  0.00    -0.328 NA
ATOM     21  H   UNL     1       2.821  -0.725  -0.765  0.00  0.00    +0.118 HD
ATOM     22  H   UNL     1       2.493  -0.427  -2.368  0.00  0.00    +0.118 HD
ENDBRANCH  19  20
BRANCH  19  24
ATOM     23  C   UNL     1       0.439   1.274   0.386  0.00  0.00    +0.005 C 
ATOM     24  C   UNL     1       0.397  -0.248   0.228  0.00  0.00    +0.014 C 
ENDBRANCH  19  24
ENDBRANCH   1  19
TORSDOF 6
