REMARK  Name = ZINC39994327
REMARK  7 active torsions:
REMARK  status: ('A' for Active; 'I' for Inactive)
REMARK    1  A    between atoms: C_1  and  C_2
REMARK    2  A    between atoms: C_9  and  N_27
REMARK    3  A    between atoms: C_10  and  C_13
REMARK    4  A    between atoms: C_14  and  C_15
REMARK    5  A    between atoms: C_14  and  C_17
REMARK    6  A    between atoms: N_19  and  C_20
REMARK    7  A    between atoms: N_30  and  C_33
REMARK                            x       y       z     vdW  Elec       q    Type
REMARK                         _______ _______ _______ _____ _____    ______ ____
ROOT
ATOM      1  C   UNL     1       0.902   1.266   0.000  0.00  0.00    +0.047 C 
ATOM      2  C   UNL     1       0.640  -0.218   0.025  0.00  0.00    -0.007 A 
ATOM      3  C   UNL     1       0.685  -0.942  -1.130  0.00  0.00    +0.008 A 
ATOM      4  C   UNL     1       0.439  -2.321  -1.091  0.00  0.00    +0.019 A 
ATOM      5  C   UNL     1       0.159  -2.926   0.085  0.00  0.00    +0.096 A 
ATOM      6  N   UNL     1       0.112  -2.211   1.244  0.00  0.00    -0.267 N 
ATOM      7  C   UNL     1       0.353  -0.866   1.239  0.00  0.00    +0.145 A 
ATOM      8  N   UNL     1       0.316  -0.148   2.363  0.00  0.00    -0.213 NA
ATOM      9  C   UNL     1       0.051  -0.704   3.535  0.00  0.00    +0.136 A 
ATOM     10  C   UNL     1      -0.202  -2.098   3.606  0.00  0.00    +0.081 A 
ATOM     11  C   UNL     1      -0.171  -2.848   2.401  0.00  0.00    +0.267 A 
ATOM     12  O   UNL     1      -0.382  -4.048   2.413  0.00  0.00    -0.267 OA
ENDROOT
BRANCH   9  13
ATOM     13  N   UNL     1       0.021   0.065   4.676  0.00  0.00    -0.318 N 
ATOM     14  C   UNL     1       0.570  -0.441   5.944  0.00  0.00    +0.088 C 
ATOM     15  C   UNL     1       1.522   0.613   6.516  0.00  0.00    -0.060 C 
ATOM     16  N   UNL     1       0.819   1.897   6.630  0.00  0.00    +0.380 N 
ATOM     17  C   UNL     1       0.447   2.384   5.295  0.00  0.00    -0.060 C 
ATOM     18  C   UNL     1      -0.554   1.419   4.661  0.00  0.00    +0.088 C 
ATOM     19  C   UNL     1       1.697   2.879   7.280  0.00  0.00    -0.096 C 
ATOM     20  H   UNL     1      -0.014   1.774   7.186  0.00  0.00    -0.082 HD
ENDBRANCH   9  13
BRANCH  10  21
ATOM     21  C   UNL     1      -0.486  -2.718   4.835  0.00  0.00    +0.040 C 
ATOM     22  C   UNL     1       0.385  -3.668   5.351  0.00  0.00    +0.114 C 
BRANCH  22  23
ATOM     23  C   UNL     1       0.031  -4.403   6.569  0.00  0.00    +0.259 C 
ATOM     24  O   UNL     1      -1.027  -4.180   7.128  0.00  0.00    -0.269 OA
ATOM     25  N   UNL     1       0.876  -5.325   7.070  0.00  0.00    -0.281 N 
ATOM     26  H   UNL     1       1.687  -5.552   6.588  0.00  0.00    +0.155 HD
BRANCH  25  27
ATOM     27  C   UNL     1       0.584  -5.955   8.284  0.00  0.00    +0.035 A 
ATOM     28  C   UNL     1       1.610  -6.285   9.161  0.00  0.00    +0.023 A 
ATOM     29  C   UNL     1       1.319  -6.907  10.359  0.00  0.00    +0.003 A 
ATOM     30  C   UNL     1       0.008  -7.203  10.686  0.00  0.00    +0.015 A 
ATOM     31  C   UNL     1      -1.016  -6.877   9.815  0.00  0.00    +0.020 A 
ATOM     32  C   UNL     1      -0.731  -6.248   8.617  0.00  0.00    +0.038 A 
ATOM     33 BR   UNL     1      -2.806  -7.285  10.266  0.00  0.00    -0.050 Br
ENDBRANCH  25  27
ENDBRANCH  22  23
BRANCH  22  34
ATOM     34  C   UNL     1       1.629  -3.931   4.693  0.00  0.00    +0.104 C 
ATOM     35  N   UNL     1       2.617  -4.139   4.171  0.00  0.00    -0.191 NA
ENDBRANCH  22  34
ENDBRANCH  10  21
TORSDOF 5
