REMARK  Name = ZINC15103011
REMARK  14 active torsions:
REMARK  status: ('A' for Active; 'I' for Inactive)
REMARK    1  A    between atoms: C_1  and  C_2
REMARK    2  A    between atoms: C_4  and  C_28
REMARK    3  A    between atoms: C_6  and  O_8
REMARK    4  A    between atoms: O_8  and  C_9
REMARK    5  A    between atoms: C_9  and  C_10
REMARK    6  A    between atoms: C_10  and  N_58
REMARK    7  A    between atoms: C_11  and  N_58
REMARK    8  A    between atoms: C_12  and  C_13
REMARK    9  A    between atoms: C_12  and  N_58
REMARK   10  A    between atoms: N_15  and  C_16
REMARK   11  A    between atoms: C_16  and  C_17
REMARK   12  A    between atoms: C_17  and  C_18
REMARK   13  A    between atoms: C_21  and  S_24
REMARK   14  A    between atoms: S_24  and  N_27
REMARK                            x       y       z     vdW  Elec       q    Type
REMARK                         _______ _______ _______ _____ _____    ______ ____
ROOT
ATOM      1  C   UNL     1       7.656   3.569  -2.443  0.00  0.00    +0.196 C 
ATOM      2  O   UNL     1       7.030   2.925  -3.258  0.00  0.00    -0.278 OA
ATOM      3  N   UNL     1       8.979   3.767  -2.612  0.00  0.00    -0.317 N 
ATOM      4  H   UNL     1       9.479   4.282  -1.960  0.00  0.00    +0.149 HD
ENDROOT
BRANCH   1   5
ATOM      5  C   UNL     1       6.955   4.147  -1.241  0.00  0.00    +0.018 C 
BRANCH   5   7
ATOM      6  C   UNL     1       4.864   4.441  -2.425  0.00  0.00    -0.095 C 
ATOM      7  N   UNL     1       5.528   3.765  -1.291  0.00  0.00    +0.386 N 
ATOM      8  H   UNL     1       5.460   2.749  -1.422  0.00  0.00    -0.081 HD
BRANCH   7   9
ATOM      9  C   UNL     1       4.862   4.132  -0.024  0.00  0.00    -0.037 C 
BRANCH   9  10
ATOM     10  C   UNL     1       3.456   3.530  -0.013  0.00  0.00    +0.210 C 
BRANCH  10  11
ATOM     11  O   UNL     1       3.548   2.104  -0.021  0.00  0.00    -0.494 OA
BRANCH  11  17
ATOM     12  C   UNL     1      -1.332   2.114   0.020  0.00  0.00    +0.044 C 
ATOM     13  C   UNL     1      -0.017   1.378   0.010  0.00  0.00    -0.047 A 
ATOM     14  C   UNL     1       0.002  -0.004   0.002  0.00  0.00    +0.007 A 
ATOM     15  C   UNL     1       1.207  -0.681  -0.013  0.00  0.00    -0.047 A 
ATOM     16  C   UNL     1       2.396   0.022  -0.020  0.00  0.00    +0.049 A 
ATOM     17  C   UNL     1       2.380   1.409  -0.013  0.00  0.00    +0.121 A 
ATOM     18  C   UNL     1       1.169   2.087   0.002  0.00  0.00    +0.049 A 
ATOM     19  C   UNL     1       1.224  -2.188  -0.020  0.00  0.00    +0.044 C 
ENDBRANCH  11  17
ENDBRANCH  10  11
ENDBRANCH   9  10
ENDBRANCH   7   9
ENDBRANCH   5   7
ENDBRANCH   1   5
BRANCH   3  20
ATOM     20  C   UNL     1       9.660   3.205  -3.780  0.00  0.00    +0.109 C 
BRANCH  20  21
ATOM     21  C   UNL     1      11.144   3.574  -3.732  0.00  0.00    +0.054 C 
BRANCH  21  22
ATOM     22  C   UNL     1      11.845   2.995  -4.934  0.00  0.00    -0.046 A 
ATOM     23  C   UNL     1      12.400   1.731  -4.868  0.00  0.00    +0.005 A 
ATOM     24  C   UNL     1      13.039   1.199  -5.973  0.00  0.00    +0.029 A 
ATOM     25  C   UNL     1      13.131   1.934  -7.139  0.00  0.00    +0.105 A 
ATOM     26  C   UNL     1      12.581   3.201  -7.203  0.00  0.00    +0.029 A 
ATOM     27  C   UNL     1      11.938   3.731  -6.100  0.00  0.00    +0.005 A 
BRANCH  25  28
ATOM     28  S   UNL     1      13.950   1.258  -8.545  0.00  0.00    +0.056 S 
ATOM     29  O   UNL     1      13.901  -0.155  -8.403  0.00  0.00    -0.153 OA
ATOM     30  O   UNL     1      13.424   1.927  -9.683  0.00  0.00    -0.153 OA
BRANCH  28  31
ATOM     31  N   UNL     1      15.545   1.689  -8.438  0.00  0.00    -0.204 NA
ATOM     32  H   UNL     1      15.854   2.221  -7.688  0.00  0.00    +0.144 HD
ATOM     33  H   UNL     1      16.170   1.410  -9.125  0.00  0.00    +0.144 HD
ENDBRANCH  28  31
ENDBRANCH  25  28
ENDBRANCH  21  22
ENDBRANCH  20  21
ENDBRANCH   3  20
TORSDOF 11
