REMARK  Name = ZINC12330223
REMARK  6 active torsions:
REMARK  status: ('A' for Active; 'I' for Inactive)
REMARK    1  A    between atoms: C_1  and  C_2
REMARK    2  A    between atoms: C_8  and  O_30
REMARK    3  A    between atoms: C_17  and  C_18
REMARK    4  A    between atoms: C_17  and  N_60
REMARK    5  A    between atoms: C_18  and  C_20
REMARK    6  A    between atoms: C_18  and  O_29
REMARK                            x       y       z     vdW  Elec       q    Type
REMARK                         _______ _______ _______ _____ _____    ______ ____
ROOT
ATOM      1  C   UNL     1      -4.622  -8.598  -0.146  0.00  0.00    +0.044 C 
ATOM      2  C   UNL     1      -4.640  -7.247   0.521  0.00  0.00    -0.050 A 
ATOM      3  C   UNL     1      -3.524  -6.798   1.203  0.00  0.00    +0.007 A 
ATOM      4  C   UNL     1      -3.541  -5.561   1.814  0.00  0.00    +0.046 A 
ATOM      5  C   UNL     1      -4.679  -4.762   1.746  0.00  0.00    +0.127 A 
ATOM      6  C   UNL     1      -5.793  -5.214   1.062  0.00  0.00    +0.023 A 
ATOM      7  C   UNL     1      -5.771  -6.457   0.451  0.00  0.00    +0.013 A 
ATOM      8  C   UNL     1      -7.044  -4.378   0.958  0.00  0.00    +0.152 C 
ATOM      9  C   UNL     1      -7.027  -3.289   2.034  0.00  0.00    +0.084 C 
ATOM     10  C   UNL     1      -5.658  -2.600   2.001  0.00  0.00    +0.110 C 
ATOM     11  O   UNL     1      -4.659  -3.552   2.364  0.00  0.00    -0.485 OA
ATOM     12  C   UNL     1      -5.649  -1.435   2.992  0.00  0.00    +0.029 C 
ATOM     13  C   UNL     1      -4.305  -0.709   2.908  0.00  0.00    -0.075 C 
ATOM     14  C   UNL     1      -4.048  -1.328   0.580  0.00  0.00    -0.075 C 
ATOM     15  C   UNL     1      -5.385  -2.072   0.592  0.00  0.00    +0.029 C 
ATOM     16  N   UNL     1      -4.119  -0.200   1.533  0.00  0.00    +0.382 N 
ATOM     17  H   UNL     1      -4.919   0.395   1.287  0.00  0.00    -0.082 HD
ENDROOT
BRANCH   8  18
ATOM     18  O   UNL     1      -8.190  -5.211   1.143  0.00  0.00    -0.387 OA
ATOM     19  H   UNL     1      -8.268  -5.923   0.494  0.00  0.00    +0.210 HD
ENDBRANCH   8  18
BRANCH  16  20
ATOM     20  C   UNL     1      -2.882   0.605   1.455  0.00  0.00    -0.042 C 
BRANCH  20  21
ATOM     21  C   UNL     1      -3.074   1.883   2.274  0.00  0.00    +0.128 C 
BRANCH  21  22
ATOM     22  C   UNL     1      -1.835   2.735   2.174  0.00  0.00    -0.021 A 
ATOM     23  C   UNL     1      -1.673   3.600   1.107  0.00  0.00    +0.006 A 
ATOM     24  C   UNL     1      -0.539   4.383   1.021  0.00  0.00    +0.004 A 
ATOM     25  C   UNL     1       0.440   4.301   1.997  0.00  0.00    -0.044 A 
ATOM     26  C   UNL     1       0.282   3.432   3.060  0.00  0.00    -0.044 A 
ATOM     27  C   UNL     1      -0.856   2.647   3.144  0.00  0.00    +0.010 A 
ATOM     28  C   UNL     1       1.478   3.527   3.982  0.00  0.00    +0.036 C 
ATOM     29  C   UNL     1       2.174   4.853   3.605  0.00  0.00    +0.009 C 
ATOM     30  C   UNL     1       1.754   5.040   2.132  0.00  0.00    +0.036 C 
ENDBRANCH  21  22
BRANCH  21  31
ATOM     31  O   UNL     1      -4.194   2.611   1.765  0.00  0.00    -0.389 OA
ATOM     32  H   UNL     1      -4.103   2.876   0.839  0.00  0.00    +0.210 HD
ENDBRANCH  21  31
ENDBRANCH  20  21
ENDBRANCH  16  20
TORSDOF 5
