REMARK  Name = ZINC39683573
REMARK  8 active torsions:
REMARK  status: ('A' for Active; 'I' for Inactive)
REMARK    1  A    between atoms: C_1  and  C_2
REMARK    2  A    between atoms: C_2  and  C_3
REMARK    3  A    between atoms: C_3  and  C_4
REMARK    4  A    between atoms: C_4  and  N_5
REMARK    5  A    between atoms: C_8  and  C_11
REMARK    6  A    between atoms: C_11  and  N_12
REMARK    7  A    between atoms: C_13  and  C_15
REMARK    8  A    between atoms: C_26  and  C_28
REMARK                            x       y       z     vdW  Elec       q    Type
REMARK                         _______ _______ _______ _____ _____    ______ ____
ROOT
ATOM      1  C   UNL     1       4.662  -8.016  -6.462  0.00  0.00    +0.100 C 
ATOM      2  C   UNL     1       5.653  -8.594  -5.427  0.00  0.00    +0.121 C 
ATOM      3  N   UNL     1       6.288  -9.741  -6.117  0.00  0.00    -0.300 N 
ATOM      4  C   UNL     1       6.485  -9.270  -7.509  0.00  0.00    +0.115 C 
ATOM      5  C   UNL     1       5.212  -8.461  -7.827  0.00  0.00    -0.004 C 
ATOM      6  C   UNL     1       4.194  -9.341  -8.546  0.00  0.00    -0.010 C 
ATOM      7  C   UNL     1       4.740  -9.724  -9.924  0.00  0.00    -0.082 C 
ATOM      8  N   UNL     1       5.003  -8.509 -10.704  0.00  0.00    +0.379 N 
ATOM      9  C   UNL     1       6.051  -7.713 -10.053  0.00  0.00    -0.082 C 
ATOM     10  C   UNL     1       5.560  -7.245  -8.680  0.00  0.00    -0.010 C 
ATOM     11  C   UNL     1       6.614 -10.941  -5.597  0.00  0.00    +0.219 C 
ATOM     12  O   UNL     1       7.134 -11.784  -6.297  0.00  0.00    -0.275 OA
ATOM     13  H   UNL     1       5.305  -8.764 -11.632  0.00  0.00    -0.086 HD
ATOM     14  H   UNL     1       4.158  -7.962 -10.767  0.00  0.00    -0.086 HD
ENDROOT
BRANCH  11  15
ATOM     15  C   UNL     1       6.332 -11.235  -4.146  0.00  0.00    +0.079 C 
ATOM     16  C   UNL     1       6.804 -12.654  -3.807  0.00  0.00    +0.017 C 
ATOM     17  C   UNL     1       6.346 -12.990  -2.386  0.00  0.00    +0.027 C 
ATOM     18  C   UNL     1       6.717 -11.879  -1.447  0.00  0.00    -0.031 C 
ATOM     19  C   UNL     1       7.039 -10.684  -1.829  0.00  0.00    -0.030 C 
ATOM     20  C   UNL     1       7.091 -10.243  -3.263  0.00  0.00    +0.039 C 
ENDBRANCH  11  15
BRANCH   1  22
ATOM     21  N   UNL     1       3.512  -5.840  -6.714  0.00  0.00    -0.315 N 
ATOM     22  C   UNL     1       4.630  -6.512  -6.374  0.00  0.00    +0.218 C 
ATOM     23  O   UNL     1       5.611  -5.905  -5.998  0.00  0.00    -0.275 OA
ATOM     24  H   UNL     1       2.727  -6.325  -7.015  0.00  0.00    +0.149 HD
BRANCH  21  25
ATOM     25  C   UNL     1       3.481  -4.378  -6.629  0.00  0.00    +0.107 C 
BRANCH  25  29
ATOM     26  N   UNL     1       0.550  -2.151  -8.804  0.00  0.00    +0.380 N 
ATOM     27  C   UNL     1       0.682  -1.843  -7.375  0.00  0.00    -0.079 C 
ATOM     28  C   UNL     1       2.029  -2.355  -6.861  0.00  0.00    -0.014 C 
ATOM     29  C   UNL     1       2.106  -3.871  -7.067  0.00  0.00    +0.003 C 
ATOM     30  C   UNL     1       1.893  -4.185  -8.551  0.00  0.00    -0.014 C 
ATOM     31  C   UNL     1       0.550  -3.606  -9.002  0.00  0.00    -0.079 C 
ATOM     32  H   UNL     1       1.325  -1.744  -9.306  0.00  0.00    -0.082 HD
BRANCH  26  33
ATOM     33  C   UNL     1      -0.709  -1.590  -9.310  0.00  0.00    -0.079 C 
BRANCH  33  34
ATOM     34  C   UNL     1      -0.660  -0.063  -9.219  0.00  0.00    -0.019 C 
BRANCH  34  36
ATOM     35  C   UNL     1      -1.923   2.048  -9.655  0.00  0.00    +0.004 C 
ATOM     36  C   UNL     1      -1.972   0.522  -9.746  0.00  0.00    -0.005 C 
ENDBRANCH  34  36
ENDBRANCH  33  34
ENDBRANCH  26  33
ENDBRANCH  25  29
ENDBRANCH  21  25
ENDBRANCH   1  22
TORSDOF 7
