REMARK  Name = ZINC63491887
REMARK  8 active torsions:
REMARK  status: ('A' for Active; 'I' for Inactive)
REMARK    1  A    between atoms: C_1  and  C_2
REMARK    2  A    between atoms: C_4  and  C_35
REMARK    3  A    between atoms: C_5  and  S_9
REMARK    4  A    between atoms: C_6  and  C_8
REMARK    5  A    between atoms: S_9  and  N_12
REMARK    6  A    between atoms: C_25  and  C_27
REMARK    7  A    between atoms: C_30  and  S_33
REMARK    8  A    between atoms: S_33  and  C_34
REMARK                            x       y       z     vdW  Elec       q    Type
REMARK                         _______ _______ _______ _____ _____    ______ ____
ROOT
ATOM      1  N   UNL     1       2.950  -4.715  -1.565  0.00  0.00    -0.167 NA
ATOM      2  C   UNL     1       3.058  -4.900  -3.016  0.00  0.00    +0.114 C 
ATOM      3  C   UNL     1       4.293  -5.762  -3.332  0.00  0.00    +0.050 C 
ATOM      4  C   UNL     1       5.426  -5.217  -2.498  0.00  0.00    -0.035 C 
ATOM      5  C   UNL     1       6.654  -4.835  -2.827  0.00  0.00    -0.001 A 
ATOM      6  C   UNL     1       7.395  -4.906  -4.097  0.00  0.00    +0.010 A 
ATOM      7  C   UNL     1       8.654  -4.394  -4.086  0.00  0.00    +0.001 A 
ATOM      8  C   UNL     1       9.244  -3.827  -2.952  0.00  0.00    +0.002 A 
ATOM      9  C   UNL     1       8.639  -3.728  -1.741  0.00  0.00    +0.026 A 
ATOM     10  C   UNL     1       7.314  -4.239  -1.626  0.00  0.00    +0.043 A 
ATOM     11  N   UNL     1       6.521  -4.296  -0.597  0.00  0.00    -0.376 N 
ATOM     12  C   UNL     1       5.294  -4.985  -0.997  0.00  0.00    +0.129 C 
ATOM     13  C   UNL     1       4.049  -4.105  -0.801  0.00  0.00    +0.136 C 
ATOM     14  H   UNL     1       6.711  -3.942   0.286  0.00  0.00    +0.160 HD
ENDROOT
BRANCH  13  15
ATOM     15  C   UNL     1       3.686  -4.048   0.660  0.00  0.00    -0.026 A 
ATOM     16  C   UNL     1       3.689  -5.206   1.417  0.00  0.00    +0.006 A 
ATOM     17  C   UNL     1       3.356  -5.158   2.756  0.00  0.00    +0.015 A 
ATOM     18  C   UNL     1       3.018  -3.945   3.344  0.00  0.00    +0.008 A 
ATOM     19  C   UNL     1       3.017  -2.784   2.580  0.00  0.00    +0.015 A 
ATOM     20  C   UNL     1       3.356  -2.838   1.243  0.00  0.00    +0.006 A 
BRANCH  18  21
ATOM     21  S   UNL     1       2.592  -3.879   5.052  0.00  0.00    -0.129 S 
ATOM     22  C   UNL     1       2.239  -2.125   5.349  0.00  0.00    +0.090 C 
ENDBRANCH  18  21
ENDBRANCH  13  15
BRANCH   1  23
ATOM     23  S   UNL     1       1.573  -5.192  -0.779  0.00  0.00    +0.062 S 
ATOM     24  O   UNL     1       1.616  -4.600   0.512  0.00  0.00    -0.153 OA
ATOM     25  O   UNL     1       1.462  -6.596  -0.970  0.00  0.00    -0.153 OA
BRANCH  23  30
ATOM     26  C   UNL     1      -3.094  -2.686  -3.668  0.00  0.00    +0.044 C 
ATOM     27  C   UNL     1      -1.928  -3.312  -2.947  0.00  0.00    -0.050 A 
ATOM     28  C   UNL     1      -1.717  -4.676  -3.028  0.00  0.00    +0.008 A 
ATOM     29  C   UNL     1      -0.647  -5.250  -2.366  0.00  0.00    -0.024 A 
ATOM     30  C   UNL     1       0.210  -4.460  -1.623  0.00  0.00    +0.111 A 
ATOM     31  C   UNL     1      -0.001  -3.096  -1.543  0.00  0.00    -0.024 A 
ATOM     32  C   UNL     1      -1.068  -2.522  -2.208  0.00  0.00    +0.008 A 
ATOM     33  C   UNL     1       0.934  -2.236  -0.732  0.00  0.00    +0.046 C 
ATOM     34  C   UNL     1      -0.417  -6.736  -2.454  0.00  0.00    +0.046 C 
ENDBRANCH  23  30
ENDBRANCH   1  23
TORSDOF 4
