REMARK  Name = ZINC58442774
REMARK  12 active torsions:
REMARK  status: ('A' for Active; 'I' for Inactive)
REMARK    1  A    between atoms: C_1  and  N_2
REMARK    2  A    between atoms: N_2  and  C_3
REMARK    3  A    between atoms: N_2  and  C_26
REMARK    4  A    between atoms: C_3  and  C_4
REMARK    5  A    between atoms: C_4  and  C_5
REMARK    6  A    between atoms: C_5  and  N_6
REMARK    7  A    between atoms: C_7  and  C_9
REMARK    8  A    between atoms: C_9  and  C_10
REMARK    9  A    between atoms: C_10  and  N_11
REMARK   10  A    between atoms: N_11  and  S_12
REMARK   11  A    between atoms: S_12  and  C_15
REMARK   12  A    between atoms: C_26  and  C_27
REMARK                            x       y       z     vdW  Elec       q    Type
REMARK                         _______ _______ _______ _____ _____    ______ ____
ROOT
ATOM      1  C   UNL     1       6.559  -0.049  -3.330  0.00  0.00    +0.112 C 
ENDROOT
BRANCH   1   3
ATOM      2  N   UNL     1       4.282  -0.140  -2.368  0.00  0.00    -0.315 N 
ATOM      3  C   UNL     1       5.112  -0.467  -3.378  0.00  0.00    +0.214 C 
ATOM      4  O   UNL     1       4.694  -1.098  -4.327  0.00  0.00    -0.276 OA
ATOM      5  H   UNL     1       4.615   0.364  -1.610  0.00  0.00    +0.149 HD
BRANCH   2   6
ATOM      6  C   UNL     1       2.875  -0.547  -2.416  0.00  0.00    +0.102 C 
BRANCH   6   7
ATOM      7  C   UNL     1       2.159  -0.053  -1.157  0.00  0.00    +0.000 C 
BRANCH   7   8
ATOM      8  C   UNL     1       0.690  -0.478  -1.207  0.00  0.00    -0.077 C 
BRANCH   8  10
ATOM      9  C   UNL     1      -0.018   1.465   0.010  0.00  0.00    -0.096 C 
ATOM     10  N   UNL     1       0.002  -0.004   0.002  0.00  0.00    +0.381 N 
ATOM     11  H   UNL     1       0.490  -0.338   0.820  0.00  0.00    -0.082 HD
BRANCH  10  12
ATOM     12  C   UNL     1      -1.376  -0.512   0.012  0.00  0.00    -0.043 C 
BRANCH  12  13
ATOM     13  C   UNL     1      -2.043  -0.130   1.309  0.00  0.00    -0.064 A 
ATOM     14  C   UNL     1      -1.964  -0.973   2.402  0.00  0.00    +0.002 A 
ATOM     15  C   UNL     1      -2.575  -0.622   3.591  0.00  0.00    +0.000 A 
ATOM     16  C   UNL     1      -3.266   0.572   3.687  0.00  0.00    +0.000 A 
ATOM     17  C   UNL     1      -3.344   1.415   2.594  0.00  0.00    +0.000 A 
ATOM     18  C   UNL     1      -2.729   1.066   1.406  0.00  0.00    +0.002 A 
ENDBRANCH  12  13
ENDBRANCH  10  12
ENDBRANCH   8  10
ENDBRANCH   7   8
ENDBRANCH   6   7
ENDBRANCH   2   6
ENDBRANCH   1   3
BRANCH   1  19
ATOM     19  C   UNL     1       7.275  -0.542  -4.588  0.00  0.00    +0.115 C 
BRANCH  19  20
ATOM     20  N   UNL     1       8.682  -0.136  -4.541  0.00  0.00    -0.189 NA
ATOM     21  H   UNL     1       8.970   0.541  -3.909  0.00  0.00    +0.148 HD
BRANCH  20  22
ATOM     22  S   UNL     1       9.780  -0.833  -5.566  0.00  0.00    +0.059 S 
ATOM     23  O   UNL     1      11.033  -0.218  -5.298  0.00  0.00    -0.153 OA
ATOM     24  O   UNL     1       9.586  -2.238  -5.474  0.00  0.00    -0.153 OA
BRANCH  22  25
ATOM     25  C   UNL     1       9.331  -0.368  -7.205  0.00  0.00    +0.109 A 
ATOM     26  C   UNL     1       8.455  -1.156  -7.929  0.00  0.00    +0.032 A 
ATOM     27  C   UNL     1       8.097  -0.797  -9.216  0.00  0.00    +0.051 A 
ATOM     28  C   UNL     1       8.620   0.355  -9.778  0.00  0.00    +0.162 A 
ATOM     29  C   UNL     1       9.499   1.145  -9.052  0.00  0.00    +0.164 A 
ATOM     30  C   UNL     1       9.851   0.786  -7.762  0.00  0.00    +0.078 A 
ATOM     31  O   UNL     1      10.008   2.280  -9.614  0.00  0.00    -0.488 OA
ATOM     32  C   UNL     1      10.916   2.085 -10.701  0.00  0.00    +0.232 C 
ATOM     33  C   UNL     1      10.161   1.909 -12.009  0.00  0.00    +0.082 C 
ATOM     34  C   UNL     1       9.315   0.646 -12.024  0.00  0.00    +0.232 C 
ATOM     35  O   UNL     1       8.274   0.721 -11.046  0.00  0.00    -0.488 OA
ENDBRANCH  22  25
ENDBRANCH  20  22
ENDBRANCH  19  20
ENDBRANCH   1  19
TORSDOF 11
