REMARK  Name = ZINC15108577
REMARK  8 active torsions:
REMARK  status: ('A' for Active; 'I' for Inactive)
REMARK    1  A    between atoms: C_1  and  N_2
REMARK    2  A    between atoms: N_2  and  C_3
REMARK    3  A    between atoms: N_2  and  C_14
REMARK    4  A    between atoms: C_3  and  C_4
REMARK    5  A    between atoms: N_6  and  C_7
REMARK    6  A    between atoms: C_14  and  C_15
REMARK    7  A    between atoms: N_20  and  C_21
REMARK    8  A    between atoms: C_21  and  C_22
REMARK                            x       y       z     vdW  Elec       q    Type
REMARK                         _______ _______ _______ _____ _____    ______ ____
ROOT
ATOM      1  C   UNL     1      -0.006   1.446   0.008  0.00  0.00    -0.095 C 
ATOM      2  N   UNL     1       0.010  -0.023  -0.009  0.00  0.00    +0.389 N 
ATOM      3  H   UNL     1       0.477  -0.345  -0.843  0.00  0.00    -0.081 HD
ENDROOT
BRANCH   2   4
ATOM      4  C   UNL     1      -1.370  -0.527   0.004  0.00  0.00    +0.019 C 
BRANCH   4   5
ATOM      5  C   UNL     1      -2.066  -0.121  -1.270  0.00  0.00    +0.201 C 
ATOM      6  O   UNL     1      -1.470   0.525  -2.106  0.00  0.00    -0.278 OA
ATOM      7  N   UNL     1      -3.349  -0.476  -1.480  0.00  0.00    -0.286 N 
ATOM      8  H   UNL     1      -3.805  -1.047  -0.842  0.00  0.00    +0.155 HD
BRANCH   7   9
ATOM      9  C   UNL     1      -4.024  -0.020  -2.618  0.00  0.00    +0.052 A 
ATOM     10  C   UNL     1      -3.339   0.140  -3.815  0.00  0.00    +0.025 A 
ATOM     11  C   UNL     1      -4.008   0.589  -4.937  0.00  0.00    +0.002 A 
ATOM     12  C   UNL     1      -5.358   0.880  -4.869  0.00  0.00    +0.002 A 
ATOM     13  C   UNL     1      -6.044   0.722  -3.679  0.00  0.00    +0.022 A 
ATOM     14  C   UNL     1      -5.382   0.267  -2.554  0.00  0.00    +0.062 A 
ATOM     15 CL   UNL     1      -6.244   0.062  -1.062  0.00  0.00    -0.082 Cl
ENDBRANCH   7   9
ENDBRANCH   4   5
ENDBRANCH   2   4
BRANCH   2  16
ATOM     16  C   UNL     1       0.724  -0.519   1.175  0.00  0.00    +0.019 C 
BRANCH  16  17
ATOM     17  C   UNL     1       2.171  -0.104   1.099  0.00  0.00    +0.204 C 
ATOM     18  O   UNL     1       2.568   0.541   0.153  0.00  0.00    -0.277 OA
ATOM     19  N   UNL     1       3.023  -0.450   2.084  0.00  0.00    -0.242 N 
ATOM     20  C   UNL     1       4.317  -0.079   2.017  0.00  0.00    +0.306 C 
ATOM     21  O   UNL     1       4.715   0.567   1.068  0.00  0.00    -0.252 OA
ATOM     22  N   UNL     1       5.169  -0.425   3.002  0.00  0.00    -0.294 N 
ATOM     23  H   UNL     1       2.705  -0.966   2.842  0.00  0.00    +0.159 HD
ATOM     24  H   UNL     1       4.852  -0.941   3.759  0.00  0.00    +0.151 HD
BRANCH  22  25
ATOM     25  C   UNL     1       6.576  -0.022   2.928  0.00  0.00    +0.148 C 
BRANCH  25  26
ATOM     26  C   UNL     1       7.308  -0.531   4.143  0.00  0.00    +0.007 A 
ATOM     27  C   UNL     1       7.957  -1.708   4.318  0.00  0.00    +0.013 A 
ATOM     28  C   UNL     1       8.566  -1.964   5.532  0.00  0.00    +0.008 A 
ATOM     29  C   UNL     1       8.496  -1.030   6.512  0.00  0.00    +0.045 A 
ATOM     30  S   UNL     1       7.554   0.264   5.723  0.00  0.00    -0.100 S 
ENDBRANCH  25  26
ENDBRANCH  22  25
ENDBRANCH  16  17
ENDBRANCH   2  16
TORSDOF 7
