REMARK  Name = ZINC35750025
REMARK  11 active torsions:
REMARK  status: ('A' for Active; 'I' for Inactive)
REMARK    1  A    between atoms: C_1  and  N_2
REMARK    2  A    between atoms: N_2  and  C_3
REMARK    3  A    between atoms: N_2  and  C_4
REMARK    4  A    between atoms: C_4  and  C_5
REMARK    5  A    between atoms: C_5  and  N_6
REMARK    6  A    between atoms: C_7  and  C_9
REMARK    7  A    between atoms: C_11  and  C_24
REMARK    8  A    between atoms: N_16  and  C_17
REMARK    9  A    between atoms: C_17  and  C_18
REMARK   10  A    between atoms: C_27  and  N_30
REMARK   11  A    between atoms: C_31  and  C_33
REMARK                            x       y       z     vdW  Elec       q    Type
REMARK                         _______ _______ _______ _____ _____    ______ ____
ROOT
ATOM      1  C   UNL     1      -4.368  -4.368  -0.184  0.00  0.00    +0.210 C 
ATOM      2  C   UNL     1      -5.012  -4.266  -1.587  0.00  0.00    +0.238 C 
ATOM      3  O   UNL     1      -4.754  -5.575  -2.132  0.00  0.00    -0.440 OA
ATOM      4  C   UNL     1      -4.641  -6.436  -1.107  0.00  0.00    +0.405 C 
ATOM      5  O   UNL     1      -4.750  -7.641  -1.226  0.00  0.00    -0.226 OA
ATOM      6  N   UNL     1      -4.394  -5.822   0.071  0.00  0.00    -0.248 N 
ENDROOT
BRANCH   2   7
ATOM      7  C   UNL     1      -4.340  -3.198  -2.411  0.00  0.00    -0.005 A 
ATOM      8  C   UNL     1      -3.196  -3.497  -3.128  0.00  0.00    +0.009 A 
ATOM      9  C   UNL     1      -2.577  -2.521  -3.884  0.00  0.00    +0.024 A 
ATOM     10  C   UNL     1      -3.106  -1.237  -3.925  0.00  0.00    +0.034 A 
ATOM     11  C   UNL     1      -4.255  -0.940  -3.204  0.00  0.00    +0.024 A 
ATOM     12  C   UNL     1      -4.872  -1.922  -2.454  0.00  0.00    +0.009 A 
BRANCH  10  13
ATOM     13  N   UNL     1      -2.482  -0.246  -4.689  0.00  0.00    -0.281 N 
ATOM     14  C   UNL     1      -3.224   0.688  -5.316  0.00  0.00    +0.255 C 
ATOM     15  O   UNL     1      -4.430   0.720  -5.150  0.00  0.00    -0.269 OA
ATOM     16  H   UNL     1      -1.516  -0.231  -4.768  0.00  0.00    +0.155 HD
BRANCH  14  17
ATOM     17  C   UNL     1      -2.580   1.665  -6.198  0.00  0.00    +0.074 A 
ATOM     18  C   UNL     1      -3.153   2.698  -6.924  0.00  0.00    +0.021 A 
ATOM     19  C   UNL     1      -2.283   3.457  -7.670  0.00  0.00    +0.008 A 
ATOM     20  C   UNL     1      -0.961   3.156  -7.649  0.00  0.00    +0.046 A 
ATOM     21  S   UNL     1      -0.855   1.839  -6.612  0.00  0.00    -0.092 S 
ENDBRANCH  14  17
ENDBRANCH  10  13
ENDBRANCH   2   7
BRANCH   1  23
ATOM     22  N   UNL     1      -2.716  -2.529  -0.103  0.00  0.00    -0.315 N 
ATOM     23  C   UNL     1      -2.952  -3.852  -0.205  0.00  0.00    +0.238 C 
ATOM     24  O   UNL     1      -2.026  -4.628  -0.312  0.00  0.00    -0.274 OA
ATOM     25  H   UNL     1      -3.457  -1.909  -0.017  0.00  0.00    +0.149 HD
BRANCH  22  26
ATOM     26  C   UNL     1      -1.339  -2.028  -0.123  0.00  0.00    +0.085 C 
BRANCH  26  27
ATOM     27  C   UNL     1      -1.350  -0.503   0.007  0.00  0.00    -0.061 C 
BRANCH  27  29
ATOM     28  C   UNL     1       0.016   1.469  -0.009  0.00  0.00    -0.097 C 
ATOM     29  N   UNL     1       0.030  -0.000  -0.013  0.00  0.00    +0.377 N 
ATOM     30  C   UNL     1       0.746  -0.486   1.174  0.00  0.00    -0.097 C 
ATOM     31  H   UNL     1       0.496  -0.330  -0.845  0.00  0.00    -0.083 HD
ENDBRANCH  27  29
ENDBRANCH  26  27
ENDBRANCH  22  26
ENDBRANCH   1  23
BRANCH   6  32
ATOM     32  C   UNL     1      -4.189  -6.475   1.366  0.00  0.00    +0.147 C 
BRANCH  32  33
ATOM     33  C   UNL     1      -5.514  -6.629   2.067  0.00  0.00    -0.030 A 
ATOM     34  C   UNL     1      -5.977  -5.628   2.900  0.00  0.00    +0.005 A 
ATOM     35  C   UNL     1      -7.192  -5.769   3.542  0.00  0.00    +0.000 A 
ATOM     36  C   UNL     1      -7.946  -6.912   3.351  0.00  0.00    +0.000 A 
ATOM     37  C   UNL     1      -7.485  -7.913   2.517  0.00  0.00    +0.000 A 
ATOM     38  C   UNL     1      -6.271  -7.770   1.872  0.00  0.00    +0.005 A 
ENDBRANCH  32  33
ENDBRANCH   6  32
TORSDOF 9
