REMARK  Name = ZINC58881265
REMARK  8 active torsions:
REMARK  status: ('A' for Active; 'I' for Inactive)
REMARK    1  A    between atoms: C_4  and  N_7
REMARK    2  A    between atoms: C_8  and  C_10
REMARK    3  A    between atoms: C_10  and  O_11
REMARK    4  A    between atoms: O_11  and  C_12
REMARK    5  A    between atoms: C_15  and  C_18
REMARK    6  A    between atoms: N_19  and  N_20
REMARK    7  A    between atoms: C_21  and  C_23
REMARK    8  A    between atoms: N_25  and  C_26
REMARK                            x       y       z     vdW  Elec       q    Type
REMARK                         _______ _______ _______ _____ _____    ______ ____
ROOT
ATOM      1  C   UNL     1       5.902  -4.933  -0.142  0.00  0.00    +0.121 A 
ATOM      2  C   UNL     1       7.179  -4.411  -0.301  0.00  0.00    +0.046 A 
ATOM      3  C   UNL     1       8.280  -5.235  -0.209  0.00  0.00    +0.013 A 
ATOM      4  C   UNL     1       8.109  -6.598   0.046  0.00  0.00    -0.005 A 
ATOM      5  C   UNL     1       6.822  -7.120   0.206  0.00  0.00    +0.013 A 
ATOM      6  C   UNL     1       5.728  -6.287   0.117  0.00  0.00    +0.046 A 
ENDROOT
BRANCH   4   7
ATOM      7  C   UNL     1       9.283  -7.484   0.146  0.00  0.00    +0.138 C 
ATOM      8  N   UNL     1       9.122  -8.751   0.383  0.00  0.00    -0.187 NA
BRANCH   8   9
ATOM      9  N   UNL     1      10.238  -9.593   0.477  0.00  0.00    -0.199 N 
ATOM     10  C   UNL     1      10.071 -10.908   0.723  0.00  0.00    +0.318 C 
ATOM     11  O   UNL     1       8.953 -11.363   0.863  0.00  0.00    -0.263 OA
ATOM     12  H   UNL     1      11.130  -9.230   0.366  0.00  0.00    +0.178 HD
BRANCH  10  13
ATOM     13  C   UNL     1      11.258 -11.804   0.824  0.00  0.00    +0.305 C 
ATOM     14  O   UNL     1      12.375 -11.349   0.684  0.00  0.00    -0.265 OA
ATOM     15  N   UNL     1      11.091 -13.118   1.070  0.00  0.00    -0.278 N 
ATOM     16  H   UNL     1      10.198 -13.495   1.107  0.00  0.00    +0.155 HD
BRANCH  15  17
ATOM     17  C   UNL     1      12.205 -13.938   1.271  0.00  0.00    +0.034 A 
ATOM     18  C   UNL     1      12.180 -15.262   0.849  0.00  0.00    +0.024 A 
ATOM     19  C   UNL     1      13.282 -16.070   1.048  0.00  0.00    +0.017 A 
ATOM     20  C   UNL     1      14.411 -15.562   1.668  0.00  0.00    +0.018 A 
ATOM     21  C   UNL     1      14.439 -14.244   2.089  0.00  0.00    +0.017 A 
ATOM     22  C   UNL     1      13.341 -13.430   1.887  0.00  0.00    +0.024 A 
ATOM     23 BR   UNL     1      15.918 -16.672   1.939  0.00  0.00    -0.050 Br
ENDBRANCH  15  17
ENDBRANCH  10  13
ENDBRANCH   8   9
ENDBRANCH   4   7
BRANCH   1  24
ATOM     24  O   UNL     1       4.820  -4.117  -0.234  0.00  0.00    -0.483 OA
BRANCH  24  25
ATOM     25  C   UNL     1       5.071  -2.736  -0.502  0.00  0.00    +0.324 C 
BRANCH  25  27
ATOM     26  N   UNL     1       3.752  -0.666  -0.813  0.00  0.00    -0.283 N 
ATOM     27  C   UNL     1       3.762  -1.992  -0.569  0.00  0.00    +0.255 C 
ATOM     28  O   UNL     1       2.717  -2.586  -0.403  0.00  0.00    -0.272 OA
ATOM     29  H   UNL     1       4.580  -0.205  -1.019  0.00  0.00    +0.155 HD
BRANCH  26  33
ATOM     30  C   UNL     1       0.166   1.450  -0.680  0.00  0.00    +0.000 A 
ATOM     31  C   UNL     1       0.361   0.370   0.162  0.00  0.00    +0.002 A 
ATOM     32  C   UNL     1       1.549  -0.333   0.120  0.00  0.00    +0.023 A 
ATOM     33  C   UNL     1       2.547   0.044  -0.769  0.00  0.00    +0.033 A 
ATOM     34  C   UNL     1       2.348   1.129  -1.613  0.00  0.00    +0.023 A 
ATOM     35  C   UNL     1       1.158   1.828  -1.566  0.00  0.00    +0.002 A 
ENDBRANCH  26  33
ENDBRANCH  25  27
ENDBRANCH  24  25
ENDBRANCH   1  24
TORSDOF 8
