REMARK  Name = ZINC10048923
REMARK  10 active torsions:
REMARK  status: ('A' for Active; 'I' for Inactive)
REMARK    1  A    between atoms: C_1  and  C_2
REMARK    2  A    between atoms: C_7  and  N_8
REMARK    3  A    between atoms: C_9  and  C_34
REMARK    4  A    between atoms: N_18  and  C_23
REMARK    5  A    between atoms: N_21  and  C_22
REMARK    6  A    between atoms: C_23  and  C_24
REMARK    7  A    between atoms: C_24  and  C_25
REMARK    8  A    between atoms: C_25  and  N_26
REMARK    9  A    between atoms: N_26  and  C_27
REMARK   10  A    between atoms: C_32  and  N_33
REMARK                            x       y       z     vdW  Elec       q    Type
REMARK                         _______ _______ _______ _____ _____    ______ ____
ROOT
ATOM      1  N   UNL     1       2.445   2.178   4.936  0.00  0.00    -0.282 N 
ATOM      2  C   UNL     1       1.813   2.625   6.082  0.00  0.00    +0.040 A 
ATOM      3  C   UNL     1       0.516   2.752   5.819  0.00  0.00    +0.116 A 
ATOM      4  N   UNL     1       0.300   2.389   4.501  0.00  0.00    -0.277 N 
ATOM      5  C   UNL     1       1.490   2.036   3.960  0.00  0.00    +0.223 A 
ATOM      6  N   UNL     1       1.309   1.684   2.696  0.00  0.00    -0.193 NA
ATOM      7  C   UNL     1       0.023   1.793   2.374  0.00  0.00    +0.170 A 
ATOM      8  C   UNL     1      -0.655   2.242   3.507  0.00  0.00    +0.157 A 
ATOM      9  C   UNL     1      -2.044   2.443   3.438  0.00  0.00    +0.283 A 
ATOM     10  O   UNL     1      -2.658   2.835   4.415  0.00  0.00    -0.265 OA
ATOM     11  N   UNL     1      -2.691   2.197   2.280  0.00  0.00    -0.259 N 
ATOM     12  C   UNL     1      -2.028   1.770   1.192  0.00  0.00    +0.333 A 
ATOM     13  O   UNL     1      -2.645   1.565   0.165  0.00  0.00    -0.246 OA
ATOM     14  N   UNL     1      -0.698   1.558   1.213  0.00  0.00    -0.279 N 
ATOM     15  C   UNL     1      -0.013   1.086   0.008  0.00  0.00    +0.155 C 
ATOM     16  C   UNL     1       2.479   2.916   7.402  0.00  0.00    +0.065 C 
ENDROOT
BRANCH   1  23
ATOM     17  C   UNL     1       3.381  -0.443   5.529  0.00  0.00    +0.046 C 
ATOM     18  C   UNL     1       4.312   0.652   5.075  0.00  0.00    -0.026 A 
ATOM     19  C   UNL     1       5.662   0.396   4.931  0.00  0.00    +0.007 A 
ATOM     20  C   UNL     1       6.518   1.401   4.520  0.00  0.00    +0.020 A 
ATOM     21  C   UNL     1       6.025   2.665   4.246  0.00  0.00    +0.043 A 
ATOM     22  C   UNL     1       4.675   2.925   4.383  0.00  0.00    +0.046 A 
ATOM     23  C   UNL     1       3.813   1.917   4.796  0.00  0.00    +0.054 A 
ATOM     24 CL   UNL     1       7.103   3.924   3.730  0.00  0.00    -0.083 Cl
ENDBRANCH   1  23
BRANCH  11  25
ATOM     25  C   UNL     1      -4.139   2.406   2.206  0.00  0.00    +0.131 C 
BRANCH  25  26
ATOM     26  C   UNL     1      -4.425   3.844   1.769  0.00  0.00    +0.040 C 
BRANCH  26  27
ATOM     27  C   UNL     1      -5.938   4.062   1.691  0.00  0.00    +0.103 C 
BRANCH  27  28
ATOM     28  N   UNL     1      -6.212   5.439   1.272  0.00  0.00    -0.342 N 
ATOM     29  H   UNL     1      -5.477   6.046   1.093  0.00  0.00    +0.146 HD
BRANCH  28  30
ATOM     30  C   UNL     1      -7.534   5.877   1.129  0.00  0.00    +0.048 A 
ATOM     31  C   UNL     1      -8.585   5.008   1.378  0.00  0.00    +0.025 A 
ATOM     32  C   UNL     1      -9.890   5.444   1.241  0.00  0.00    +0.002 A 
ATOM     33  C   UNL     1     -10.151   6.743   0.845  0.00  0.00    +0.002 A 
ATOM     34  C   UNL     1      -9.108   7.615   0.590  0.00  0.00    +0.024 A 
ATOM     35  C   UNL     1      -7.797   7.187   0.730  0.00  0.00    +0.046 A 
BRANCH  35  36
ATOM     36  N   UNL     1      -6.739   8.068   0.472  0.00  0.00    -0.357 N 
ATOM     37  H   UNL     1      -5.823   7.768   0.570  0.00  0.00    +0.142 HD
ATOM     38  H   UNL     1      -6.924   8.979   0.194  0.00  0.00    +0.142 HD
ENDBRANCH  35  36
ENDBRANCH  28  30
ENDBRANCH  27  28
ENDBRANCH  26  27
ENDBRANCH  25  26
ENDBRANCH  11  25
TORSDOF 7
