REMARK  Name = ZINC60559667
REMARK  8 active torsions:
REMARK  status: ('A' for Active; 'I' for Inactive)
REMARK    1  A    between atoms: C_1  and  N_2
REMARK    2  A    between atoms: N_2  and  C_3
REMARK    3  A    between atoms: C_6  and  N_27
REMARK    4  A    between atoms: C_8  and  C_9
REMARK    5  A    between atoms: N_11  and  C_12
REMARK    6  A    between atoms: C_16  and  C_18
REMARK    7  A    between atoms: C_18  and  N_19
REMARK    8  A    between atoms: C_23  and  C_24
REMARK                            x       y       z     vdW  Elec       q    Type
REMARK                         _______ _______ _______ _____ _____    ______ ____
ROOT
ATOM      1  C   UNL     1       1.207  -5.054  -0.405  0.00  0.00    +0.034 A 
ATOM      2  C   UNL     1       2.411  -4.368  -0.301  0.00  0.00    +0.023 A 
ATOM      3  C   UNL     1       3.603  -5.063  -0.311  0.00  0.00    +0.002 A 
ATOM      4  C   UNL     1       3.601  -6.442  -0.424  0.00  0.00    +0.002 A 
ATOM      5  C   UNL     1       2.405  -7.128  -0.528  0.00  0.00    -0.062 A 
ATOM      6  C   UNL     1       1.208  -6.438  -0.513  0.00  0.00    +0.025 A 
ENDROOT
BRANCH   1   9
ATOM      7  C   UNL     1      -0.073  -3.122  -0.940  0.00  0.00    +0.250 C 
ATOM      8  O   UNL     1       0.888  -2.660  -1.525  0.00  0.00    -0.270 OA
ATOM      9  N   UNL     1      -0.003  -4.352  -0.394  0.00  0.00    -0.281 N 
ATOM     10  H   UNL     1      -0.791  -4.751   0.006  0.00  0.00    +0.155 HD
BRANCH   7  16
ATOM     11  C   UNL     1      -1.434  -1.106  -1.493  0.00  0.00    +0.039 A 
ATOM     12  C   UNL     1      -2.613  -0.377  -1.385  0.00  0.00    +0.026 A 
ATOM     13  C   UNL     1      -3.656  -0.861  -0.623  0.00  0.00    +0.034 A 
ATOM     14  C   UNL     1      -3.540  -2.073   0.039  0.00  0.00    +0.127 A 
ATOM     15  C   UNL     1      -2.380  -2.809  -0.056  0.00  0.00    +0.047 A 
ATOM     16  C   UNL     1      -1.315  -2.336  -0.829  0.00  0.00    +0.060 A 
BRANCH  11  18
ATOM     17  C   UNL     1      -0.557   0.593  -3.060  0.00  0.00    +0.125 C 
ATOM     18  N   UNL     1      -0.382  -0.621  -2.258  0.00  0.00    -0.346 N 
ATOM     19  H   UNL     1       0.469  -1.086  -2.263  0.00  0.00    +0.146 HD
ENDBRANCH  11  18
BRANCH  14  20
ATOM     20  N   UNL     1      -4.668  -2.579   0.853  0.00  0.00    +0.056 N 
ATOM     21  O   UNL     1      -5.688  -1.935   0.939  0.00  0.00    -0.126 OA
ATOM     22  O   UNL     1      -4.570  -3.636   1.431  0.00  0.00    -0.126 OA
ENDBRANCH  14  20
ENDBRANCH   7  16
ENDBRANCH   1   9
BRANCH   5  23
ATOM     23  C   UNL     1       2.407  -8.630  -0.652  0.00  0.00    -0.042 C 
BRANCH  23  24
ATOM     24  N   UNL     1       2.353  -9.232   0.687  0.00  0.00    +0.390 N 
ATOM     25  C   UNL     1       3.597  -8.919   1.423  0.00  0.00    -0.077 C 
ATOM     26  C   UNL     1       3.891 -10.188   2.260  0.00  0.00    -0.020 C 
ATOM     27  C   UNL     1       3.452 -11.314   1.287  0.00  0.00    -0.008 C 
ATOM     28  C   UNL     1       2.234 -10.696   0.568  0.00  0.00    +0.019 C 
ATOM     29  H   UNL     1       1.561  -8.866   1.193  0.00  0.00    -0.080 HD
BRANCH  28  30
ATOM     30  C   UNL     1       0.960 -11.162   1.224  0.00  0.00    +0.197 C 
ATOM     31  O   UNL     1       0.217 -10.357   1.744  0.00  0.00    -0.278 OA
ATOM     32  N   UNL     1       0.647 -12.473   1.234  0.00  0.00    -0.331 N 
ATOM     33  H   UNL     1       1.242 -13.117   0.818  0.00  0.00    +0.145 HD
ATOM     34  H   UNL     1      -0.173 -12.773   1.657  0.00  0.00    +0.145 HD
ENDBRANCH  28  30
ENDBRANCH  23  24
ENDBRANCH   5  23
TORSDOF 7
