REMARK  Name = ZINC39228587
REMARK  9 active torsions:
REMARK  status: ('A' for Active; 'I' for Inactive)
REMARK    1  A    between atoms: C_1  and  O_2
REMARK    2  A    between atoms: O_2  and  C_3
REMARK    3  A    between atoms: C_6  and  O_39
REMARK    4  A    between atoms: C_7  and  C_9
REMARK    5  A    between atoms: N_23  and  C_24
REMARK    6  A    between atoms: C_24  and  C_25
REMARK    7  A    between atoms: N_27  and  C_28
REMARK    8  A    between atoms: C_33  and  N_34
REMARK    9  A    between atoms: O_39  and  C_40
REMARK                            x       y       z     vdW  Elec       q    Type
REMARK                         _______ _______ _______ _____ _____    ______ ____
ROOT
ATOM      1  C   UNL     1       1.546  -4.321   2.241  0.00  0.00    +0.015 C 
ATOM      2  C   UNL     1       0.507  -4.856   3.197  0.00  0.00    +0.011 A 
ATOM      3  H   UNL     1       1.395  -4.740   5.077  0.00  0.00    +0.166 HD
ATOM      4  C   UNL     1      -0.709  -5.289   2.793  0.00  0.00    -0.022 A 
ATOM      5  C   UNL     1      -1.422  -5.726   3.972  0.00  0.00    +0.003 A 
ATOM      6  C   UNL     1      -2.698  -6.262   4.168  0.00  0.00    +0.010 A 
ATOM      7  C   UNL     1      -3.051  -6.569   5.459  0.00  0.00    +0.001 A 
ATOM      8  C   UNL     1      -2.193  -6.362   6.526  0.00  0.00    +0.002 A 
ATOM      9  C   UNL     1      -0.924  -5.834   6.361  0.00  0.00    +0.026 A 
ATOM     10  C   UNL     1      -0.538  -5.513   5.062  0.00  0.00    +0.047 A 
ATOM     11  N   UNL     1       0.616  -4.986   4.554  0.00  0.00    -0.359 N 
ATOM     12  C   UNL     1      -1.155  -5.277   1.352  0.00  0.00    +0.019 C 
ATOM     13  C   UNL     1      -0.193  -4.369   0.572  0.00  0.00    -0.072 C 
ATOM     14  N   UNL     1       1.198  -4.746   0.876  0.00  0.00    +0.394 N 
ATOM     15  H   UNL     1       1.296  -5.748   0.803  0.00  0.00    -0.080 HD
ENDROOT
BRANCH   1  20
ATOM     16  C   UNL     1       0.466  -0.740   2.777  0.00  0.00    +0.121 A 
ATOM     17  C   UNL     1       1.620  -0.048   2.438  0.00  0.00    +0.049 A 
ATOM     18  C   UNL     1       2.746  -0.739   2.036  0.00  0.00    +0.049 A 
ATOM     19  C   UNL     1       2.724  -2.124   1.972  0.00  0.00    +0.122 A 
ATOM     20  C   UNL     1       1.571  -2.816   2.311  0.00  0.00    -0.010 A 
ATOM     21  C   UNL     1       0.446  -2.125   2.718  0.00  0.00    +0.051 A 
BRANCH  16  23
ATOM     22  C   UNL     1      -0.551   1.366   3.210  0.00  0.00    +0.277 C 
ATOM     23  O   UNL     1      -0.643  -0.059   3.172  0.00  0.00    -0.495 OA
ENDBRANCH  16  23
BRANCH  19  24
ATOM     24  O   UNL     1       3.833  -2.805   1.575  0.00  0.00    -0.495 OA
ATOM     25  C   UNL     1       4.985  -2.029   1.240  0.00  0.00    +0.277 C 
ENDBRANCH  19  24
ENDBRANCH   1  20
BRANCH  14  26
ATOM     26  C   UNL     1       2.104  -4.099  -0.082  0.00  0.00    +0.020 C 
BRANCH  26  27
ATOM     27  C   UNL     1       1.858  -4.655  -1.460  0.00  0.00    +0.201 C 
ATOM     28  O   UNL     1       1.011  -5.507  -1.629  0.00  0.00    -0.278 OA
ATOM     29  N   UNL     1       2.580  -4.206  -2.507  0.00  0.00    -0.285 N 
ATOM     30  H   UNL     1       3.300  -3.573  -2.363  0.00  0.00    +0.155 HD
BRANCH  29  31
ATOM     31  C   UNL     1       2.289  -4.654  -3.801  0.00  0.00    +0.057 A 
ATOM     32  C   UNL     1       1.832  -5.948  -4.003  0.00  0.00    +0.025 A 
ATOM     33  C   UNL     1       1.546  -6.388  -5.282  0.00  0.00    +0.002 A 
ATOM     34  C   UNL     1       1.714  -5.541  -6.362  0.00  0.00    +0.002 A 
ATOM     35  C   UNL     1       2.168  -4.250  -6.170  0.00  0.00    +0.028 A 
ATOM     36  C   UNL     1       2.452  -3.799  -4.890  0.00  0.00    +0.067 A 
BRANCH  36  37
ATOM     37  N   UNL     1       2.908  -2.487  -4.692  0.00  0.00    -0.321 N 
ATOM     38  C   UNL     1       2.406  -1.598  -3.785  0.00  0.00    +0.091 A 
ATOM     39  C   UNL     1       3.102  -0.448  -3.893  0.00  0.00    +0.019 A 
ATOM     40  C   UNL     1       4.069  -0.631  -4.902  0.00  0.00    +0.019 A 
ATOM     41  C   UNL     1       3.932  -1.889  -5.370  0.00  0.00    +0.091 A 
ENDBRANCH  36  37
ENDBRANCH  29  31
ENDBRANCH  26  27
ENDBRANCH  14  26
TORSDOF 7
