REMARK  Name = ZINC43193633
REMARK  12 active torsions:
REMARK  status: ('A' for Active; 'I' for Inactive)
REMARK    1  A    between atoms: C_1  and  C_2
REMARK    2  A    between atoms: C_1  and  O_36
REMARK    3  A    between atoms: C_4  and  O_14
REMARK    4  A    between atoms: C_6  and  O_13
REMARK    5  A    between atoms: C_8  and  C_11
REMARK    6  A    between atoms: O_14  and  C_15
REMARK    7  A    between atoms: C_17  and  O_31
REMARK    8  A    between atoms: C_19  and  O_30
REMARK    9  A    between atoms: C_21  and  O_29
REMARK   10  A    between atoms: C_23  and  C_26
REMARK   11  A    between atoms: O_31  and  S_32
REMARK   12  A    between atoms: O_36  and  S_37
REMARK                            x       y       z     vdW  Elec       q    Type
REMARK                         _______ _______ _______ _____ _____    ______ ____
ROOT
ATOM      1  C   UNL     1      -3.256  -0.522   1.668  0.00  0.00    +0.286 C 
ATOM      2  C   UNL     1      -3.550  -0.420   3.167  0.00  0.00    +0.238 C 
ATOM      3  C   UNL     1      -5.064  -0.309   3.375  0.00  0.00    +0.182 C 
ATOM      4  C   UNL     1      -5.747  -1.519   2.730  0.00  0.00    +0.186 C 
ATOM      5  C   UNL     1      -5.368  -1.579   1.248  0.00  0.00    +0.265 C 
ATOM      6  O   UNL     1      -3.946  -1.649   1.124  0.00  0.00    -0.331 OA
ENDROOT
BRANCH   5   7
ATOM      7  C   UNL     1      -5.988  -2.800   0.620  0.00  0.00    +0.387 C 
ATOM      8  O   UNL     1      -7.201  -2.894   0.538  0.00  0.00    -0.243 OA
ATOM      9  O   UNL     1      -5.277  -3.694   0.193  0.00  0.00    -0.243 OA
ENDBRANCH   5   7
BRANCH   4  10
ATOM     10  O   UNL     1      -5.316  -2.715   3.383  0.00  0.00    -0.386 OA
ATOM     11  H   UNL     1      -5.710  -3.522   3.025  0.00  0.00    +0.210 HD
ENDBRANCH   4  10
BRANCH   3  12
ATOM     12  O   UNL     1      -5.353  -0.285   4.775  0.00  0.00    -0.386 OA
ATOM     13  H   UNL     1      -6.295  -0.216   4.981  0.00  0.00    +0.210 HD
ENDBRANCH   3  12
BRANCH   1  14
ATOM     14  O   UNL     1      -1.850  -0.681   1.468  0.00  0.00    -0.340 OA
BRANCH  14  16
ATOM     15  C   UNL     1       0.002  -0.004   0.002  0.00  0.00    +0.179 C 
ATOM     16  C   UNL     1      -1.440  -0.562   0.104  0.00  0.00    +0.184 C 
ATOM     17  C   UNL     1      -1.263  -1.958  -0.552  0.00  0.00    +0.182 C 
ATOM     18  C   UNL     1      -0.197  -1.679  -1.633  0.00  0.00    +0.212 C 
ATOM     19  O   UNL     1       0.506  -0.489  -1.253  0.00  0.00    -0.358 OA
BRANCH  18  20
ATOM     20  C   UNL     1       0.765  -2.837  -1.714  0.00  0.00    +0.257 C 
ATOM     21  O   UNL     1       1.941  -2.661  -1.504  0.00  0.00    -0.298 OA
ENDBRANCH  18  20
BRANCH  17  22
ATOM     22  O   UNL     1      -0.789  -2.912   0.401  0.00  0.00    -0.386 OA
ATOM     23  H   UNL     1      -0.662  -3.800   0.039  0.00  0.00    +0.210 HD
ENDBRANCH  17  22
BRANCH  15  24
ATOM     24  C   UNL     1      -0.019   1.526   0.010  0.00  0.00    +0.230 C 
BRANCH  24  25
ATOM     25  O   UNL     1       1.322   2.020   0.000  0.00  0.00    -0.211 OA
BRANCH  25  26
ATOM     26  S   UNL     1       1.421   3.539   0.007  0.00  0.00    +0.238 S 
ATOM     27  O   UNL     1       2.787   3.875  -0.364  0.00  0.00    -0.116 OA
ATOM     28  O   UNL     1       0.458   4.030  -0.965  0.00  0.00    -0.116 OA
ATOM     29  O   UNL     1       1.103   3.977   1.357  0.00  0.00    -0.022 OA
ENDBRANCH  25  26
ENDBRANCH  24  25
ENDBRANCH  15  24
ENDBRANCH  14  16
ENDBRANCH   1  14
BRANCH   2  30
ATOM     30  O   UNL     1      -3.059  -1.586   3.830  0.00  0.00    -0.203 OA
BRANCH  30  31
ATOM     31  S   UNL     1      -1.666  -1.422   4.421  0.00  0.00    +0.239 S 
ATOM     32  O   UNL     1      -1.177  -2.757   4.727  0.00  0.00    -0.116 OA
ATOM     33  O   UNL     1      -0.854  -0.764   3.409  0.00  0.00    -0.116 OA
ATOM     34  O   UNL     1      -1.808  -0.607   5.618  0.00  0.00    -0.022 OA
ENDBRANCH  30  31
ENDBRANCH   2  30
TORSDOF 12
