REMARK  Name = ZINC09245586
REMARK  9 active torsions:
REMARK  status: ('A' for Active; 'I' for Inactive)
REMARK    1  A    between atoms: C_1  and  C_2
REMARK    2  A    between atoms: C_2  and  C_3
REMARK    3  A    between atoms: C_3  and  C_28
REMARK    4  A    between atoms: N_6  and  C_10
REMARK    5  A    between atoms: C_10  and  C_11
REMARK    6  A    between atoms: N_13  and  C_14
REMARK    7  A    between atoms: C_19  and  O_20
REMARK    8  A    between atoms: O_20  and  C_21
REMARK    9  A    between atoms: C_25  and  C_27
REMARK                            x       y       z     vdW  Elec       q    Type
REMARK                         _______ _______ _______ _____ _____    ______ ____
ROOT
ATOM      1  C   UNL     1      -1.226  -2.057  -0.284  0.00  0.00    +0.235 C 
ATOM      2  O   UNL     1      -0.188  -2.665  -0.124  0.00  0.00    -0.274 OA
ATOM      3  N   UNL     1      -1.229  -0.710  -0.251  0.00  0.00    -0.281 N 
ATOM      4  H   UNL     1      -2.068  -0.226  -0.303  0.00  0.00    +0.155 HD
ENDROOT
BRANCH   3   5
ATOM      5  C   UNL     1      -0.021  -0.009  -0.142  0.00  0.00    +0.076 A 
ATOM      6  C   UNL     1       1.177  -0.633  -0.460  0.00  0.00    +0.027 A 
ATOM      7  C   UNL     1       2.367   0.060  -0.351  0.00  0.00    +0.002 A 
ATOM      8  C   UNL     1       2.369   1.376   0.074  0.00  0.00    +0.004 A 
ATOM      9  C   UNL     1       1.179   2.005   0.392  0.00  0.00    +0.048 A 
ATOM     10  C   UNL     1      -0.019   1.317   0.286  0.00  0.00    +0.150 A 
BRANCH  10  11
ATOM     11  O   UNL     1      -1.190   1.935   0.594  0.00  0.00    -0.454 OA
BRANCH  11  12
ATOM     12  C   UNL     1      -1.673   1.795   1.856  0.00  0.00    +0.129 A 
ATOM     13  C   UNL     1      -1.016   0.976   2.765  0.00  0.00    +0.046 A 
ATOM     14  C   UNL     1      -1.510   0.835   4.047  0.00  0.00    +0.004 A 
ATOM     15  C   UNL     1      -2.657   1.508   4.426  0.00  0.00    +0.003 A 
ATOM     16  C   UNL     1      -3.313   2.324   3.523  0.00  0.00    -0.047 A 
ATOM     17  C   UNL     1      -2.820   2.473   2.241  0.00  0.00    +0.049 A 
ATOM     18  C   UNL     1      -4.562   3.056   3.939  0.00  0.00    +0.044 C 
ENDBRANCH  11  12
ENDBRANCH  10  11
ENDBRANCH   3   5
BRANCH   1  19
ATOM     19  C   UNL     1      -2.511  -2.808  -0.519  0.00  0.00    +0.214 C 
BRANCH  19  23
ATOM     20  C   UNL     1      -1.949  -6.422   0.130  0.00  0.00    +0.138 C 
ATOM     21  C   UNL     1      -2.290  -5.020   0.595  0.00  0.00    +0.251 C 
ATOM     22  O   UNL     1      -2.552  -4.667   1.725  0.00  0.00    -0.272 OA
ATOM     23  N   UNL     1      -2.244  -4.249  -0.509  0.00  0.00    -0.215 N 
ATOM     24  C   UNL     1      -1.928  -4.962  -1.596  0.00  0.00    +0.310 C 
ATOM     25  O   UNL     1      -1.830  -4.487  -2.711  0.00  0.00    -0.252 OA
ATOM     26  N   UNL     1      -1.729  -6.263  -1.318  0.00  0.00    -0.281 N 
ATOM     27  H   UNL     1      -1.490  -6.960  -1.948  0.00  0.00    +0.152 HD
BRANCH  20  28
ATOM     28  C   UNL     1      -3.098  -7.362   0.392  0.00  0.00    -0.015 A 
ATOM     29  C   UNL     1      -3.165  -8.057   1.585  0.00  0.00    +0.006 A 
ATOM     30  C   UNL     1      -4.221  -8.915   1.826  0.00  0.00    +0.000 A 
ATOM     31  C   UNL     1      -5.205  -9.086   0.871  0.00  0.00    +0.000 A 
ATOM     32  C   UNL     1      -5.136  -8.394  -0.324  0.00  0.00    +0.000 A 
ATOM     33  C   UNL     1      -4.082  -7.533  -0.564  0.00  0.00    +0.006 A 
ENDBRANCH  20  28
BRANCH  20  35
ATOM     34  C   UNL     1       0.483  -5.982   0.495  0.00  0.00    +0.007 C 
ATOM     35  C   UNL     1      -0.678  -6.923   0.819  0.00  0.00    +0.037 C 
ENDBRANCH  20  35
ENDBRANCH  19  23
ENDBRANCH   1  19
TORSDOF 7
