REMARK  Name = ZINC00698022
REMARK  12 active torsions:
REMARK  status: ('A' for Active; 'I' for Inactive)
REMARK    1  A    between atoms: C_1  and  C_2
REMARK    2  A    between atoms: C_2  and  C_3
REMARK    3  A    between atoms: C_4  and  C_31
REMARK    4  A    between atoms: C_5  and  N_10
REMARK    5  A    between atoms: C_7  and  C_9
REMARK    6  A    between atoms: N_19  and  C_20
REMARK    7  A    between atoms: C_23  and  C_26
REMARK    8  A    between atoms: C_26  and  O_28
REMARK    9  A    between atoms: O_28  and  C_29
REMARK   10  A    between atoms: C_29  and  C_30
REMARK   11  A    between atoms: C_31  and  C_32
REMARK   12  A    between atoms: C_35  and  C_38
REMARK                            x       y       z     vdW  Elec       q    Type
REMARK                         _______ _______ _______ _____ _____    ______ ____
ROOT
ATOM      1  N   UNL     1      -0.676  -1.092  -3.788  0.00  0.00    -0.313 N 
ATOM      2  C   UNL     1      -0.096  -0.578  -5.038  0.00  0.00    +0.108 C 
ATOM      3  C   UNL     1      -0.741  -1.193  -6.283  0.00  0.00    +0.038 C 
ATOM      4  C   UNL     1      -0.977  -2.675  -6.077  0.00  0.00    +0.111 C 
ATOM      5  N   UNL     1      -2.273  -2.841  -5.420  0.00  0.00    -0.284 N 
ATOM      6  C   UNL     1      -2.488  -2.717  -4.021  0.00  0.00    +0.128 C 
ATOM      7  C   UNL     1      -2.103  -1.281  -3.592  0.00  0.00    +0.125 C 
ATOM      8  C   UNL     1      -3.337  -3.131  -6.195  0.00  0.00    +0.306 C 
ATOM      9  O   UNL     1      -4.447  -3.193  -5.705  0.00  0.00    -0.252 OA
ATOM     10  N   UNL     1      -3.169  -3.353  -7.514  0.00  0.00    -0.269 N 
ATOM     11  H   UNL     1      -2.276  -3.390  -7.890  0.00  0.00    +0.156 HD
ENDROOT
BRANCH   1  14
ATOM     12  C   UNL     1       1.551  -0.796  -0.899  0.00  0.00    +0.050 A 
ATOM     13  C   UNL     1       0.702  -0.421  -1.922  0.00  0.00    +0.018 A 
ATOM     14  C   UNL     1       0.180  -1.417  -2.749  0.00  0.00    +0.129 A 
ATOM     15  N   UNL     1       0.518  -2.683  -2.524  0.00  0.00    -0.217 NA
ATOM     16  C   UNL     1       1.333  -2.996  -1.536  0.00  0.00    +0.128 A 
ATOM     17  N   UNL     1       1.845  -2.079  -0.741  0.00  0.00    -0.237 NA
ATOM     18  C   UNL     1       1.692  -4.443  -1.313  0.00  0.00    +0.088 C 
BRANCH  12  20
ATOM     19  C   UNL     1       3.415   0.812  -0.605  0.00  0.00    +0.010 C 
ATOM     20  C   UNL     1       2.142   0.241   0.021  0.00  0.00    +0.052 C 
ENDBRANCH  12  20
BRANCH  13  21
ATOM     21  C   UNL     1       0.347   1.028  -2.139  0.00  0.00    +0.075 C 
BRANCH  21  22
ATOM     22  C   UNL     1      -0.911   1.356  -1.376  0.00  0.00    -0.043 A 
ATOM     23  C   UNL     1      -2.147   1.147  -1.959  0.00  0.00    +0.004 A 
ATOM     24  C   UNL     1      -3.300   1.448  -1.259  0.00  0.00    +0.003 A 
ATOM     25  C   UNL     1      -3.218   1.958   0.023  0.00  0.00    -0.050 A 
ATOM     26  C   UNL     1      -1.982   2.167   0.606  0.00  0.00    +0.003 A 
ATOM     27  C   UNL     1      -0.828   1.861  -0.092  0.00  0.00    +0.004 A 
ATOM     28  C   UNL     1      -4.476   2.287   0.785  0.00  0.00    +0.044 C 
ENDBRANCH  21  22
ENDBRANCH  13  21
ENDBRANCH   1  14
BRANCH  10  29
ATOM     29  C   UNL     1      -4.280  -3.528  -8.338  0.00  0.00    +0.035 A 
ATOM     30  C   UNL     1      -5.428  -2.772  -8.125  0.00  0.00    +0.024 A 
ATOM     31  C   UNL     1      -6.527  -2.943  -8.936  0.00  0.00    +0.017 A 
ATOM     32  C   UNL     1      -6.489  -3.878  -9.975  0.00  0.00    +0.059 A 
ATOM     33  C   UNL     1      -5.333  -4.636 -10.186  0.00  0.00    +0.017 A 
ATOM     34  C   UNL     1      -4.236  -4.456  -9.374  0.00  0.00    +0.024 A 
BRANCH  32  35
ATOM     35  C   UNL     1      -7.664  -4.064 -10.846  0.00  0.00    +0.339 C 
ATOM     36  O   UNL     1      -8.668  -3.405 -10.661  0.00  0.00    -0.245 OA
BRANCH  35  37
ATOM     37  O   UNL     1      -7.625  -4.966 -11.846  0.00  0.00    -0.461 OA
BRANCH  37  38
ATOM     38  C   UNL     1      -8.799  -5.094 -12.650  0.00  0.00    +0.229 C 
ATOM     39  C   UNL     1      -8.567  -6.157 -13.726  0.00  0.00    +0.048 C 
ENDBRANCH  37  38
ENDBRANCH  35  37
ENDBRANCH  32  35
ENDBRANCH  10  29
TORSDOF 8
