REMARK  Name = ZINC62798405
REMARK  6 active torsions:
REMARK  status: ('A' for Active; 'I' for Inactive)
REMARK    1  A    between atoms: C_5  and  O_7
REMARK    2  A    between atoms: O_7  and  C_8
REMARK    3  A    between atoms: C_8  and  C_9
REMARK    4  A    between atoms: C_9  and  O_10
REMARK    5  A    between atoms: O_10  and  C_11
REMARK    6  A    between atoms: C_20  and  N_22
REMARK                            x       y       z     vdW  Elec       q    Type
REMARK                         _______ _______ _______ _____ _____    ______ ____
ROOT
ATOM      1  C   UNL     1      -0.017   1.377   0.010  0.00  0.00    +0.004 A 
ATOM      2  C   UNL     1       1.171   2.084   0.002  0.00  0.00    +0.002 A 
ATOM      3  C   UNL     1       2.383   1.415  -0.014  0.00  0.00    -0.055 A 
ATOM      4  C   UNL     1       2.407   0.033  -0.021  0.00  0.00    -0.004 A 
ATOM      5  C   UNL     1       1.214  -0.678  -0.014  0.00  0.00    +0.124 A 
ATOM      6  C   UNL     1       0.002  -0.004   0.002  0.00  0.00    +0.046 A 
ATOM      7  C   UNL     1       3.840  -0.454  -0.038  0.00  0.00    +0.038 C 
ATOM      8  C   UNL     1       4.676   0.766  -0.479  0.00  0.00    -0.007 C 
ATOM      9  C   UNL     1       3.799   1.951  -0.024  0.00  0.00    -0.044 C 
ENDROOT
BRANCH   9  10
ATOM     10  N   UNL     1       3.914   3.066  -0.974  0.00  0.00    +0.383 N 
ATOM     11  H   UNL     1       3.301   3.815  -0.690  0.00  0.00    -0.089 HD
ATOM     12  H   UNL     1       4.867   3.397  -0.989  0.00  0.00    -0.089 HD
ATOM     13  H   UNL     1       3.654   2.750  -1.897  0.00  0.00    -0.089 HD
ENDBRANCH   9  10
BRANCH   5  14
ATOM     14  O   UNL     1       1.234  -2.037  -0.021  0.00  0.00    -0.488 OA
BRANCH  14  15
ATOM     15  C   UNL     1      -0.030  -2.705  -0.013  0.00  0.00    +0.270 C 
BRANCH  15  16
ATOM     16  C   UNL     1       0.194  -4.218  -0.024  0.00  0.00    +0.270 C 
BRANCH  16  17
ATOM     17  O   UNL     1       0.838  -4.614   1.189  0.00  0.00    -0.489 OA
BRANCH  17  18
ATOM     18  C   UNL     1       1.111  -5.936   1.340  0.00  0.00    +0.121 A 
ATOM     19  C   UNL     1       0.770  -6.835   0.339  0.00  0.00    +0.047 A 
ATOM     20  C   UNL     1       1.048  -8.179   0.495  0.00  0.00    +0.019 A 
ATOM     21  C   UNL     1       1.665  -8.630   1.648  0.00  0.00    +0.018 A 
ATOM     22  C   UNL     1       2.006  -7.736   2.647  0.00  0.00    +0.019 A 
ATOM     23  C   UNL     1       1.736  -6.390   2.493  0.00  0.00    +0.047 A 
ATOM     24 BR   UNL     1       2.045 -10.470   1.858  0.00  0.00    -0.050 Br
ENDBRANCH  17  18
ENDBRANCH  16  17
ENDBRANCH  15  16
ENDBRANCH  14  15
ENDBRANCH   5  14
TORSDOF 6
