REMARK  Name = ZINC42953495
REMARK  8 active torsions:
REMARK  status: ('A' for Active; 'I' for Inactive)
REMARK    1  A    between atoms: C_1  and  C_2
REMARK    2  A    between atoms: C_2  and  C_4
REMARK    3  A    between atoms: C_2  and  N_22
REMARK    4  A    between atoms: C_4  and  C_6
REMARK    5  A    between atoms: C_4  and  N_13
REMARK    6  A    between atoms: N_16  and  C_19
REMARK    7  A    between atoms: C_19  and  C_20
REMARK    8  A    between atoms: C_20  and  O_21
REMARK                            x       y       z     vdW  Elec       q    Type
REMARK                         _______ _______ _______ _____ _____    ______ ____
ROOT
ATOM      1  C   UNL     1       0.742  -0.511   1.242  0.00  0.00    +0.072 C 
ENDROOT
BRANCH   1   2
ATOM      2  C   UNL     1       0.671  -2.012   1.129  0.00  0.00    -0.032 A 
ATOM      3  C   UNL     1       0.476  -2.604  -0.104  0.00  0.00    +0.006 A 
ATOM      4  C   UNL     1       0.412  -3.981  -0.207  0.00  0.00    +0.015 A 
ATOM      5  C   UNL     1       0.543  -4.766   0.924  0.00  0.00    +0.018 A 
ATOM      6  C   UNL     1       0.739  -4.173   2.158  0.00  0.00    +0.015 A 
ATOM      7  C   UNL     1       0.808  -2.796   2.260  0.00  0.00    +0.006 A 
ATOM      8 BR   UNL     1       0.455  -6.650   0.783  0.00  0.00    -0.050 Br
ENDBRANCH   1   2
BRANCH   1   9
ATOM      9  N   UNL     1       2.004  -0.035   0.659  0.00  0.00    -0.295 NA
ATOM     10  C   UNL     1       2.119  -0.437  -0.750  0.00  0.00    +0.100 C 
ATOM     11  C   UNL     1       3.406   0.144  -1.340  0.00  0.00    +0.100 C 
ATOM     12  N   UNL     1       4.558  -0.335  -0.563  0.00  0.00    -0.298 NA
ATOM     13  C   UNL     1       4.443   0.067   0.846  0.00  0.00    +0.100 C 
ATOM     14  C   UNL     1       3.156  -0.514   1.436  0.00  0.00    +0.100 C 
BRANCH  12  15
ATOM     15  C   UNL     1       5.820   0.140  -1.145  0.00  0.00    +0.112 C 
BRANCH  15  16
ATOM     16  C   UNL     1       6.993  -0.572  -0.470  0.00  0.00    +0.171 C 
BRANCH  16  17
ATOM     17  O   UNL     1       6.940  -1.968  -0.772  0.00  0.00    -0.394 OA
ATOM     18  H   UNL     1       7.656  -2.484  -0.376  0.00  0.00    +0.209 HD
ENDBRANCH  16  17
ENDBRANCH  15  16
ENDBRANCH  12  15
ENDBRANCH   1   9
BRANCH   1  20
ATOM     19  C   UNL     1      -0.363   1.637   0.602  0.00  0.00    -0.012 C 
ATOM     20  C   UNL     1      -0.434   0.113   0.488  0.00  0.00    -0.056 C 
BRANCH  20  21
ATOM     21  N   UNL     1      -1.696  -0.363   1.070  0.00  0.00    +0.381 N 
ATOM     22  H   UNL     1      -1.744  -1.368   0.995  0.00  0.00    -0.090 HD
ATOM     23  H   UNL     1      -1.740  -0.096   2.042  0.00  0.00    -0.090 HD
ATOM     24  H   UNL     1      -2.472   0.048   0.573  0.00  0.00    -0.090 HD
ENDBRANCH  20  21
ENDBRANCH   1  20
TORSDOF 7
