REMARK  Name = ZINC46285493
REMARK  7 active torsions:
REMARK  status: ('A' for Active; 'I' for Inactive)
REMARK    1  A    between atoms: C_1  and  C_2
REMARK    2  A    between atoms: C_2  and  N_9
REMARK    3  A    between atoms: N_9  and  N_10
REMARK    4  A    between atoms: N_13  and  C_14
REMARK    5  A    between atoms: C_14  and  C_15
REMARK    6  A    between atoms: N_21  and  C_22
REMARK    7  A    between atoms: N_21  and  C_23
REMARK                            x       y       z     vdW  Elec       q    Type
REMARK                         _______ _______ _______ _____ _____    ______ ____
ROOT
ATOM      1  N   UNL     1       0.099  -0.002  -2.406  0.00  0.00    -0.234 N 
ATOM      2  C   UNL     1       0.644  -0.311  -3.599  0.00  0.00    +0.314 C 
ATOM      3  O   UNL     1       0.134   0.098  -4.624  0.00  0.00    -0.252 OA
ATOM      4  N   UNL     1       1.754  -1.072  -3.656  0.00  0.00    -0.294 N 
ATOM      5  H   UNL     1      -0.701   0.546  -2.365  0.00  0.00    +0.171 HD
ATOM      6  H   UNL     1       2.161  -1.399  -2.838  0.00  0.00    +0.151 HD
ENDROOT
BRANCH   1   7
ATOM      7  N   UNL     1       0.671  -0.462  -1.254  0.00  0.00    -0.232 NA
ATOM      8  H   UNL     1       0.753  -1.467  -1.267  0.00  0.00    +0.145 HD
BRANCH   7  10
ATOM      9  C   UNL     1      -0.103   1.520  -0.066  0.00  0.00    +0.031 C 
ATOM     10  C   UNL     1      -0.081  -0.010  -0.075  0.00  0.00    +0.054 C 
ATOM     11  C   UNL     1      -1.517  -0.520  -0.191  0.00  0.00    +0.047 C 
ATOM     12  C   UNL     1      -1.648  -1.916   0.479  0.00  0.00    +0.168 C 
ATOM     13  S   UNL     1      -0.572  -1.652   1.956  0.00  0.00    -0.029 S 
ATOM     14  O   UNL     1       0.080  -2.872   2.284  0.00  0.00    -0.174 OA
ATOM     15  O   UNL     1      -1.309  -0.959   2.954  0.00  0.00    -0.174 OA
ATOM     16  C   UNL     1       0.646  -0.501   1.192  0.00  0.00    +0.189 C 
ENDBRANCH   7  10
ENDBRANCH   1   7
BRANCH   4  17
ATOM     17  C   UNL     1       2.347  -1.407  -4.953  0.00  0.00    +0.141 C 
BRANCH  17  18
ATOM     18  C   UNL     1       3.570  -2.262  -4.741  0.00  0.00    -0.026 A 
ATOM     19  C   UNL     1       4.822  -1.682  -4.579  0.00  0.00    +0.023 A 
ATOM     20  C   UNL     1       5.923  -2.492  -4.386  0.00  0.00    +0.084 A 
ATOM     21  N   UNL     1       5.799  -3.806  -4.353  0.00  0.00    -0.350 N 
ATOM     22  C   UNL     1       4.623  -4.396  -4.503  0.00  0.00    +0.098 A 
ATOM     23  C   UNL     1       3.471  -3.640  -4.696  0.00  0.00    +0.047 A 
ATOM     24  N   UNL     1       4.538  -5.783  -4.462  0.00  0.00    -0.323 N 
ATOM     25  C   UNL     1       5.759  -6.589  -4.387  0.00  0.00    +0.130 C 
ATOM     26  C   UNL     1       3.229  -6.438  -4.493  0.00  0.00    +0.130 C 
ATOM     27  H   UNL     1       6.588  -4.352  -4.216  0.00  0.00    +0.166 HD
ENDBRANCH  17  18
ENDBRANCH   4  17
TORSDOF 4
