REMARK  Name = ZINC63328935
REMARK  11 active torsions:
REMARK  status: ('A' for Active; 'I' for Inactive)
REMARK    1  A    between atoms: C_1  and  C_2
REMARK    2  A    between atoms: C_2  and  C_4
REMARK    3  A    between atoms: C_2  and  N_18
REMARK    4  A    between atoms: N_6  and  C_7
REMARK    5  A    between atoms: C_7  and  C_8
REMARK    6  A    between atoms: C_8  and  C_9
REMARK    7  A    between atoms: C_19  and  C_21
REMARK    8  A    between atoms: C_28  and  O_32
REMARK    9  A    between atoms: C_29  and  O_30
REMARK   10  A    between atoms: O_30  and  C_31
REMARK   11  A    between atoms: O_32  and  C_33
REMARK                            x       y       z     vdW  Elec       q    Type
REMARK                         _______ _______ _______ _____ _____    ______ ____
ROOT
ATOM      1  C   UNL     1      -0.019   1.526   0.010  0.00  0.00    +0.038 C 
ATOM      2  C   UNL     1       0.002  -0.004   0.002  0.00  0.00    +0.156 C 
ENDROOT
BRANCH   2   3
ATOM      3  C   UNL     1      -1.412  -0.526   0.013  0.00  0.00    +0.233 C 
ATOM      4  O   UNL     1      -1.808  -1.223  -0.897  0.00  0.00    -0.274 OA
ATOM      5  N   UNL     1      -2.236  -0.217   1.033  0.00  0.00    -0.313 N 
ATOM      6  H   UNL     1      -1.920   0.341   1.761  0.00  0.00    +0.149 HD
BRANCH   5   7
ATOM      7  C   UNL     1      -3.611  -0.724   1.044  0.00  0.00    +0.108 C 
BRANCH   7   8
ATOM      8  C   UNL     1      -4.327  -0.231   2.302  0.00  0.00    +0.052 C 
BRANCH   8   9
ATOM      9  C   UNL     1      -5.741  -0.752   2.313  0.00  0.00    -0.040 C 
ATOM     10  C   UNL     1      -6.192  -1.865   2.936  0.00  0.00    -0.001 A 
ATOM     11  C   UNL     1      -5.528  -2.884   3.757  0.00  0.00    +0.010 A 
ATOM     12  C   UNL     1      -6.261  -3.906   4.254  0.00  0.00    +0.001 A 
ATOM     13  C   UNL     1      -7.635  -4.016   4.005  0.00  0.00    +0.002 A 
ATOM     14  C   UNL     1      -8.316  -3.120   3.260  0.00  0.00    +0.026 A 
ATOM     15  C   UNL     1      -7.645  -2.004   2.688  0.00  0.00    +0.043 A 
ATOM     16  N   UNL     1      -8.075  -1.016   1.941  0.00  0.00    -0.380 N 
ATOM     17  C   UNL     1      -6.943  -0.134   1.635  0.00  0.00    +0.144 C 
ATOM     18  H   UNL     1      -8.989  -0.888   1.643  0.00  0.00    +0.160 HD
ENDBRANCH   8   9
ENDBRANCH   7   8
ENDBRANCH   5   7
ENDBRANCH   2   3
BRANCH   2  19
ATOM     19  N   UNL     1       0.688  -0.476  -1.203  0.00  0.00    -0.303 N 
ATOM     20  C   UNL     1       2.031  -0.587  -1.215  0.00  0.00    +0.234 C 
ATOM     21  O   UNL     1       2.672  -0.295  -0.228  0.00  0.00    -0.274 OA
ATOM     22  H   UNL     1       0.175  -0.710  -1.993  0.00  0.00    +0.149 HD
BRANCH  20  23
ATOM     23  C   UNL     1       2.736  -1.073  -2.455  0.00  0.00    +0.161 C 
ATOM     24  C   UNL     1       2.689  -2.608  -2.528  0.00  0.00    +0.072 C 
ATOM     25  C   UNL     1       4.139  -3.035  -2.503  0.00  0.00    +0.021 A 
ATOM     26  C   UNL     1       4.932  -1.901  -2.425  0.00  0.00    +0.035 A 
ATOM     27  C   UNL     1       6.320  -2.044  -2.389  0.00  0.00    +0.027 A 
ATOM     28  C   UNL     1       6.896  -3.297  -2.430  0.00  0.00    +0.051 A 
ATOM     29  C   UNL     1       6.100  -4.428  -2.508  0.00  0.00    +0.162 A 
ATOM     30  C   UNL     1       4.715  -4.294  -2.545  0.00  0.00    +0.166 A 
ATOM     31  N   UNL     1       4.160  -0.733  -2.396  0.00  0.00    -0.332 N 
ATOM     32  H   UNL     1       4.515   0.168  -2.344  0.00  0.00    +0.147 HD
BRANCH  30  33
ATOM     33  O   UNL     1       3.927  -5.400  -2.621  0.00  0.00    -0.491 OA
ATOM     34  C   UNL     1       3.591  -5.868  -3.929  0.00  0.00    +0.277 C 
ENDBRANCH  30  33
BRANCH  29  35
ATOM     35  O   UNL     1       6.669  -5.663  -2.549  0.00  0.00    -0.491 OA
ATOM     36  C   UNL     1       8.096  -5.722  -2.507  0.00  0.00    +0.277 C 
ENDBRANCH  29  35
ENDBRANCH  20  23
ENDBRANCH   2  19
TORSDOF 8
