REMARK  Name = ZINC15777604
REMARK  5 active torsions:
REMARK  status: ('A' for Active; 'I' for Inactive)
REMARK    1  A    between atoms: C_1  and  O_2
REMARK    2  A    between atoms: O_2  and  C_3
REMARK    3  A    between atoms: C_6  and  N_9
REMARK    4  A    between atoms: C_10  and  C_12
REMARK    5  A    between atoms: N_14  and  N_15
REMARK                            x       y       z     vdW  Elec       q    Type
REMARK                         _______ _______ _______ _____ _____    ______ ____
ROOT
ATOM      1  C   UNL     1      -6.263  -4.609  -0.171  0.00  0.00    +0.318 C 
ATOM      2  O   UNL     1      -7.288  -3.959  -0.162  0.00  0.00    -0.263 OA
ATOM      3  N   UNL     1      -6.318  -5.952  -0.275  0.00  0.00    -0.198 N 
ATOM      4  H   UNL     1      -5.499  -6.472  -0.282  0.00  0.00    +0.178 HD
ENDROOT
BRANCH   3   5
ATOM      5  N   UNL     1      -7.558  -6.597  -0.371  0.00  0.00    -0.174 NA
ATOM      6  C   UNL     1      -7.612  -7.903  -0.472  0.00  0.00    +0.153 C 
ATOM      7  C   UNL     1      -8.821  -8.750  -0.589  0.00  0.00    +0.029 A 
ATOM      8  C   UNL     1     -10.182  -8.466  -0.627  0.00  0.00    +0.027 A 
ATOM      9  C   UNL     1     -11.094  -9.497  -0.744  0.00  0.00    +0.019 A 
ATOM     10  C   UNL     1     -10.652 -10.808  -0.824  0.00  0.00    +0.017 A 
ATOM     11  C   UNL     1      -9.304 -11.099  -0.787  0.00  0.00    +0.025 A 
ATOM     12  C   UNL     1      -8.371 -10.074  -0.669  0.00  0.00    +0.043 A 
ATOM     13  N   UNL     1      -6.982 -10.092  -0.610  0.00  0.00    -0.280 N 
ATOM     14  C   UNL     1      -6.479  -8.851  -0.500  0.00  0.00    +0.269 C 
ATOM     15  O   UNL     1      -5.299  -8.559  -0.432  0.00  0.00    -0.268 OA
ATOM     16 BR   UNL     1     -12.946  -9.119  -0.796  0.00  0.00    -0.050 Br
ATOM     17  H   UNL     1      -6.444 -10.898  -0.647  0.00  0.00    +0.155 HD
ENDBRANCH   3   5
BRANCH   1  19
ATOM     18  N   UNL     1      -4.888  -2.580   0.035  0.00  0.00    -0.278 N 
ATOM     19  C   UNL     1      -4.943  -3.923  -0.068  0.00  0.00    +0.305 C 
ATOM     20  O   UNL     1      -3.918  -4.573  -0.078  0.00  0.00    -0.265 OA
ATOM     21  H   UNL     1      -5.706  -2.066   0.119  0.00  0.00    +0.155 HD
BRANCH  18  25
ATOM     22  C   UNL     1      -1.202  -0.636  -0.010  0.00  0.00    +0.120 A 
ATOM     23  C   UNL     1      -1.385  -1.792  -0.754  0.00  0.00    +0.047 A 
ATOM     24  C   UNL     1      -2.606  -2.437  -0.740  0.00  0.00    +0.027 A 
ATOM     25  C   UNL     1      -3.651  -1.928   0.020  0.00  0.00    +0.034 A 
ATOM     26  C   UNL     1      -3.467  -0.770   0.766  0.00  0.00    +0.027 A 
ATOM     27  C   UNL     1      -2.244  -0.130   0.754  0.00  0.00    +0.047 A 
BRANCH  22  29
ATOM     28  C   UNL     1       1.028  -0.578  -0.833  0.00  0.00    +0.277 C 
ATOM     29  O   UNL     1       0.000  -0.001  -0.024  0.00  0.00    -0.495 OA
ENDBRANCH  22  29
ENDBRANCH  18  25
ENDBRANCH   1  19
TORSDOF 4
