REMARK  Name = ZINC16476556
REMARK  17 active torsions:
REMARK  status: ('A' for Active; 'I' for Inactive)
REMARK    1  A    between atoms: C_1  and  C_2
REMARK    2  A    between atoms: C_2  and  C_3
REMARK    3  A    between atoms: C_3  and  C_4
REMARK    4  A    between atoms: C_4  and  N_5
REMARK    5  A    between atoms: N_5  and  C_6
REMARK    6  A    between atoms: N_5  and  C_7
REMARK    7  A    between atoms: C_7  and  C_8
REMARK    8  A    between atoms: N_10  and  C_11
REMARK    9  A    between atoms: C_12  and  C_28
REMARK   10  A    between atoms: C_13  and  C_27
REMARK   11  A    between atoms: C_14  and  C_16
REMARK   12  A    between atoms: N_18  and  C_19
REMARK   13  A    between atoms: C_22  and  C_26
REMARK   14  A    between atoms: C_24  and  C_25
REMARK   15  A    between atoms: C_28  and  O_30
REMARK   16  A    between atoms: O_30  and  C_31
REMARK   17  A    between atoms: C_31  and  C_32
REMARK                            x       y       z     vdW  Elec       q    Type
REMARK                         _______ _______ _______ _____ _____    ______ ____
ROOT
ATOM      1  C   UNL     1       2.587  -6.251   5.220  0.00  0.00    +0.087 A 
ATOM      2  C   UNL     1       2.725  -7.569   5.660  0.00  0.00    +0.091 A 
ATOM      3  C   UNL     1       3.350  -7.776   6.883  0.00  0.00    -0.015 A 
ATOM      4  C   UNL     1       3.773  -6.656   7.546  0.00  0.00    +0.080 A 
ATOM      5  S   UNL     1       3.295  -5.342   6.442  0.00  0.00    -0.068 S 
ATOM      6  C   UNL     1       3.549  -9.158   7.449  0.00  0.00    +0.046 C 
ENDROOT
BRANCH   1   9
ATOM      7  C   UNL     1       1.966  -4.479   3.784  0.00  0.00    +0.201 C 
ATOM      8  O   UNL     1       2.438  -3.687   4.571  0.00  0.00    -0.278 OA
ATOM      9  N   UNL     1       2.007  -5.800   4.050  0.00  0.00    -0.281 N 
ATOM     10  H   UNL     1       1.630  -6.434   3.420  0.00  0.00    +0.155 HD
BRANCH   7  11
ATOM     11  C   UNL     1       1.334  -3.987   2.507  0.00  0.00    +0.018 C 
BRANCH  11  12
ATOM     12  N   UNL     1       1.416  -2.522   2.454  0.00  0.00    +0.384 N 
ATOM     13  C   UNL     1       2.824  -2.112   2.373  0.00  0.00    -0.096 C 
ATOM     14  H   UNL     1       0.999  -2.131   3.285  0.00  0.00    -0.082 HD
BRANCH  12  15
ATOM     15  C   UNL     1       0.695  -2.034   1.270  0.00  0.00    -0.079 C 
BRANCH  15  16
ATOM     16  C   UNL     1       0.673  -0.504   1.280  0.00  0.00    -0.019 C 
BRANCH  16  18
ATOM     17  C   UNL     1      -0.100   1.533   0.058  0.00  0.00    +0.004 C 
ATOM     18  C   UNL     1      -0.077   0.003   0.048  0.00  0.00    -0.005 C 
ENDBRANCH  16  18
ENDBRANCH  15  16
ENDBRANCH  12  15
ENDBRANCH  11  12
ENDBRANCH   7  11
ENDBRANCH   1   9
BRANCH   4  19
ATOM     19  C   UNL     1       4.454  -6.561   8.838  0.00  0.00    +0.255 C 
ATOM     20  O   UNL     1       4.711  -7.572   9.466  0.00  0.00    -0.269 OA
ATOM     21  N   UNL     1       4.796  -5.355   9.334  0.00  0.00    -0.281 N 
ATOM     22  H   UNL     1       4.664  -4.557   8.799  0.00  0.00    +0.155 HD
BRANCH  21  23
ATOM     23  C   UNL     1       5.341  -5.255  10.617  0.00  0.00    +0.037 A 
ATOM     24  C   UNL     1       5.074  -6.236  11.565  0.00  0.00    +0.024 A 
ATOM     25  C   UNL     1       5.614  -6.134  12.832  0.00  0.00    +0.005 A 
ATOM     26  C   UNL     1       6.419  -5.058  13.158  0.00  0.00    -0.050 A 
ATOM     27  C   UNL     1       6.687  -4.081  12.217  0.00  0.00    +0.008 A 
ATOM     28  C   UNL     1       6.155  -4.179  10.946  0.00  0.00    -0.029 A 
ATOM     29  C   UNL     1       6.453  -3.117   9.919  0.00  0.00    +0.045 C 
ATOM     30  C   UNL     1       7.006  -4.950  14.542  0.00  0.00    +0.044 C 
ENDBRANCH  21  23
ENDBRANCH   4  19
BRANCH   2  31
ATOM     31  C   UNL     1       2.229  -8.693   4.859  0.00  0.00    +0.342 C 
ATOM     32  O   UNL     1       2.955  -9.224   4.041  0.00  0.00    -0.245 OA
BRANCH  31  33
ATOM     33  O   UNL     1       0.968  -9.138   5.031  0.00  0.00    -0.461 OA
BRANCH  33  34
ATOM     34  C   UNL     1       0.551 -10.237   4.218  0.00  0.00    +0.229 C 
ATOM     35  C   UNL     1      -0.898 -10.598   4.552  0.00  0.00    +0.048 C 
ENDBRANCH  33  34
ENDBRANCH  31  33
ENDBRANCH   2  31
TORSDOF 11
