REMARK  Name = ZINC36206462
REMARK  16 active torsions:
REMARK  status: ('A' for Active; 'I' for Inactive)
REMARK    1  A    between atoms: C_1  and  C_2
REMARK    2  A    between atoms: C_5  and  C_9
REMARK    3  A    between atoms: C_6  and  C_8
REMARK    4  A    between atoms: C_18  and  C_20
REMARK    5  A    between atoms: C_20  and  N_21
REMARK    6  A    between atoms: N_21  and  C_22
REMARK    7  A    between atoms: N_21  and  C_27
REMARK    8  A    between atoms: C_22  and  C_23
REMARK    9  A    between atoms: C_23  and  C_24
REMARK   10  A    between atoms: C_24  and  O_25
REMARK   11  A    between atoms: O_25  and  C_26
REMARK   12  A    between atoms: C_27  and  C_28
REMARK   13  A    between atoms: C_28  and  C_30
REMARK   14  A    between atoms: C_28  and  O_33
REMARK   15  A    between atoms: C_30  and  C_31
REMARK   16  A    between atoms: C_30  and  C_32
REMARK                            x       y       z     vdW  Elec       q    Type
REMARK                         _______ _______ _______ _____ _____    ______ ____
ROOT
ATOM      1  C   UNL     1      -1.478  -3.898  -0.655  0.00  0.00    +0.004 A 
ATOM      2  C   UNL     1      -0.273  -4.305  -1.123  0.00  0.00    +0.056 A 
ATOM      3  S   UNL     1      -0.229  -6.036  -0.700  0.00  0.00    -0.076 S 
ATOM      4  C   UNL     1      -1.814  -6.172   0.086  0.00  0.00    +0.116 A 
ATOM      5  C   UNL     1      -2.337  -4.871   0.008  0.00  0.00    +0.080 A 
ATOM      6  C   UNL     1      -3.635  -4.689   0.584  0.00  0.00    +0.260 A 
ATOM      7  O   UNL     1      -4.175  -3.596   0.561  0.00  0.00    -0.267 OA
ATOM      8  N   UNL     1      -4.251  -5.743   1.151  0.00  0.00    -0.312 N 
ATOM      9  H   UNL     1      -5.130  -5.626   1.543  0.00  0.00    +0.170 HD
ATOM     10  C   UNL     1      -3.665  -6.968   1.185  0.00  0.00    +0.094 A 
ATOM     11  N   UNL     1      -2.486  -7.167   0.659  0.00  0.00    -0.229 NA
ENDROOT
BRANCH   1  16
ATOM     12  C   UNL     1      -3.163   1.574  -1.258  0.00  0.00    +0.044 C 
ATOM     13  C   UNL     1      -2.722   0.142  -1.101  0.00  0.00    -0.050 A 
ATOM     14  C   UNL     1      -2.543  -0.651  -2.220  0.00  0.00    +0.004 A 
ATOM     15  C   UNL     1      -2.139  -1.963  -2.082  0.00  0.00    +0.009 A 
ATOM     16  C   UNL     1      -1.911  -2.489  -0.811  0.00  0.00    -0.014 A 
ATOM     17  C   UNL     1      -2.093  -1.685   0.314  0.00  0.00    -0.042 A 
ATOM     18  C   UNL     1      -2.492  -0.373   0.162  0.00  0.00    +0.007 A 
ATOM     19  C   UNL     1      -1.848  -2.246   1.691  0.00  0.00    +0.044 C 
ENDBRANCH   1  16
BRANCH  10  20
ATOM     20  C   UNL     1      -4.393  -8.119   1.831  0.00  0.00    -0.003 C 
BRANCH  20  21
ATOM     21  N   UNL     1      -3.566  -9.330   1.746  0.00  0.00    +0.386 N 
ATOM     22  H   UNL     1      -3.312  -9.497   0.784  0.00  0.00    -0.081 HD
BRANCH  21  23
ATOM     23  C   UNL     1      -4.325 -10.478   2.259  0.00  0.00    -0.076 C 
BRANCH  23  24
ATOM     24  C   UNL     1      -3.501 -11.755   2.081  0.00  0.00    +0.009 C 
BRANCH  24  25
ATOM     25  C   UNL     1      -4.243 -12.933   2.715  0.00  0.00    +0.157 C 
BRANCH  25  26
ATOM     26  O   UNL     1      -3.473 -14.126   2.550  0.00  0.00    -0.383 OA
ATOM     27  C   UNL     1      -4.080 -15.292   3.109  0.00  0.00    +0.193 C 
ENDBRANCH  25  26
ENDBRANCH  24  25
ENDBRANCH  23  24
ENDBRANCH  21  23
BRANCH  21  28
ATOM     28  C   UNL     1      -2.349  -9.149   2.549  0.00  0.00    -0.046 C 
BRANCH  28  29
ATOM     29  C   UNL     1      -2.723  -9.068   4.030  0.00  0.00    +0.101 C 
BRANCH  29  30
ATOM     30  C   UNL     1      -1.451  -9.093   4.880  0.00  0.00    +0.010 C 
ATOM     31  C   UNL     1      -1.825  -9.011   6.361  0.00  0.00    +0.010 C 
ATOM     32  C   UNL     1      -0.688 -10.393   4.617  0.00  0.00    +0.010 C 
ENDBRANCH  29  30
BRANCH  29  33
ATOM     33  O   UNL     1      -3.436  -7.854   4.275  0.00  0.00    -0.393 OA
ATOM     34  H   UNL     1      -2.962  -7.057   4.000  0.00  0.00    +0.210 HD
ENDBRANCH  29  33
ENDBRANCH  28  29
ENDBRANCH  21  28
ENDBRANCH  20  21
ENDBRANCH  10  20
TORSDOF 11
