REMARK  Name = ZINC20024020
REMARK  6 active torsions:
REMARK  status: ('A' for Active; 'I' for Inactive)
REMARK    1  A    between atoms: C_1  and  C_2
REMARK    2  A    between atoms: C_5  and  N_8
REMARK    3  A    between atoms: C_12  and  N_13
REMARK    4  A    between atoms: N_13  and  C_14
REMARK    5  A    between atoms: C_14  and  C_15
REMARK    6  A    between atoms: C_15  and  N_16
REMARK                            x       y       z     vdW  Elec       q    Type
REMARK                         _______ _______ _______ _____ _____    ______ ____
ROOT
ATOM      1  N   UNL     1       0.127  -4.170  -0.025  0.00  0.00    -0.190 N 
ATOM      2  C   UNL     1       0.232  -4.835   1.144  0.00  0.00    +0.265 C 
ATOM      3  O   UNL     1       0.349  -4.235   2.196  0.00  0.00    -0.269 OA
ATOM      4  C   UNL     1       0.200  -6.308   1.113  0.00  0.00    +0.113 C 
ATOM      5  C   UNL     1       0.301  -7.056   2.271  0.00  0.00    +0.086 C 
ATOM      6  C   UNL     1       0.054  -6.948  -0.206  0.00  0.00    +0.258 C 
ATOM      7  N   UNL     1      -0.040  -6.155  -1.293  0.00  0.00    -0.235 N 
ATOM      8  C   UNL     1      -0.009  -4.819  -1.190  0.00  0.00    +0.320 C 
ATOM      9  O   UNL     1      -0.103  -4.161  -2.208  0.00  0.00    -0.251 OA
ATOM     10  O   UNL     1       0.020  -8.160  -0.313  0.00  0.00    -0.270 OA
ATOM     11  H   UNL     1      -0.136  -6.561  -2.169  0.00  0.00    +0.159 HD
ENDROOT
BRANCH   1  16
ATOM     12  C   UNL     1       0.241   1.504  -0.006  0.00  0.00    +0.044 C 
ATOM     13  C   UNL     1       0.211  -0.003  -0.011  0.00  0.00    -0.050 A 
ATOM     14  C   UNL     1      -0.963  -0.668  -0.316  0.00  0.00    +0.005 A 
ATOM     15  C   UNL     1      -0.993  -2.049  -0.321  0.00  0.00    +0.024 A 
ATOM     16  C   UNL     1       0.155  -2.769  -0.021  0.00  0.00    +0.046 A 
ATOM     17  C   UNL     1       1.332  -2.098   0.285  0.00  0.00    +0.024 A 
ATOM     18  C   UNL     1       1.358  -0.717   0.283  0.00  0.00    +0.005 A 
ENDBRANCH   1  16
BRANCH   5  19
ATOM     19  N   UNL     1       0.295  -6.444   3.472  0.00  0.00    -0.348 N 
ATOM     20  H   UNL     1       0.140  -5.488   3.528  0.00  0.00    +0.146 HD
BRANCH  19  21
ATOM     21  C   UNL     1       0.523  -7.223   4.692  0.00  0.00    +0.116 C 
BRANCH  21  22
ATOM     22  C   UNL     1       0.466  -6.295   5.907  0.00  0.00    +0.103 C 
BRANCH  22  23
ATOM     23  N   UNL     1       0.695  -7.075   7.130  0.00  0.00    -0.304 NA
ATOM     24  C   UNL     1      -0.407  -8.019   7.366  0.00  0.00    +0.065 C 
ATOM     25  C   UNL     1      -0.102  -8.852   8.614  0.00  0.00    -0.067 C 
ATOM     26  N   UNL     1       0.058  -7.961   9.770  0.00  0.00    +0.381 N 
ATOM     27  C   UNL     1       1.177  -7.040   9.530  0.00  0.00    -0.067 C 
ATOM     28  C   UNL     1       0.883  -6.192   8.291  0.00  0.00    +0.065 C 
ATOM     29  H   UNL     1      -0.790  -7.431   9.906  0.00  0.00    -0.086 HD
ATOM     30  H   UNL     1       0.246  -8.511  10.595  0.00  0.00    -0.086 HD
ENDBRANCH  22  23
ENDBRANCH  21  22
ENDBRANCH  19  21
ENDBRANCH   5  19
TORSDOF 5
