REMARK  Name = ZINC35836994
REMARK  4 active torsions:
REMARK  status: ('A' for Active; 'I' for Inactive)
REMARK    1  A    between atoms: C_1  and  N_2
REMARK    2  A    between atoms: N_17  and  C_20
REMARK    3  A    between atoms: N_28  and  S_30
REMARK    4  A    between atoms: S_30  and  C_33
REMARK                            x       y       z     vdW  Elec       q    Type
REMARK                         _______ _______ _______ _____ _____    ______ ____
ROOT
ATOM      1  C   UNL     1      -1.505   0.042  -1.923  0.00  0.00    -0.096 C 
ATOM      2  N   UNL     1      -0.735  -0.721  -0.931  0.00  0.00    +0.380 N 
ATOM      3  C   UNL     1      -1.009  -2.154  -1.098  0.00  0.00    -0.060 C 
ATOM      4  C   UNL     1      -0.298  -2.941   0.007  0.00  0.00    +0.088 C 
ATOM      5  N   UNL     1       1.131  -2.589  -0.016  0.00  0.00    -0.318 N 
ATOM      6  C   UNL     1       1.493  -1.164  -0.016  0.00  0.00    +0.088 C 
ATOM      7  C   UNL     1       0.697  -0.460  -1.120  0.00  0.00    -0.060 C 
ATOM      8  C   UNL     1       2.106  -3.572  -0.035  0.00  0.00    +0.131 A 
ATOM      9  C   UNL     1       2.699  -4.006   1.157  0.00  0.00    +0.030 A 
ATOM     10  C   UNL     1       3.658  -4.987   1.097  0.00  0.00    +0.054 A 
ATOM     11  N   UNL     1       4.000  -5.481  -0.092  0.00  0.00    -0.219 NA
ATOM     12  C   UNL     1       3.426  -5.052  -1.203  0.00  0.00    +0.220 A 
ATOM     13  N   UNL     1       2.486  -4.119  -1.185  0.00  0.00    -0.199 NA
ATOM     14  N   UNL     1       3.813  -5.596  -2.416  0.00  0.00    -0.297 N 
ATOM     15  C   UNL     1       3.200  -5.139  -3.671  0.00  0.00    +0.127 C 
ATOM     16  C   UNL     1       4.313  -4.680  -4.621  0.00  0.00    +0.124 C 
ATOM     17  N   UNL     1       5.344  -5.725  -4.676  0.00  0.00    -0.327 N 
ATOM     18  C   UNL     1       5.957  -6.183  -3.421  0.00  0.00    +0.124 C 
ATOM     19  C   UNL     1       4.848  -6.638  -2.472  0.00  0.00    +0.127 C 
ATOM     20  C   UNL     1       4.334  -5.545   2.320  0.00  0.00    +0.073 C 
ATOM     21  C   UNL     1       4.202  -4.581   3.499  0.00  0.00    +0.116 C 
ATOM     22  N   UNL     1       2.797  -4.148   3.579  0.00  0.00    -0.172 NA
ATOM     23  C   UNL     1       2.264  -3.374   2.451  0.00  0.00    +0.149 C 
ATOM     24  H   UNL     1      -1.008  -0.435  -0.003  0.00  0.00    -0.082 HD
ENDROOT
BRANCH  17  25
ATOM     25  C   UNL     1       5.734  -6.275  -5.899  0.00  0.00    +0.030 A 
ATOM     26  C   UNL     1       5.242  -5.749  -7.087  0.00  0.00    +0.023 A 
ATOM     27  C   UNL     1       5.630  -6.294  -8.295  0.00  0.00    +0.002 A 
ATOM     28  C   UNL     1       6.508  -7.363  -8.323  0.00  0.00    +0.000 A 
ATOM     29  C   UNL     1       6.999  -7.889  -7.143  0.00  0.00    +0.002 A 
ATOM     30  C   UNL     1       6.620  -7.345  -5.931  0.00  0.00    +0.023 A 
ENDBRANCH  17  25
BRANCH  22  31
ATOM     31  S   UNL     1       1.855  -4.520   4.889  0.00  0.00    +0.061 S 
ATOM     32  O   UNL     1       0.506  -4.479   4.444  0.00  0.00    -0.153 OA
ATOM     33  O   UNL     1       2.426  -5.677   5.484  0.00  0.00    -0.153 OA
BRANCH  31  34
ATOM     34  C   UNL     1       2.041  -3.211   6.053  0.00  0.00    +0.105 A 
ATOM     35  C   UNL     1       3.040  -3.270   7.007  0.00  0.00    +0.028 A 
ATOM     36  C   UNL     1       3.186  -2.243   7.920  0.00  0.00    +0.002 A 
ATOM     37  C   UNL     1       2.333  -1.156   7.880  0.00  0.00    +0.000 A 
ATOM     38  C   UNL     1       1.334  -1.096   6.926  0.00  0.00    +0.002 A 
ATOM     39  C   UNL     1       1.191  -2.121   6.010  0.00  0.00    +0.028 A 
ENDBRANCH  31  34
ENDBRANCH  22  31
TORSDOF 3
