REMARK  Name = ZINC66968460
REMARK  11 active torsions:
REMARK  status: ('A' for Active; 'I' for Inactive)
REMARK    1  A    between atoms: C_1  and  C_2
REMARK    2  A    between atoms: C_2  and  C_3
REMARK    3  A    between atoms: C_3  and  N_4
REMARK    4  A    between atoms: C_10  and  N_13
REMARK    5  A    between atoms: N_13  and  C_14
REMARK    6  A    between atoms: C_14  and  C_16
REMARK    7  A    between atoms: C_14  and  C_17
REMARK    8  A    between atoms: N_22  and  C_23
REMARK    9  A    between atoms: C_23  and  C_24
REMARK   10  A    between atoms: C_23  and  C_25
REMARK   11  A    between atoms: C_23  and  C_26
REMARK                            x       y       z     vdW  Elec       q    Type
REMARK                         _______ _______ _______ _____ _____    ______ ____
ROOT
ATOM      1  N   UNL     1      -5.658  -2.892   1.004  0.00  0.00    -0.333 N 
ATOM      2  H   UNL     1      -5.543  -2.788   0.046  0.00  0.00    +0.147 HD
ENDROOT
BRANCH   1   9
ATOM      3  N   UNL     1      -1.413  -2.002   0.005  0.00  0.00    +0.385 N 
ATOM      4  C   UNL     1      -0.933  -2.523   1.305  0.00  0.00    -0.042 C 
ATOM      5  C   UNL     1      -2.171  -2.711   2.152  0.00  0.00    -0.061 A 
ATOM      6  C   UNL     1      -2.338  -2.860   3.517  0.00  0.00    +0.002 A 
ATOM      7  C   UNL     1      -3.604  -3.019   4.048  0.00  0.00    +0.002 A 
ATOM      8  C   UNL     1      -4.708  -3.030   3.218  0.00  0.00    +0.023 A 
ATOM      9  C   UNL     1      -4.544  -2.881   1.847  0.00  0.00    +0.029 A 
ATOM     10  C   UNL     1      -3.271  -2.721   1.315  0.00  0.00    -0.042 A 
ATOM     11  C   UNL     1      -2.788  -2.540  -0.106  0.00  0.00    -0.040 C 
ATOM     12  H   UNL     1      -0.838  -2.344  -0.750  0.00  0.00    -0.081 HD
BRANCH   3  13
ATOM     13  C   UNL     1      -1.433  -0.534   0.013  0.00  0.00    -0.078 C 
BRANCH  13  15
ATOM     14  C   UNL     1      -0.019   1.526   0.010  0.00  0.00    +0.002 C 
ATOM     15  C   UNL     1       0.002  -0.004   0.002  0.00  0.00    -0.022 C 
ENDBRANCH  13  15
ENDBRANCH   3  13
ENDBRANCH   1   9
BRANCH   1  16
ATOM     16  C   UNL     1      -7.000  -3.062   1.566  0.00  0.00    +0.154 C 
ATOM     17  C   UNL     1      -7.539  -1.703   2.017  0.00  0.00    +0.038 C 
BRANCH  16  18
ATOM     18  C   UNL     1      -7.914  -3.641   0.517  0.00  0.00    +0.240 C 
ATOM     19  O   UNL     1      -7.487  -3.889  -0.590  0.00  0.00    -0.273 OA
ATOM     20  N   UNL     1      -9.207  -3.885   0.810  0.00  0.00    -0.239 N 
ATOM     21  C   UNL     1     -10.025  -4.403  -0.127  0.00  0.00    +0.306 C 
ATOM     22  O   UNL     1      -9.596  -4.651  -1.237  0.00  0.00    -0.252 OA
ATOM     23  N   UNL     1     -11.318  -4.646   0.166  0.00  0.00    -0.294 N 
ATOM     24  H   UNL     1      -9.549  -3.687   1.696  0.00  0.00    +0.159 HD
ATOM     25  H   UNL     1     -11.659  -4.449   1.052  0.00  0.00    +0.151 HD
BRANCH  23  26
ATOM     26  C   UNL     1     -12.206  -5.210  -0.853  0.00  0.00    +0.028 C 
ATOM     27  C   UNL     1     -11.668  -6.569  -1.305  0.00  0.00    +0.031 C 
ATOM     28  C   UNL     1     -13.608  -5.387  -0.266  0.00  0.00    +0.031 C 
ATOM     29  C   UNL     1     -12.271  -4.263  -2.053  0.00  0.00    +0.031 C 
ENDBRANCH  23  26
ENDBRANCH  16  18
ENDBRANCH   1  16
TORSDOF 6
