REMARK  Name = ZINC24668592
REMARK  5 active torsions:
REMARK  status: ('A' for Active; 'I' for Inactive)
REMARK    1  A    between atoms: C_4  and  N_10
REMARK    2  A    between atoms: C_5  and  C_7
REMARK    3  A    between atoms: C_11  and  C_13
REMARK    4  A    between atoms: C_13  and  N_14
REMARK    5  A    between atoms: C_18  and  C_21
REMARK                            x       y       z     vdW  Elec       q    Type
REMARK                         _______ _______ _______ _____ _____    ______ ____
ROOT
ATOM      1  C   UNL     1      -1.310  -2.584   2.533  0.00  0.00    +0.019 C 
ENDROOT
BRANCH   1   2
ATOM      2  N   UNL     1      -1.023  -1.759   1.352  0.00  0.00    +0.386 N 
ATOM      3  C   UNL     1      -1.718  -2.277   0.166  0.00  0.00    -0.078 C 
ATOM      4  C   UNL     1      -1.283  -1.484  -1.069  0.00  0.00    -0.018 C 
ATOM      5  C   UNL     1      -1.619  -0.004  -0.863  0.00  0.00    +0.009 C 
ATOM      6  C   UNL     1      -0.922   0.498   0.404  0.00  0.00    +0.059 C 
ATOM      7  C   UNL     1      -1.367  -0.352   1.596  0.00  0.00    -0.065 C 
ATOM      8  H   UNL     1       0.058  -1.810   1.156  0.00  0.00    -0.081 HD
BRANCH   6   9
ATOM      9  C   UNL     1      -1.294   1.938   0.646  0.00  0.00    +0.198 A 
ATOM     10  N   UNL     1      -0.450   2.924   0.702  0.00  0.00    -0.213 NA
ATOM     11  C   UNL     1      -1.136   4.076   0.933  0.00  0.00    +0.110 A 
ATOM     12  C   UNL     1      -0.759   5.412   1.085  0.00  0.00    +0.031 A 
ATOM     13  C   UNL     1      -1.719   6.370   1.316  0.00  0.00    +0.002 A 
ATOM     14  C   UNL     1      -3.058   6.017   1.400  0.00  0.00    +0.004 A 
ATOM     15  C   UNL     1      -3.445   4.702   1.253  0.00  0.00    +0.048 A 
ATOM     16  C   UNL     1      -2.491   3.723   1.019  0.00  0.00    +0.155 A 
ATOM     17  O   UNL     1      -2.546   2.386   0.830  0.00  0.00    -0.440 OA
ENDBRANCH   6   9
ENDBRANCH   1   2
BRANCH   1  19
ATOM     18  N   UNL     1      -0.558  -2.718   4.885  0.00  0.00    -0.286 N 
ATOM     19  C   UNL     1      -0.389  -2.189   3.658  0.00  0.00    +0.201 C 
ATOM     20  O   UNL     1       0.506  -1.395   3.458  0.00  0.00    -0.278 OA
ATOM     21  H   UNL     1      -1.306  -3.509   5.045  0.00  0.00    +0.155 HD
BRANCH  18  25
ATOM     22  C   UNL     1       1.752  -1.359   8.079  0.00  0.00    +0.001 A 
ATOM     23  C   UNL     1       2.325  -1.543   6.831  0.00  0.00    +0.002 A 
ATOM     24  C   UNL     1       1.564  -1.998   5.773  0.00  0.00    +0.024 A 
ATOM     25  C   UNL     1       0.213  -2.264   5.952  0.00  0.00    +0.045 A 
ATOM     26  C   UNL     1      -0.370  -2.078   7.215  0.00  0.00    +0.058 A 
ATOM     27  C   UNL     1       0.414  -1.623   8.277  0.00  0.00    +0.015 A 
BRANCH  26  28
ATOM     28  C   UNL     1      -1.803  -2.362   7.419  0.00  0.00    +0.243 C 
ATOM     29  O   UNL     1      -2.469  -2.816   6.509  0.00  0.00    -0.270 OA
ATOM     30  N   UNL     1      -2.374  -2.119   8.615  0.00  0.00    -0.325 N 
ATOM     31  H   UNL     1      -3.443  -2.330   8.768  0.00  0.00    +0.145 HD
ATOM     32  H   UNL     1      -1.772  -1.708   9.439  0.00  0.00    +0.145 HD
ENDBRANCH  26  28
ENDBRANCH  18  25
ENDBRANCH   1  19
TORSDOF 5
