REMARK  Name = ZINC12644172
REMARK  8 active torsions:
REMARK  status: ('A' for Active; 'I' for Inactive)
REMARK    1  A    between atoms: C_1  and  C_2
REMARK    2  A    between atoms: C_5  and  N_8
REMARK    3  A    between atoms: C_11  and  C_27
REMARK    4  A    between atoms: C_11  and  C_33
REMARK    5  A    between atoms: C_12  and  C_23
REMARK    6  A    between atoms: N_21  and  C_22
REMARK    7  A    between atoms: C_23  and  O_25
REMARK    8  A    between atoms: O_25  and  C_26
REMARK                            x       y       z     vdW  Elec       q    Type
REMARK                         _______ _______ _______ _____ _____    ______ ____
ROOT
ATOM      1  N   UNL     1      -0.744  -3.458   0.300  0.00  0.00    -0.288 N 
ATOM      2  C   UNL     1      -0.441  -4.365   1.290  0.00  0.00    +0.172 C 
ATOM      3  N   UNL     1      -0.335  -3.934   2.507  0.00  0.00    -0.339 N 
ATOM      4  C   UNL     1      -0.012  -4.883   3.584  0.00  0.00    +0.197 C 
ATOM      5  C   UNL     1       0.179  -6.333   3.191  0.00  0.00    +0.111 C 
ATOM      6  C   UNL     1       0.036  -6.657   1.852  0.00  0.00    +0.117 C 
ATOM      7  N   UNL     1      -0.272  -5.688   0.935  0.00  0.00    -0.228 N 
ATOM      8  C   UNL     1      -0.358  -6.303  -0.321  0.00  0.00    +0.064 A 
ATOM      9  C   UNL     1      -0.633  -5.811  -1.588  0.00  0.00    +0.026 A 
ATOM     10  C   UNL     1      -0.651  -6.670  -2.670  0.00  0.00    +0.002 A 
ATOM     11  C   UNL     1      -0.398  -8.019  -2.493  0.00  0.00    +0.002 A 
ATOM     12  C   UNL     1      -0.123  -8.517  -1.235  0.00  0.00    +0.025 A 
ATOM     13  C   UNL     1      -0.102  -7.661  -0.142  0.00  0.00    +0.057 A 
ATOM     14  N   UNL     1       0.149  -7.862   1.212  0.00  0.00    -0.289 N 
ATOM     15  C   UNL     1       0.464  -9.145   1.845  0.00  0.00    +0.137 C 
ATOM     16  H   UNL     1      -0.466  -2.994   2.707  0.00  0.00    +0.164 HD
ATOM     17  H   UNL     1      -1.344  -3.707  -0.420  0.00  0.00    +0.155 HD
ENDROOT
BRANCH   1  22
ATOM     18  C   UNL     1       1.516   1.744   0.432  0.00  0.00    +0.044 C 
ATOM     19  C   UNL     1       0.916   0.362   0.398  0.00  0.00    -0.050 A 
ATOM     20  C   UNL     1       1.551  -0.649  -0.301  0.00  0.00    +0.005 A 
ATOM     21  C   UNL     1       1.003  -1.916  -0.336  0.00  0.00    +0.023 A 
ATOM     22  C   UNL     1      -0.186  -2.175   0.333  0.00  0.00    +0.033 A 
ATOM     23  C   UNL     1      -0.821  -1.159   1.035  0.00  0.00    +0.023 A 
ATOM     24  C   UNL     1      -0.265   0.105   1.069  0.00  0.00    +0.005 A 
ENDBRANCH   1  22
BRANCH   4  25
ATOM     25  C   UNL     1       1.254  -4.412   4.253  0.00  0.00    -0.009 A 
ATOM     26  C   UNL     1       1.755  -5.097   5.345  0.00  0.00    +0.006 A 
ATOM     27  C   UNL     1       2.916  -4.665   5.958  0.00  0.00    +0.000 A 
ATOM     28  C   UNL     1       3.577  -3.550   5.479  0.00  0.00    +0.000 A 
ATOM     29  C   UNL     1       3.078  -2.866   4.386  0.00  0.00    +0.000 A 
ATOM     30  C   UNL     1       1.918  -3.300   3.770  0.00  0.00    +0.006 A 
ENDBRANCH   4  25
BRANCH   4  31
ATOM     31  C   UNL     1      -1.137  -4.820   4.620  0.00  0.00    +0.421 C 
ATOM     32  F   UNL     1      -2.339  -5.219   4.027  0.00  0.00    -0.167 F 
ATOM     33  F   UNL     1      -0.836  -5.673   5.687  0.00  0.00    -0.167 F 
ATOM     34  F   UNL     1      -1.262  -3.509   5.093  0.00  0.00    -0.167 F 
ENDBRANCH   4  31
BRANCH   5  35
ATOM     35  C   UNL     1       0.488  -7.308   4.145  0.00  0.00    +0.341 C 
ATOM     36  O   UNL     1      -0.406  -7.909   4.715  0.00  0.00    -0.245 OA
BRANCH  35  37
ATOM     37  O   UNL     1       1.779  -7.584   4.434  0.00  0.00    -0.465 OA
ATOM     38  C   UNL     1       2.022  -8.592   5.418  0.00  0.00    +0.280 C 
ENDBRANCH  35  37
ENDBRANCH   5  35
TORSDOF 5
