REMARK  Name = ZINC36310297
REMARK  16 active torsions:
REMARK  status: ('A' for Active; 'I' for Inactive)
REMARK    1  A    between atoms: C_1  and  C_2
REMARK    2  A    between atoms: C_6  and  O_8
REMARK    3  A    between atoms: O_8  and  C_9
REMARK    4  A    between atoms: C_9  and  C_10
REMARK    5  A    between atoms: C_20  and  C_22
REMARK    6  A    between atoms: C_22  and  N_23
REMARK    7  A    between atoms: N_23  and  C_24
REMARK    8  A    between atoms: N_23  and  C_29
REMARK    9  A    between atoms: C_24  and  C_25
REMARK   10  A    between atoms: C_25  and  C_26
REMARK   11  A    between atoms: C_26  and  C_27
REMARK   12  A    between atoms: C_26  and  C_28
REMARK   13  A    between atoms: C_29  and  C_30
REMARK   14  A    between atoms: C_30  and  C_31
REMARK   15  A    between atoms: C_30  and  C_32
REMARK   16  A    between atoms: C_30  and  O_33
REMARK                            x       y       z     vdW  Elec       q    Type
REMARK                         _______ _______ _______ _____ _____    ______ ____
ROOT
ATOM      1  C   UNL     1      -1.218  -3.136   2.727  0.00  0.00    +0.144 C 
ATOM      2  C   UNL     1      -0.359  -2.003   3.285  0.00  0.00    -0.014 A 
ATOM      3  C   UNL     1       0.962  -1.784   2.897  0.00  0.00    +0.013 A 
ATOM      4  C   UNL     1       1.663  -0.757   3.430  0.00  0.00    +0.046 A 
ATOM      5  S   UNL     1       0.464  -0.030   4.537  0.00  0.00    -0.101 S 
ATOM      6  C   UNL     1      -0.874  -1.146   4.208  0.00  0.00    -0.004 A 
ATOM      7  C   UNL     1      -2.245  -1.153   4.803  0.00  0.00    +0.061 C 
ATOM      8  C   UNL     1      -3.155  -2.033   3.933  0.00  0.00    +0.113 C 
ATOM      9  N   UNL     1      -2.414  -3.252   3.573  0.00  0.00    -0.292 N 
ATOM     10  C   UNL     1      -2.824  -4.458   4.013  0.00  0.00    +0.200 C 
ATOM     11  O   UNL     1      -2.206  -5.457   3.711  0.00  0.00    -0.278 OA
ENDROOT
BRANCH   1  12
ATOM     12  C   UNL     1      -1.630  -2.813   1.289  0.00  0.00    +0.256 C 
BRANCH  12  13
ATOM     13  O   UNL     1      -2.262  -1.532   1.251  0.00  0.00    -0.490 OA
BRANCH  13  19
ATOM     14  C   UNL     1      -4.427   1.930  -1.424  0.00  0.00    +0.044 C 
ATOM     15  C   UNL     1      -3.750   0.589  -1.304  0.00  0.00    -0.047 A 
ATOM     16  C   UNL     1      -3.566  -0.196  -2.428  0.00  0.00    +0.003 A 
ATOM     17  C   UNL     1      -2.946  -1.426  -2.321  0.00  0.00    +0.004 A 
ATOM     18  C   UNL     1      -2.509  -1.876  -1.090  0.00  0.00    +0.045 A 
ATOM     19  C   UNL     1      -2.692  -1.091   0.039  0.00  0.00    +0.121 A 
ATOM     20  C   UNL     1      -3.309   0.146  -0.072  0.00  0.00    +0.049 A 
ENDBRANCH  13  19
ENDBRANCH  12  13
ENDBRANCH   1  12
BRANCH  10  21
ATOM     21  C   UNL     1      -4.052  -4.566   4.880  0.00  0.00    +0.019 C 
BRANCH  21  22
ATOM     22  N   UNL     1      -4.366  -5.982   5.110  0.00  0.00    +0.387 N 
ATOM     23  H   UNL     1      -3.552  -6.452   5.477  0.00  0.00    -0.081 HD
BRANCH  22  24
ATOM     24  C   UNL     1      -5.469  -6.089   6.075  0.00  0.00    -0.078 C 
BRANCH  24  25
ATOM     25  C   UNL     1      -5.728  -7.563   6.393  0.00  0.00    -0.016 C 
BRANCH  25  26
ATOM     26  C   UNL     1      -6.877  -7.674   7.397  0.00  0.00    -0.019 C 
ATOM     27  C   UNL     1      -8.168  -7.166   6.754  0.00  0.00    +0.007 C 
ATOM     28  C   UNL     1      -7.054  -9.136   7.810  0.00  0.00    +0.007 C 
ENDBRANCH  25  26
ENDBRANCH  24  25
ENDBRANCH  22  24
BRANCH  22  29
ATOM     29  C   UNL     1      -4.763  -6.609   3.842  0.00  0.00    -0.044 C 
BRANCH  29  30
ATOM     30  C   UNL     1      -5.645  -5.641   3.050  0.00  0.00    +0.046 C 
ATOM     31  C   UNL     1      -6.223  -6.361   1.829  0.00  0.00    +0.039 C 
ATOM     32  C   UNL     1      -6.788  -5.148   3.939  0.00  0.00    +0.039 C 
BRANCH  30  33
ATOM     33  O   UNL     1      -4.861  -4.527   2.619  0.00  0.00    -0.391 OA
ATOM     34  H   UNL     1      -5.357  -3.871   2.109  0.00  0.00    +0.210 HD
ENDBRANCH  30  33
ENDBRANCH  29  30
ENDBRANCH  22  29
ENDBRANCH  21  22
ENDBRANCH  10  21
TORSDOF 11
