REMARK  Name = ZINC42078099
REMARK  5 active torsions:
REMARK  status: ('A' for Active; 'I' for Inactive)
REMARK    1  A    between atoms: C_7  and  N_12
REMARK    2  A    between atoms: N_12  and  C_13
REMARK    3  A    between atoms: C_13  and  C_14
REMARK    4  A    between atoms: C_14  and  C_15
REMARK    5  A    between atoms: C_15  and  N_16
REMARK                            x       y       z     vdW  Elec       q    Type
REMARK                         _______ _______ _______ _____ _____    ______ ____
ROOT
ATOM      1  C   UNL     1      -0.017   1.372   0.010  0.00  0.00    +0.046 A 
ATOM      2  C   UNL     1       1.175   2.080   0.002  0.00  0.00    +0.125 A 
ATOM      3  C   UNL     1       2.380   1.398  -0.013  0.00  0.00    +0.055 A 
ATOM      4  C   UNL     1       2.400   0.017  -0.021  0.00  0.00    +0.042 A 
ATOM      5  C   UNL     1       1.204  -0.700  -0.014  0.00  0.00    +0.053 A 
ATOM      6  C   UNL     1       0.002  -0.004   0.002  0.00  0.00    +0.003 A 
ATOM      7  C   UNL     1      -1.093  -1.046   0.006  0.00  0.00    +0.173 C 
ATOM      8  C   UNL     1      -0.347  -2.364  -0.008  0.00  0.00    +0.239 C 
ATOM      9  O   UNL     1      -0.842  -3.471  -0.009  0.00  0.00    -0.273 OA
ATOM     10  N   UNL     1       0.965  -2.076  -0.020  0.00  0.00    -0.283 N 
ATOM     11 BR   UNL     1       4.051  -0.903  -0.043  0.00  0.00    -0.048 Br
ATOM     12  F   UNL     1       1.162   3.431   0.009  0.00  0.00    -0.205 F 
ATOM     13  H   UNL     1       1.666  -2.747  -0.031  0.00  0.00    +0.155 HD
ENDROOT
BRANCH   7  14
ATOM     14  N   UNL     1      -1.911  -0.928   1.221  0.00  0.00    -0.302 NA
ATOM     15  H   UNL     1      -1.463  -1.380   2.004  0.00  0.00    +0.123 HD
BRANCH  14  16
ATOM     16  C   UNL     1      -3.259  -1.469   1.002  0.00  0.00    +0.080 C 
BRANCH  16  17
ATOM     17  C   UNL     1      -4.080  -1.328   2.285  0.00  0.00    -0.003 C 
BRANCH  17  18
ATOM     18  C   UNL     1      -5.484  -1.891   2.057  0.00  0.00    -0.078 C 
BRANCH  18  19
ATOM     19  N   UNL     1      -6.271  -1.756   3.290  0.00  0.00    +0.380 N 
ATOM     20  C   UNL     1      -6.554  -0.324   3.563  0.00  0.00    -0.079 C 
ATOM     21  C   UNL     1      -7.795  -0.378   4.489  0.00  0.00    -0.020 C 
ATOM     22  C   UNL     1      -8.612  -1.554   3.905  0.00  0.00    -0.020 C 
ATOM     23  C   UNL     1      -7.591  -2.404   3.125  0.00  0.00    -0.079 C 
ATOM     24  H   UNL     1      -5.777  -2.169   4.066  0.00  0.00    -0.082 HD
ENDBRANCH  18  19
ENDBRANCH  17  18
ENDBRANCH  16  17
ENDBRANCH  14  16
ENDBRANCH   7  14
TORSDOF 5
