REMARK  Name = ZINC24535054
REMARK  11 active torsions:
REMARK  status: ('A' for Active; 'I' for Inactive)
REMARK    1  A    between atoms: C_1  and  C_2
REMARK    2  A    between atoms: C_3  and  N_9
REMARK    3  A    between atoms: C_13  and  S_15
REMARK    4  A    between atoms: S_15  and  C_16
REMARK    5  A    between atoms: C_16  and  C_17
REMARK    6  A    between atoms: N_19  and  C_20
REMARK    7  A    between atoms: N_19  and  C_25
REMARK    8  A    between atoms: C_20  and  C_21
REMARK    9  A    between atoms: C_21  and  C_22
REMARK   10  A    between atoms: C_28  and  O_31
REMARK   11  A    between atoms: O_31  and  C_32
REMARK                            x       y       z     vdW  Elec       q    Type
REMARK                         _______ _______ _______ _____ _____    ______ ____
ROOT
ATOM      1  C   UNL     1       5.576   3.605   9.142  0.00  0.00    +0.230 C 
ATOM      2  O   UNL     1       6.741   3.429   8.857  0.00  0.00    -0.274 OA
ATOM      3  N   UNL     1       5.241   4.041  10.373  0.00  0.00    -0.270 N 
ENDROOT
BRANCH   3   4
ATOM      4  C   UNL     1       6.243   4.391  11.288  0.00  0.00    +0.037 A 
ATOM      5  C   UNL     1       7.101   3.420  11.784  0.00  0.00    +0.027 A 
ATOM      6  C   UNL     1       8.091   3.766  12.682  0.00  0.00    +0.047 A 
ATOM      7  C   UNL     1       8.221   5.084  13.097  0.00  0.00    +0.120 A 
ATOM      8  C   UNL     1       7.360   6.054  12.606  0.00  0.00    +0.047 A 
ATOM      9  C   UNL     1       6.373   5.710  11.704  0.00  0.00    +0.027 A 
BRANCH   7  10
ATOM     10  O   UNL     1       9.192   5.423  13.986  0.00  0.00    -0.495 OA
ATOM     11  C   UNL     1      10.043   4.373  14.450  0.00  0.00    +0.277 C 
ENDBRANCH   7  10
ENDBRANCH   3   4
BRANCH   1  12
ATOM     12  C   UNL     1       4.501   3.338   8.120  0.00  0.00    +0.172 C 
BRANCH  12  13
ATOM     13  S   UNL     1       5.264   2.767   6.576  0.00  0.00    -0.088 S 
BRANCH  13  18
ATOM     14  N   UNL     1       1.379   1.646   2.421  0.00  0.00    -0.292 N 
ATOM     15  C   UNL     1       2.116   1.974   3.554  0.00  0.00    +0.187 A 
ATOM     16  N   UNL     1       1.697   2.403   4.728  0.00  0.00    -0.125 NA
ATOM     17  N   UNL     1       2.607   2.667   5.725  0.00  0.00    -0.133 NA
ATOM     18  C   UNL     1       3.897   2.501   5.497  0.00  0.00    +0.160 A 
ATOM     19  S   UNL     1       3.884   1.934   3.804  0.00  0.00    -0.024 S 
ATOM     20  H   UNL     1       1.883   1.225   1.539  0.00  0.00    +0.154 HD
BRANCH  14  23
ATOM     21  C   UNL     1      -0.010   1.228  -0.027  0.00  0.00    +0.047 C 
ATOM     22  C   UNL     1      -0.721   1.658   1.230  0.00  0.00    -0.011 A 
ATOM     23  C   UNL     1      -0.003   1.851   2.404  0.00  0.00    +0.037 A 
ATOM     24  C   UNL     1      -0.662   2.248   3.560  0.00  0.00    +0.023 A 
ATOM     25  C   UNL     1      -2.029   2.451   3.540  0.00  0.00    +0.003 A 
ATOM     26  C   UNL     1      -2.741   2.258   2.371  0.00  0.00    +0.020 A 
ATOM     27  C   UNL     1      -2.087   1.868   1.215  0.00  0.00    +0.046 A 
ATOM     28 CL   UNL     1      -2.984   1.634  -0.253  0.00  0.00    -0.083 Cl
ENDBRANCH  14  23
ENDBRANCH  13  18
ENDBRANCH  12  13
ENDBRANCH   1  12
BRANCH   3  29
ATOM     29  C   UNL     1       3.831   4.149  10.753  0.00  0.00    +0.123 C 
BRANCH  29  30
ATOM     30  C   UNL     1       3.368   2.829  11.374  0.00  0.00    +0.115 C 
BRANCH  30  31
ATOM     31  C   UNL     1       1.917   2.940  11.766  0.00  0.00    +0.212 C 
ATOM     32  O   UNL     1       1.312   3.972  11.568  0.00  0.00    -0.276 OA
ATOM     33  N   UNL     1       1.291   1.891  12.336  0.00  0.00    -0.329 N 
ATOM     34  H   UNL     1       0.232   1.972  12.622  0.00  0.00    +0.145 HD
ATOM     35  H   UNL     1       1.839   0.955  12.516  0.00  0.00    +0.145 HD
ENDBRANCH  30  31
ENDBRANCH  29  30
ENDBRANCH   3  29
TORSDOF 9
