REMARK  Name = ZINC55129245
REMARK  6 active torsions:
REMARK  status: ('A' for Active; 'I' for Inactive)
REMARK    1  A    between atoms: C_1  and  C_2
REMARK    2  A    between atoms: C_7  and  N_22
REMARK    3  A    between atoms: C_9  and  C_11
REMARK    4  A    between atoms: N_16  and  C_19
REMARK    5  A    between atoms: C_19  and  C_20
REMARK    6  A    between atoms: C_19  and  C_21
REMARK                            x       y       z     vdW  Elec       q    Type
REMARK                         _______ _______ _______ _____ _____    ______ ____
ROOT
ATOM      1  C   UNL     1       1.069   1.951   0.472  0.00  0.00    +0.008 C 
ATOM      2  C   UNL     1       0.496   0.579   0.114  0.00  0.00    -0.004 C 
ATOM      3  C   UNL     1      -1.002   0.710  -0.168  0.00  0.00    +0.004 C 
ATOM      4  C   UNL     1      -1.576  -0.663  -0.527  0.00  0.00    -0.001 C 
ATOM      5  C   UNL     1      -1.359  -1.627   0.641  0.00  0.00    -0.016 C 
ATOM      6  C   UNL     1       0.139  -1.758   0.923  0.00  0.00    -0.063 C 
ATOM      7  C   UNL     1       0.713  -0.386   1.282  0.00  0.00    +0.064 C 
ENDROOT
BRANCH   7   8
ATOM      8  C   UNL     1       0.015   0.146   2.507  0.00  0.00    +0.217 C 
ATOM      9  O   UNL     1      -1.035   0.742   2.397  0.00  0.00    -0.275 OA
ATOM     10  N   UNL     1       0.559  -0.042   3.727  0.00  0.00    -0.299 N 
ATOM     11  C   UNL     1       1.887  -0.656   3.874  0.00  0.00    +0.123 C 
ATOM     12  C   UNL     1       2.742   0.244   4.772  0.00  0.00    +0.103 C 
ATOM     13  N   UNL     1       2.030   0.493   6.032  0.00  0.00    -0.297 NA
ATOM     14  C   UNL     1       0.776   1.222   5.800  0.00  0.00    +0.103 C 
ATOM     15  C   UNL     1      -0.158   0.367   4.944  0.00  0.00    +0.123 C 
BRANCH  13  16
ATOM     16  C   UNL     1       2.885   1.208   6.988  0.00  0.00    +0.051 C 
ATOM     17  C   UNL     1       2.110   1.449   8.285  0.00  0.00    +0.024 C 
ATOM     18  C   UNL     1       4.129   0.369   7.286  0.00  0.00    +0.024 C 
ENDBRANCH  13  16
ENDBRANCH   7   8
BRANCH   6  19
ATOM     19  N   UNL     1       0.347  -2.684   2.045  0.00  0.00    +0.380 N 
ATOM     20  H   UNL     1      -0.099  -3.565   1.840  0.00  0.00    -0.090 HD
ATOM     21  H   UNL     1       1.336  -2.830   2.180  0.00  0.00    -0.090 HD
ATOM     22  H   UNL     1      -0.053  -2.291   2.884  0.00  0.00    -0.090 HD
ENDBRANCH   6  19
TORSDOF 3
