REMARK  Name = ZINC61951431
REMARK  7 active torsions:
REMARK  status: ('A' for Active; 'I' for Inactive)
REMARK    1  A    between atoms: C_1  and  N_2
REMARK    2  A    between atoms: N_2  and  C_3
REMARK    3  A    between atoms: N_2  and  C_13
REMARK    4  A    between atoms: C_3  and  C_4
REMARK    5  A    between atoms: C_9  and  O_10
REMARK    6  A    between atoms: O_10  and  C_11
REMARK    7  A    between atoms: C_17  and  C_19
REMARK                            x       y       z     vdW  Elec       q    Type
REMARK                         _______ _______ _______ _____ _____    ______ ____
ROOT
ATOM      1  C   UNL     1       0.262  -0.463  -1.170  0.00  0.00    +0.030 A 
ATOM      2  C   UNL     1       0.289  -1.848  -1.294  0.00  0.00    +0.023 A 
ATOM      3  C   UNL     1       0.476  -2.431  -2.533  0.00  0.00    +0.002 A 
ATOM      4  C   UNL     1       0.635  -1.643  -3.655  0.00  0.00    +0.011 A 
ATOM      5  C   UNL     1       0.609  -0.253  -3.541  0.00  0.00    +0.014 A 
ATOM      6  C   UNL     1       0.416   0.336  -2.292  0.00  0.00    +0.034 A 
ENDROOT
BRANCH   5   7
ATOM      7  C   UNL     1       0.780   0.595  -4.742  0.00  0.00    +0.094 C 
ATOM      8  N   UNL     1       1.516   0.161  -5.763  0.00  0.00    -0.387 N 
ATOM      9  N   UNL     1       0.198   1.790  -4.802  0.00  0.00    -0.345 N 
ATOM     10  H   UNL     1       1.940  -0.711  -5.720  0.00  0.00    +0.157 HD
ATOM     11  H   UNL     1      -0.338   2.107  -4.058  0.00  0.00    +0.144 HD
ATOM     12  H   UNL     1       0.310   2.346  -5.590  0.00  0.00    +0.144 HD
ATOM     13  H   UNL     1       1.629   0.716  -6.551  0.00  0.00    +0.157 HD
ENDBRANCH   5   7
BRANCH   1  15
ATOM     14  C   UNL     1      -0.082   1.574   0.200  0.00  0.00    +0.129 C 
ATOM     15  N   UNL     1       0.074   0.122   0.085  0.00  0.00    -0.328 N 
BRANCH  15  16
ATOM     16  C   UNL     1       0.033  -0.717   1.285  0.00  0.00    +0.143 C 
BRANCH  16  17
ATOM     17  C   UNL     1       1.437  -0.968   1.771  0.00  0.00    +0.012 A 
ATOM     18  C   UNL     1       2.059  -2.170   1.494  0.00  0.00    +0.024 A 
ATOM     19  C   UNL     1       3.348  -2.401   1.940  0.00  0.00    +0.018 A 
ATOM     20  C   UNL     1       4.017  -1.429   2.664  0.00  0.00    +0.019 A 
ATOM     21  C   UNL     1       3.398  -0.226   2.943  0.00  0.00    +0.047 A 
ATOM     22  C   UNL     1       2.107   0.009   2.492  0.00  0.00    +0.125 A 
ATOM     23 BR   UNL     1       4.198  -4.047   1.560  0.00  0.00    -0.050 Br
BRANCH  22  24
ATOM     24  O   UNL     1       1.498   1.194   2.761  0.00  0.00    -0.495 OA
ATOM     25  C   UNL     1       2.248   2.154   3.508  0.00  0.00    +0.277 C 
ENDBRANCH  22  24
ENDBRANCH  16  17
ENDBRANCH  15  16
ENDBRANCH   1  15
TORSDOF 5
