REMARK  Name = ZINC35860849
REMARK  11 active torsions:
REMARK  status: ('A' for Active; 'I' for Inactive)
REMARK    1  A    between atoms: C_1  and  C_2
REMARK    2  A    between atoms: C_2  and  C_3
REMARK    3  A    between atoms: C_3  and  C_5
REMARK    4  A    between atoms: C_3  and  O_15
REMARK    5  A    between atoms: C_11  and  C_14
REMARK    6  A    between atoms: O_15  and  C_16
REMARK    7  A    between atoms: C_22  and  C_33
REMARK    8  A    between atoms: C_27  and  C_29
REMARK    9  A    between atoms: C_29  and  C_30
REMARK   10  A    between atoms: C_29  and  C_31
REMARK   11  A    between atoms: C_29  and  C_32
REMARK                            x       y       z     vdW  Elec       q    Type
REMARK                         _______ _______ _______ _____ _____    ______ ____
ROOT
ATOM      1  C   UNL     1       1.564   0.530  -0.804  0.00  0.00    +0.122 A 
ATOM      2  C   UNL     1       2.517   1.446  -0.380  0.00  0.00    +0.046 A 
ATOM      3  C   UNL     1       2.779   2.563  -1.143  0.00  0.00    +0.007 A 
ATOM      4  C   UNL     1       2.101   2.782  -2.336  0.00  0.00    -0.040 A 
ATOM      5  C   UNL     1       1.163   1.869  -2.763  0.00  0.00    -0.016 A 
ATOM      6  C   UNL     1       0.894   0.744  -1.997  0.00  0.00    +0.051 A 
ATOM      7  C   UNL     1       0.412   2.031  -4.061  0.00  0.00    +0.137 C 
ATOM      8  N   UNL     1       0.630   3.380  -4.593  0.00  0.00    -0.290 N 
ATOM      9  C   UNL     1       2.006   3.903  -4.567  0.00  0.00    +0.113 C 
ATOM     10  C   UNL     1       2.432   4.034  -3.106  0.00  0.00    +0.054 C 
ATOM     11  C   UNL     1      -0.389   4.113  -5.085  0.00  0.00    +0.222 C 
ATOM     12  O   UNL     1      -1.526   3.698  -5.009  0.00  0.00    -0.275 OA
ENDROOT
BRANCH   7  13
ATOM     13  C   UNL     1       0.907   1.014  -5.057  0.00  0.00    -0.022 A 
ATOM     14  C   UNL     1       0.013   0.161  -5.676  0.00  0.00    +0.008 A 
ATOM     15  C   UNL     1       0.466  -0.772  -6.590  0.00  0.00    +0.038 A 
ATOM     16  C   UNL     1       1.817  -0.852  -6.885  0.00  0.00    +0.123 A 
ATOM     17  C   UNL     1       2.712   0.003  -6.263  0.00  0.00    +0.038 A 
ATOM     18  C   UNL     1       2.255   0.939  -5.354  0.00  0.00    +0.008 A 
ATOM     19  F   UNL     1       2.261  -1.763  -7.777  0.00  0.00    -0.205 F 
ENDBRANCH   7  13
BRANCH  11  20
ATOM     20  C   UNL     1      -0.115   5.446  -5.731  0.00  0.00    +0.039 C 
ATOM     21  C   UNL     1      -1.422   6.030  -6.270  0.00  0.00    +0.020 C 
ATOM     22  C   UNL     1       0.482   6.402  -4.695  0.00  0.00    +0.020 C 
ATOM     23  C   UNL     1       0.875   5.261  -6.883  0.00  0.00    +0.020 C 
ENDBRANCH  11  20
BRANCH   1  24
ATOM     24  O   UNL     1       1.295  -0.572  -0.057  0.00  0.00    -0.480 OA
BRANCH  24  25
ATOM     25  C   UNL     1       1.962  -0.681   1.202  0.00  0.00    +0.258 C 
BRANCH  25  26
ATOM     26  C   UNL     1       2.244  -2.132   1.497  0.00  0.00    +0.256 C 
ATOM     27  O   UNL     1       1.750  -2.998   0.807  0.00  0.00    -0.272 OA
ATOM     28  N   UNL     1       3.045  -2.466   2.529  0.00  0.00    -0.302 N 
ATOM     29  C   UNL     1       3.726  -1.433   3.323  0.00  0.00    +0.089 C 
ATOM     30  C   UNL     1       3.458  -1.706   4.807  0.00  0.00    -0.063 C 
ATOM     31  N   UNL     1       3.857  -3.081   5.131  0.00  0.00    +0.383 N 
ATOM     32  C   UNL     1       3.015  -4.033   4.396  0.00  0.00    -0.057 C 
ATOM     33  C   UNL     1       3.257  -3.875   2.895  0.00  0.00    +0.092 C 
ATOM     34  C   UNL     1       3.365  -5.460   4.823  0.00  0.00    -0.012 C 
ATOM     35  H   UNL     1       4.823  -3.219   4.873  0.00  0.00    -0.085 HD
ATOM     36  H   UNL     1       3.752  -3.236   6.122  0.00  0.00    -0.085 HD
ENDBRANCH  25  26
BRANCH  25  38
ATOM     37  C   UNL     1       0.906   1.405   2.084  0.00  0.00    +0.008 C 
ATOM     38  C   UNL     1       1.072  -0.101   2.303  0.00  0.00    +0.051 C 
ENDBRANCH  25  38
ENDBRANCH  24  25
ENDBRANCH   1  24
TORSDOF 6
