REMARK  Name = ZINC65525925
REMARK  11 active torsions:
REMARK  status: ('A' for Active; 'I' for Inactive)
REMARK    1  A    between atoms: C_1  and  C_2
REMARK    2  A    between atoms: C_2  and  N_3
REMARK    3  A    between atoms: C_10  and  C_23
REMARK    4  A    between atoms: C_10  and  C_27
REMARK    5  A    between atoms: C_12  and  C_14
REMARK    6  A    between atoms: C_19  and  O_20
REMARK    7  A    between atoms: O_20  and  C_21
REMARK    8  A    between atoms: C_23  and  C_24
REMARK    9  A    between atoms: C_24  and  C_25
REMARK   10  A    between atoms: C_24  and  C_26
REMARK   11  A    between atoms: C_27  and  O_28
REMARK                            x       y       z     vdW  Elec       q    Type
REMARK                         _______ _______ _______ _____ _____    ______ ____
ROOT
ATOM      1  N   UNL     1      -0.169  -1.174  -4.628  0.00  0.00    +0.380 N 
ATOM      2  C   UNL     1       1.099  -0.412  -4.496  0.00  0.00    -0.073 C 
ATOM      3  C   UNL     1       2.192  -1.492  -4.352  0.00  0.00    -0.003 C 
ATOM      4  C   UNL     1       1.449  -2.739  -3.802  0.00  0.00    -0.002 C 
ATOM      5  C   UNL     1      -0.022  -2.295  -3.665  0.00  0.00    -0.073 C 
ATOM      6  C   UNL     1       2.046  -2.968  -2.397  0.00  0.00    +0.044 C 
ATOM      7  N   UNL     1       2.567  -1.638  -1.988  0.00  0.00    -0.301 NA
ATOM      8  C   UNL     1       3.166  -1.069  -3.233  0.00  0.00    +0.090 C 
ATOM      9  H   UNL     1       1.822  -1.046  -1.652  0.00  0.00    +0.123 HD
ATOM     10  H   UNL     1      -0.274  -1.527  -5.567  0.00  0.00    -0.082 HD
ENDROOT
BRANCH   8  11
ATOM     11  C   UNL     1       3.262   0.434  -3.161  0.00  0.00    +0.014 A 
ATOM     12  C   UNL     1       2.547   1.127  -2.203  0.00  0.00    +0.047 A 
ATOM     13  C   UNL     1       2.635   2.507  -2.136  0.00  0.00    +0.124 A 
ATOM     14  C   UNL     1       3.439   3.194  -3.030  0.00  0.00    +0.042 A 
ATOM     15  C   UNL     1       4.155   2.504  -3.989  0.00  0.00    +0.049 A 
ATOM     16  C   UNL     1       4.072   1.121  -4.053  0.00  0.00    +0.125 A 
ATOM     17  F   UNL     1       1.936   3.183  -1.199  0.00  0.00    -0.205 F 
BRANCH  16  18
ATOM     18  O   UNL     1       4.779   0.439  -4.993  0.00  0.00    -0.495 OA
ATOM     19  C   UNL     1       5.593   1.211  -5.878  0.00  0.00    +0.277 C 
ENDBRANCH  16  18
ENDBRANCH   8  11
BRANCH   1  21
ATOM     20  C   UNL     1      -1.521   0.741  -5.337  0.00  0.00    -0.017 C 
ATOM     21  C   UNL     1      -1.315  -0.331  -4.264  0.00  0.00    -0.082 C 
ENDBRANCH   1  21
BRANCH   6  22
ATOM     22  C   UNL     1       3.183  -3.989  -2.461  0.00  0.00    +0.027 C 
BRANCH  22  23
ATOM     23  C   UNL     1       4.328  -3.426  -3.307  0.00  0.00    -0.015 C 
ATOM     24  C   UNL     1       5.287  -2.642  -2.409  0.00  0.00    +0.007 C 
ATOM     25  C   UNL     1       5.081  -4.577  -3.977  0.00  0.00    +0.007 C 
ENDBRANCH  22  23
ENDBRANCH   6  22
BRANCH   6  26
ATOM     26  C   UNL     1       0.960  -3.437  -1.427  0.00  0.00    +0.178 C 
BRANCH  26  27
ATOM     27  O   UNL     1       1.549  -3.723  -0.156  0.00  0.00    -0.393 OA
ATOM     28  H   UNL     1       0.932  -4.099   0.487  0.00  0.00    +0.209 HD
ENDBRANCH  26  27
ENDBRANCH   6  26
TORSDOF 7
