REMARK  Name = ZINC20836466
REMARK  8 active torsions:
REMARK  status: ('A' for Active; 'I' for Inactive)
REMARK    1  A    between atoms: C_6  and  N_7
REMARK    2  A    between atoms: N_7  and  S_8
REMARK    3  A    between atoms: S_8  and  C_11
REMARK    4  A    between atoms: C_14  and  N_17
REMARK    5  A    between atoms: C_18  and  C_20
REMARK    6  A    between atoms: C_20  and  S_21
REMARK    7  A    between atoms: S_21  and  C_22
REMARK    8  A    between atoms: N_27  and  N_28
REMARK                            x       y       z     vdW  Elec       q    Type
REMARK                         _______ _______ _______ _____ _____    ______ ____
ROOT
ATOM      1  N   UNL     1       8.040  -1.930   0.335  0.00  0.00    -0.285 N 
ATOM      2  C   UNL     1       8.687  -0.874  -0.199  0.00  0.00    +0.227 C 
ATOM      3  O   UNL     1       8.085  -0.084  -0.894  0.00  0.00    -0.275 OA
ATOM      4  H   UNL     1       8.563  -2.599   1.034  0.00  0.00    +0.155 HD
ENDROOT
BRANCH   1   8
ATOM      5  C   UNL     1       4.062  -2.661  -0.664  0.00  0.00    +0.109 A 
ATOM      6  C   UNL     1       4.523  -2.969   0.603  0.00  0.00    +0.030 A 
ATOM      7  C   UNL     1       5.843  -2.732   0.935  0.00  0.00    +0.025 A 
ATOM      8  C   UNL     1       6.704  -2.175  -0.000  0.00  0.00    +0.034 A 
ATOM      9  C   UNL     1       6.237  -1.861  -1.270  0.00  0.00    +0.025 A 
ATOM     10  C   UNL     1       4.918  -2.105  -1.598  0.00  0.00    +0.030 A 
BRANCH   5  11
ATOM     11  S   UNL     1       2.380  -2.970  -1.087  0.00  0.00    +0.072 S 
ATOM     12  O   UNL     1       2.096  -2.176  -2.231  0.00  0.00    -0.150 OA
ATOM     13  O   UNL     1       1.633  -2.864   0.117  0.00  0.00    -0.150 OA
BRANCH  11  14
ATOM     14  N   UNL     1       2.279  -4.550  -1.570  0.00  0.00    -0.216 N 
ATOM     15  H   UNL     1       1.655  -5.259  -1.005  0.00  0.00    +0.174 HD
BRANCH  14  21
ATOM     16  C   UNL     1       3.717  -6.165  -2.644  0.00  0.00    +0.027 A 
ATOM     17  C   UNL     1       4.416  -6.591  -3.756  0.00  0.00    +0.040 A 
ATOM     18  C   UNL     1       4.389  -5.844  -4.921  0.00  0.00    +0.124 A 
ATOM     19  C   UNL     1       3.661  -4.667  -4.974  0.00  0.00    +0.040 A 
ATOM     20  C   UNL     1       2.961  -4.236  -3.864  0.00  0.00    +0.027 A 
ATOM     21  C   UNL     1       2.987  -4.984  -2.695  0.00  0.00    +0.048 A 
ATOM     22  F   UNL     1       5.073  -6.263  -6.008  0.00  0.00    -0.205 F 
ENDBRANCH  14  21
ENDBRANCH  11  14
ENDBRANCH   5  11
ENDBRANCH   1   8
BRANCH   2  23
ATOM     23  C   UNL     1      10.156  -0.676   0.070  0.00  0.00    +0.173 C 
BRANCH  23  24
ATOM     24  S   UNL     1      10.730   0.820  -0.780  0.00  0.00    -0.075 S 
BRANCH  24  25
ATOM     25  C   UNL     1      12.442   0.911  -0.374  0.00  0.00    +0.211 A 
ATOM     26  N   UNL     1      13.314   1.878  -0.786  0.00  0.00    -0.186 NA
ATOM     27  C   UNL     1      14.542   1.592  -0.258  0.00  0.00    +0.232 A 
ATOM     28  N   UNL     1      14.433   0.495   0.451  0.00  0.00    -0.245 N 
ATOM     29  N   UNL     1      13.101   0.066   0.382  0.00  0.00    -0.144 NA
ATOM     30  N   UNL     1      15.702   2.334  -0.439  0.00  0.00    -0.205 N 
ATOM     31  H   UNL     1      15.681   3.244  -1.057  0.00  0.00    +0.177 HD
ATOM     32  H   UNL     1      15.313   0.082   0.965  0.00  0.00    +0.192 HD
BRANCH  30  33
ATOM     33  N   UNL     1      16.898   1.924   0.164  0.00  0.00    -0.189 NA
ATOM     34  C   UNL     1      17.943   2.658   0.078  0.00  0.00    +0.037 C 
ATOM     35  C   UNL     1      17.877   4.031  -0.553  0.00  0.00    +0.052 C 
ATOM     36  C   UNL     1      18.509   5.040   0.419  0.00  0.00    +0.006 C 
ATOM     37  C   UNL     1      19.923   4.579   0.776  0.00  0.00    +0.001 C 
ATOM     38  C   UNL     1      19.861   3.245   1.522  0.00  0.00    +0.006 C 
ATOM     39  C   UNL     1      19.278   2.171   0.598  0.00  0.00    +0.052 C 
ENDBRANCH  30  33
ENDBRANCH  24  25
ENDBRANCH  23  24
ENDBRANCH   2  23
TORSDOF 8
