REMARK  Name = ZINC36788511
REMARK  10 active torsions:
REMARK  status: ('A' for Active; 'I' for Inactive)
REMARK    1  A    between atoms: C_1  and  C_2
REMARK    2  A    between atoms: C_2  and  C_3
REMARK    3  A    between atoms: C_3  and  C_4
REMARK    4  A    between atoms: C_3  and  N_6
REMARK    5  A    between atoms: C_4  and  C_5
REMARK    6  A    between atoms: N_6  and  C_7
REMARK    7  A    between atoms: N_6  and  C_8
REMARK    8  A    between atoms: C_8  and  C_9
REMARK    9  A    between atoms: N_11  and  C_12
REMARK   10  A    between atoms: C_15  and  N_19
REMARK                            x       y       z     vdW  Elec       q    Type
REMARK                         _______ _______ _______ _____ _____    ______ ____
ROOT
ATOM      1  C   UNL     1      -3.868   2.067   1.742  0.00  0.00    +0.201 C 
ATOM      2  O   UNL     1      -4.570   1.463   2.525  0.00  0.00    -0.278 OA
ATOM      3  N   UNL     1      -3.811   3.413   1.786  0.00  0.00    -0.285 N 
ATOM      4  H   UNL     1      -3.289   3.898   1.128  0.00  0.00    +0.155 HD
ENDROOT
BRANCH   3   5
ATOM      5  C   UNL     1      -4.506   4.111   2.784  0.00  0.00    +0.070 A 
ATOM      6  C   UNL     1      -4.479   3.658   4.097  0.00  0.00    +0.065 A 
ATOM      7  C   UNL     1      -5.165   4.346   5.080  0.00  0.00    +0.044 A 
ATOM      8  C   UNL     1      -5.880   5.492   4.755  0.00  0.00    +0.027 A 
ATOM      9  C   UNL     1      -5.907   5.945   3.443  0.00  0.00    +0.044 A 
ATOM     10  C   UNL     1      -5.217   5.261   2.461  0.00  0.00    +0.065 A 
ATOM     11 CL   UNL     1      -5.244   5.832   0.822  0.00  0.00    -0.082 Cl
ATOM     12 CL   UNL     1      -3.586   2.226   4.502  0.00  0.00    -0.082 Cl
BRANCH   8  13
ATOM     13  N   UNL     1      -6.573   6.189   5.750  0.00  0.00    -0.358 N 
ATOM     14  H   UNL     1      -6.554   5.872   6.667  0.00  0.00    +0.142 HD
ATOM     15  H   UNL     1      -7.072   6.989   5.524  0.00  0.00    +0.142 HD
ENDBRANCH   8  13
ENDBRANCH   3   5
BRANCH   1  16
ATOM     16  C   UNL     1      -3.058   1.312   0.720  0.00  0.00    +0.019 C 
BRANCH  16  17
ATOM     17  N   UNL     1      -3.292  -0.130   0.877  0.00  0.00    +0.385 N 
ATOM     18  C   UNL     1      -4.690  -0.438   0.549  0.00  0.00    -0.095 C 
ATOM     19  H   UNL     1      -3.103  -0.399   1.831  0.00  0.00    -0.081 HD
BRANCH  17  20
ATOM     20  C   UNL     1      -2.402  -0.872  -0.026  0.00  0.00    -0.069 C 
BRANCH  20  22
ATOM     21  C   UNL     1      -3.819  -0.383  -2.025  0.00  0.00    +0.002 C 
ATOM     22  C   UNL     1      -2.427  -0.224  -1.412  0.00  0.00    -0.019 C 
ENDBRANCH  20  22
BRANCH  20  23
ATOM     23  C   UNL     1      -0.976  -0.843   0.526  0.00  0.00    -0.019 C 
ATOM     24  C   UNL     1      -0.943  -1.528   1.893  0.00  0.00    +0.002 C 
ENDBRANCH  20  23
ENDBRANCH  17  20
ENDBRANCH  16  17
ENDBRANCH   1  16
TORSDOF 7
