REMARK  Name = ZINC09834761
REMARK  8 active torsions:
REMARK  status: ('A' for Active; 'I' for Inactive)
REMARK    1  A    between atoms: C_1  and  C_2
REMARK    2  A    between atoms: C_2  and  C_3
REMARK    3  A    between atoms: C_9  and  N_23
REMARK    4  A    between atoms: C_10  and  S_12
REMARK    5  A    between atoms: S_12  and  C_15
REMARK    6  A    between atoms: C_18  and  O_21
REMARK    7  A    between atoms: O_21  and  C_22
REMARK    8  A    between atoms: N_26  and  C_29
REMARK                            x       y       z     vdW  Elec       q    Type
REMARK                         _______ _______ _______ _____ _____    ______ ____
ROOT
ATOM      1  C   UNL     1      -2.758   0.572   3.144  0.00  0.00    -0.047 A 
ATOM      2  C   UNL     1      -4.040   0.037   3.039  0.00  0.00    +0.005 A 
ATOM      3  C   UNL     1      -4.417  -0.669   1.938  0.00  0.00    +0.026 A 
ATOM      4  C   UNL     1      -3.504  -0.864   0.887  0.00  0.00    +0.048 A 
ATOM      5  C   UNL     1      -2.202  -0.320   0.998  0.00  0.00    +0.021 A 
ATOM      6  C   UNL     1      -1.846   0.402   2.147  0.00  0.00    +0.015 A 
ATOM      7  C   UNL     1      -1.284  -0.518  -0.060  0.00  0.00    +0.066 A 
ATOM      8  C   UNL     1      -1.714  -1.238  -1.165  0.00  0.00    +0.131 A 
ATOM      9  C   UNL     1      -3.006  -1.743  -1.196  0.00  0.00    +0.112 A 
ATOM     10  N   UNL     1      -3.922  -1.583  -0.212  0.00  0.00    -0.359 N 
ATOM     11  H   UNL     1      -4.869  -1.972  -0.281  0.00  0.00    +0.165 HD
ENDROOT
BRANCH   7  12
ATOM     12  N   UNL     1       0.002  -0.004   0.002  0.00  0.00    -0.325 N 
ATOM     13  C   UNL     1      -0.021   1.462   0.101  0.00  0.00    +0.124 C 
ATOM     14  C   UNL     1       1.414   1.994   0.087  0.00  0.00    +0.124 C 
ATOM     15  N   UNL     1       2.163   1.405   1.206  0.00  0.00    -0.325 N 
ATOM     16  C   UNL     1       2.186  -0.061   1.108  0.00  0.00    +0.124 C 
ATOM     17  C   UNL     1       0.751  -0.593   1.121  0.00  0.00    +0.124 C 
BRANCH  15  18
ATOM     18  C   UNL     1       3.460   1.924   1.269  0.00  0.00    +0.065 A 
ATOM     19  C   UNL     1       4.354   1.691   0.233  0.00  0.00    +0.026 A 
ATOM     20  C   UNL     1       5.633   2.208   0.296  0.00  0.00    +0.002 A 
ATOM     21  C   UNL     1       6.029   2.949   1.394  0.00  0.00    +0.003 A 
ATOM     22  C   UNL     1       5.144   3.180   2.432  0.00  0.00    +0.040 A 
ATOM     23  C   UNL     1       3.860   2.669   2.373  0.00  0.00    +0.144 A 
ATOM     24  F   UNL     1       2.996   2.894   3.387  0.00  0.00    -0.204 F 
ENDBRANCH  15  18
ENDBRANCH   7  12
BRANCH   8  25
ATOM     25  S   UNL     1      -0.622  -1.515  -2.520  0.00  0.00    +0.028 S 
ATOM     26  O   UNL     1       0.598  -1.990  -1.968  0.00  0.00    -0.164 OA
ATOM     27  O   UNL     1      -1.357  -2.249  -3.490  0.00  0.00    -0.164 OA
BRANCH  25  28
ATOM     28  C   UNL     1      -0.273   0.057  -3.237  0.00  0.00    +0.094 A 
ATOM     29  C   UNL     1      -1.073   0.545  -4.253  0.00  0.00    +0.031 A 
ATOM     30  C   UNL     1      -0.804   1.779  -4.812  0.00  0.00    +0.047 A 
ATOM     31  C   UNL     1       0.277   2.523  -4.362  0.00  0.00    +0.120 A 
ATOM     32  C   UNL     1       1.081   2.029  -3.346  0.00  0.00    +0.047 A 
ATOM     33  C   UNL     1       0.805   0.796  -2.785  0.00  0.00    +0.031 A 
BRANCH  31  34
ATOM     34  O   UNL     1       0.546   3.736  -4.914  0.00  0.00    -0.495 OA
ATOM     35  C   UNL     1      -0.324   4.182  -5.956  0.00  0.00    +0.277 C 
ENDBRANCH  31  34
ENDBRANCH  25  28
ENDBRANCH   8  25
BRANCH   1  37
ATOM     36  C   UNL     1      -2.701   2.828   4.172  0.00  0.00    +0.009 C 
ATOM     37  C   UNL     1      -2.375   1.348   4.378  0.00  0.00    +0.032 C 
ENDBRANCH   1  37
TORSDOF 6
