REMARK  Name = ZINC24093460
REMARK  12 active torsions:
REMARK  status: ('A' for Active; 'I' for Inactive)
REMARK    1  A    between atoms: C_1  and  C_2
REMARK    2  A    between atoms: C_2  and  C_3
REMARK    3  A    between atoms: C_2  and  C_4
REMARK    4  A    between atoms: C_4  and  C_5
REMARK    5  A    between atoms: C_5  and  C_26
REMARK    6  A    between atoms: N_8  and  C_12
REMARK    7  A    between atoms: C_12  and  N_13
REMARK    8  A    between atoms: N_16  and  C_19
REMARK    9  A    between atoms: C_19  and  C_20
REMARK   10  A    between atoms: N_22  and  C_23
REMARK   11  A    between atoms: C_23  and  C_24
REMARK   12  A    between atoms: C_23  and  C_25
REMARK                            x       y       z     vdW  Elec       q    Type
REMARK                         _______ _______ _______ _____ _____    ______ ____
ROOT
ATOM      1  C   UNL     1      -3.865  -1.497   0.395  0.00  0.00    +0.138 C 
ATOM      2  C   UNL     1      -2.858  -0.843  -0.529  0.00  0.00    +0.252 C 
ATOM      3  O   UNL     1      -2.872  -0.836  -1.741  0.00  0.00    -0.272 OA
ATOM      4  N   UNL     1      -1.943  -0.269   0.277  0.00  0.00    -0.210 N 
ATOM      5  C   UNL     1      -2.227  -0.472   1.569  0.00  0.00    +0.311 C 
ATOM      6  O   UNL     1      -1.545  -0.054   2.484  0.00  0.00    -0.252 OA
ATOM      7  N   UNL     1      -3.353  -1.187   1.741  0.00  0.00    -0.281 N 
ATOM      8  H   UNL     1      -3.896  -1.539   2.631  0.00  0.00    +0.152 HD
ENDROOT
BRANCH   1   9
ATOM      9  C   UNL     1      -5.234  -0.899   0.194  0.00  0.00    -0.015 A 
ATOM     10  C   UNL     1      -6.101  -1.453  -0.730  0.00  0.00    +0.006 A 
ATOM     11  C   UNL     1      -7.359  -0.908  -0.910  0.00  0.00    +0.000 A 
ATOM     12  C   UNL     1      -7.746   0.197  -0.174  0.00  0.00    +0.000 A 
ATOM     13  C   UNL     1      -6.877   0.753   0.746  0.00  0.00    +0.000 A 
ATOM     14  C   UNL     1      -5.622   0.205   0.930  0.00  0.00    +0.006 A 
ENDBRANCH   1   9
BRANCH   1  15
ATOM     15  C   UNL     1      -3.901  -3.009   0.168  0.00  0.00    +0.043 C 
BRANCH  15  17
ATOM     16  C   UNL     1      -2.672  -5.147   0.569  0.00  0.00    +0.007 C 
ATOM     17  C   UNL     1      -2.566  -3.621   0.596  0.00  0.00    -0.014 C 
ATOM     18  C   UNL     1      -1.466  -3.169  -0.367  0.00  0.00    +0.007 C 
ENDBRANCH  15  17
ENDBRANCH   1  15
BRANCH   4  19
ATOM     19  C   UNL     1      -0.778   0.479  -0.202  0.00  0.00    +0.205 C 
BRANCH  19  20
ATOM     20  N   UNL     1      -1.133   1.897  -0.348  0.00  0.00    -0.290 NA
ATOM     21  C   UNL     1      -1.835   2.136  -1.617  0.00  0.00    +0.067 C 
ATOM     22  C   UNL     1      -2.256   3.605  -1.695  0.00  0.00    -0.063 C 
ATOM     23  N   UNL     1      -1.066   4.460  -1.587  0.00  0.00    +0.387 N 
ATOM     24  C   UNL     1      -0.363   4.221  -0.318  0.00  0.00    -0.063 C 
ATOM     25  C   UNL     1       0.058   2.752  -0.240  0.00  0.00    +0.067 C 
ATOM     26  H   UNL     1      -0.383   4.197  -2.408  0.00  0.00    -0.081 HD
BRANCH  23  27
ATOM     27  C   UNL     1      -1.421   5.878  -1.733  0.00  0.00    +0.019 C 
BRANCH  27  28
ATOM     28  C   UNL     1      -1.913   6.130  -3.135  0.00  0.00    +0.197 C 
ATOM     29  O   UNL     1      -1.963   5.218  -3.933  0.00  0.00    -0.278 OA
ATOM     30  N   UNL     1      -2.297   7.369  -3.502  0.00  0.00    -0.315 N 
ATOM     31  H   UNL     1      -2.252   8.195  -2.777  0.00  0.00    +0.149 HD
BRANCH  30  32
ATOM     32  C   UNL     1      -2.776   7.614  -4.864  0.00  0.00    +0.067 C 
ATOM     33  C   UNL     1      -4.268   7.285  -4.948  0.00  0.00    +0.027 C 
ATOM     34  C   UNL     1      -2.557   9.085  -5.225  0.00  0.00    +0.027 C 
ENDBRANCH  30  32
ENDBRANCH  27  28
ENDBRANCH  23  27
ENDBRANCH  19  20
ENDBRANCH   4  19
TORSDOF 8
