REMARK  Name = ZINC60370447
REMARK  5 active torsions:
REMARK  status: ('A' for Active; 'I' for Inactive)
REMARK    1  A    between atoms: C_4  and  N_17
REMARK    2  A    between atoms: C_5  and  C_7
REMARK    3  A    between atoms: C_7  and  N_8
REMARK    4  A    between atoms: C_12  and  C_14
REMARK    5  A    between atoms: C_18  and  C_20
REMARK                            x       y       z     vdW  Elec       q    Type
REMARK                         _______ _______ _______ _____ _____    ______ ____
ROOT
ATOM      1  C   UNL     1      -0.009   1.392  -0.023  0.00  0.00    +0.000 A 
ATOM      2  C   UNL     1       1.179   2.098  -0.028  0.00  0.00    +0.002 A 
ATOM      3  C   UNL     1       2.385   1.424  -0.033  0.00  0.00    +0.023 A 
ATOM      4  C   UNL     1       2.402   0.035  -0.032  0.00  0.00    +0.035 A 
ATOM      5  C   UNL     1       1.206  -0.671  -0.026  0.00  0.00    -0.043 A 
ATOM      6  C   UNL     1       0.004   0.009  -0.022  0.00  0.00    +0.003 A 
ENDROOT
BRANCH   4   7
ATOM      7  N   UNL     1       3.621  -0.650  -0.036  0.00  0.00    -0.281 N 
ATOM      8  C   UNL     1       4.730  -0.057   0.449  0.00  0.00    +0.250 C 
ATOM      9  O   UNL     1       4.652   1.032   0.983  0.00  0.00    -0.270 OA
ATOM     10  H   UNL     1       3.669  -1.553  -0.389  0.00  0.00    +0.155 HD
BRANCH   8  11
ATOM     11  C   UNL     1       6.039  -0.731   0.333  0.00  0.00    +0.057 A 
ATOM     12  C   UNL     1       6.133  -1.980  -0.285  0.00  0.00    +0.014 A 
ATOM     13  C   UNL     1       7.358  -2.604  -0.392  0.00  0.00    +0.002 A 
ATOM     14  C   UNL     1       8.495  -1.996   0.113  0.00  0.00    +0.021 A 
ATOM     15  C   UNL     1       8.411  -0.759   0.727  0.00  0.00    +0.060 A 
ATOM     16  C   UNL     1       7.190  -0.119   0.835  0.00  0.00    +0.071 A 
ATOM     17 CL   UNL     1       7.087   1.436   1.599  0.00  0.00    -0.081 Cl
ATOM     18 CL   UNL     1       9.843  -0.006   1.356  0.00  0.00    -0.082 Cl
ENDBRANCH   8  11
ENDBRANCH   4   7
BRANCH   5  19
ATOM     19  C   UNL     1       1.221  -2.178  -0.025  0.00  0.00    -0.040 C 
BRANCH  19  20
ATOM     20  N   UNL     1       1.472  -2.665   1.338  0.00  0.00    +0.390 N 
ATOM     21  C   UNL     1       0.307  -2.367   2.211  0.00  0.00    -0.077 C 
ATOM     22  C   UNL     1       0.461  -3.385   3.368  0.00  0.00    -0.020 C 
ATOM     23  C   UNL     1       0.983  -4.650   2.647  0.00  0.00    -0.008 C 
ATOM     24  C   UNL     1       1.608  -4.137   1.337  0.00  0.00    +0.019 C 
ATOM     25  H   UNL     1       2.306  -2.238   1.712  0.00  0.00    -0.080 HD
BRANCH  24  26
ATOM     26  C   UNL     1       3.065  -4.518   1.279  0.00  0.00    +0.197 C 
ATOM     27  O   UNL     1       3.916  -3.655   1.243  0.00  0.00    -0.278 OA
ATOM     28  N   UNL     1       3.422  -5.817   1.269  0.00  0.00    -0.331 N 
ATOM     29  H   UNL     1       2.741  -6.508   1.298  0.00  0.00    +0.145 HD
ATOM     30  H   UNL     1       4.360  -6.062   1.232  0.00  0.00    +0.145 HD
ENDBRANCH  24  26
ENDBRANCH  19  20
ENDBRANCH   5  19
TORSDOF 5
