REMARK  Name = ZINC39965698
REMARK  9 active torsions:
REMARK  status: ('A' for Active; 'I' for Inactive)
REMARK    1  A    between atoms: C_1  and  C_2
REMARK    2  A    between atoms: C_9  and  N_14
REMARK    3  A    between atoms: C_10  and  C_11
REMARK    4  A    between atoms: C_15  and  C_17
REMARK    5  A    between atoms: C_17  and  S_18
REMARK    6  A    between atoms: S_18  and  C_19
REMARK    7  A    between atoms: C_22  and  C_27
REMARK    8  A    between atoms: N_23  and  C_24
REMARK    9  A    between atoms: C_24  and  C_25
REMARK                            x       y       z     vdW  Elec       q    Type
REMARK                         _______ _______ _______ _____ _____    ______ ____
ROOT
ATOM      1  N   UNL     1       0.035  -6.013   3.114  0.00  0.00    -0.279 N 
ATOM      2  C   UNL     1       1.247  -6.297   3.630  0.00  0.00    +0.228 C 
ATOM      3  O   UNL     1       2.121  -5.457   3.621  0.00  0.00    -0.275 OA
ATOM      4  H   UNL     1      -0.665  -6.685   3.121  0.00  0.00    +0.155 HD
ENDROOT
BRANCH   1  12
ATOM      5  C   UNL     1      -0.876   1.112   0.090  0.00  0.00    +0.008 C 
ATOM      6  C   UNL     1      -0.991  -0.401   0.288  0.00  0.00    -0.009 C 
ATOM      7  C   UNL     1      -2.363  -0.738   0.879  0.00  0.00    +0.008 C 
ATOM      8  C   UNL     1      -2.584  -2.252   0.852  0.00  0.00    +0.037 C 
ATOM      9  C   UNL     1      -1.389  -2.931   1.506  0.00  0.00    -0.023 A 
ATOM     10  C   UNL     1      -0.215  -2.282   1.668  0.00  0.00    -0.004 A 
ATOM     11  S   UNL     1       0.842  -3.459   2.458  0.00  0.00    -0.077 S 
ATOM     12  C   UNL     1      -0.213  -4.761   2.573  0.00  0.00    +0.084 A 
ATOM     13  C   UNL     1      -1.387  -4.295   2.004  0.00  0.00    +0.068 A 
ATOM     14  C   UNL     1       0.101  -0.877   1.257  0.00  0.00    +0.046 C 
BRANCH  13  15
ATOM     15  C   UNL     1      -2.579  -5.144   1.908  0.00  0.00    +0.244 C 
ATOM     16  O   UNL     1      -2.753  -5.841   0.925  0.00  0.00    -0.270 OA
ATOM     17  N   UNL     1      -3.482  -5.154   2.909  0.00  0.00    -0.325 N 
ATOM     18  H   UNL     1      -3.344  -4.598   3.692  0.00  0.00    +0.145 HD
ATOM     19  H   UNL     1      -4.270  -5.715   2.846  0.00  0.00    +0.145 HD
ENDBRANCH  13  15
ENDBRANCH   1  12
BRANCH   2  20
ATOM     20  C   UNL     1       1.516  -7.659   4.217  0.00  0.00    +0.173 C 
BRANCH  20  21
ATOM     21  S   UNL     1       3.224  -7.729   4.824  0.00  0.00    -0.077 S 
BRANCH  21  22
ATOM     22  C   UNL     1       3.379  -9.361   5.472  0.00  0.00    +0.193 A 
ATOM     23  N   UNL     1       2.446 -10.286   5.485  0.00  0.00    -0.122 NA
ATOM     24  N   UNL     1       2.897 -11.358   6.031  0.00  0.00    -0.128 NA
ATOM     25  C   UNL     1       4.144 -11.184   6.400  0.00  0.00    +0.165 A 
ATOM     26  N   UNL     1       4.494  -9.901   6.048  0.00  0.00    -0.298 N 
BRANCH  25  27
ATOM     27  C   UNL     1       5.012 -12.180   7.063  0.00  0.00    +0.023 A 
ATOM     28  C   UNL     1       5.972 -11.767   7.989  0.00  0.00    +0.015 A 
ATOM     29  C   UNL     1       6.780 -12.698   8.607  0.00  0.00    +0.050 A 
ATOM     30  C   UNL     1       6.643 -14.046   8.312  0.00  0.00    +0.166 A 
ATOM     31  C   UNL     1       5.686 -14.466   7.389  0.00  0.00    +0.167 A 
ATOM     32  C   UNL     1       4.870 -13.537   6.770  0.00  0.00    +0.061 A 
ATOM     33  O   UNL     1       5.754 -15.825   7.279  0.00  0.00    -0.453 OA
ATOM     34  C   UNL     1       7.030 -16.193   7.834  0.00  0.00    +0.466 C 
ATOM     35  O   UNL     1       7.308 -15.144   8.779  0.00  0.00    -0.453 OA
ENDBRANCH  25  27
BRANCH  26  36
ATOM     36  C   UNL     1       5.790  -9.249   6.251  0.00  0.00    +0.152 C 
BRANCH  36  37
ATOM     37  C   UNL     1       5.748  -8.432   7.516  0.00  0.00    -0.013 C 
ATOM     38  C   UNL     1       6.664  -8.604   8.437  0.00  0.00    +0.005 C 
ENDBRANCH  36  37
ENDBRANCH  26  36
ENDBRANCH  21  22
ENDBRANCH  20  21
ENDBRANCH   2  20
TORSDOF 8
