REMARK  Name = ZINC08768220
REMARK  8 active torsions:
REMARK  status: ('A' for Active; 'I' for Inactive)
REMARK    1  A    between atoms: C_1  and  C_2
REMARK    2  A    between atoms: C_2  and  C_3
REMARK    3  A    between atoms: C_2  and  C_4
REMARK    4  A    between atoms: C_4  and  C_5
REMARK    5  A    between atoms: C_5  and  C_7
REMARK    6  A    between atoms: C_5  and  N_15
REMARK    7  A    between atoms: N_9  and  C_10
REMARK    8  A    between atoms: C_16  and  C_18
REMARK                            x       y       z     vdW  Elec       q    Type
REMARK                         _______ _______ _______ _____ _____    ______ ____
ROOT
ATOM      1  N   UNL     1      -1.738   3.920   0.102  0.00  0.00    -0.305 N 
ATOM      2  C   UNL     1      -1.227   4.051  -1.138  0.00  0.00    +0.200 C 
ATOM      3  O   UNL     1      -0.046   3.857  -1.331  0.00  0.00    -0.278 OA
ATOM      4  H   UNL     1      -2.683   4.076   0.257  0.00  0.00    +0.149 HD
ENDROOT
BRANCH   2   5
ATOM      5  C   UNL     1      -2.124   4.439  -2.285  0.00  0.00    +0.021 C 
ATOM      6  C   UNL     1      -2.358   5.950  -2.266  0.00  0.00    +0.028 C 
ATOM      7  C   UNL     1      -3.046   6.381  -3.535  0.00  0.00    -0.047 A 
ATOM      8  C   UNL     1      -3.659   7.625  -3.567  0.00  0.00    +0.004 A 
ATOM      9  C   UNL     1      -4.295   8.060  -4.712  0.00  0.00    +0.000 A 
ATOM     10  C   UNL     1      -4.323   7.252  -5.833  0.00  0.00    +0.000 A 
ATOM     11  C   UNL     1      -3.716   6.013  -5.802  0.00  0.00    +0.002 A 
ATOM     12  C   UNL     1      -3.076   5.573  -4.652  0.00  0.00    -0.061 A 
ATOM     13  C   UNL     1      -2.435   4.210  -4.664  0.00  0.00    -0.045 C 
ATOM     14  N   UNL     1      -1.475   4.081  -3.560  0.00  0.00    +0.389 N 
ATOM     15  H   UNL     1      -1.141   3.111  -3.511  0.00  0.00    -0.084 HD
ATOM     16  H   UNL     1      -0.679   4.709  -3.725  0.00  0.00    -0.084 HD
ENDBRANCH   2   5
BRANCH   1  17
ATOM     17  C   UNL     1      -0.866   3.543   1.217  0.00  0.00    +0.159 C 
BRANCH  17  18
ATOM     18  C   UNL     1      -1.460   4.040   2.510  0.00  0.00    +0.234 C 
ATOM     19  O   UNL     1      -2.508   4.650   2.501  0.00  0.00    -0.274 OA
ATOM     20  N   UNL     1      -0.826   3.807   3.676  0.00  0.00    -0.311 N 
ATOM     21  H   UNL     1       0.013   3.320   3.684  0.00  0.00    +0.149 HD
BRANCH  20  22
ATOM     22  C   UNL     1      -1.403   4.291   4.933  0.00  0.00    +0.073 C 
ATOM     23  C   UNL     1      -0.943   5.738   5.204  0.00  0.00    +0.022 C 
ATOM     24  C   UNL     1      -0.741   5.791   6.739  0.00  0.00    +0.002 C 
ATOM     25  C   UNL     1      -0.141   4.399   7.054  0.00  0.00    +0.002 C 
ATOM     26  C   UNL     1      -0.893   3.439   6.109  0.00  0.00    +0.022 C 
ENDBRANCH  20  22
ENDBRANCH  17  18
BRANCH  17  27
ATOM     27  C   UNL     1      -0.735   2.019   1.269  0.00  0.00    +0.034 C 
BRANCH  27  29
ATOM     28  C   UNL     1       0.002  -0.004   0.002  0.00  0.00    +0.007 C 
ATOM     29  C   UNL     1      -0.019   1.526   0.010  0.00  0.00    -0.015 C 
ATOM     30  C   UNL     1       1.417   2.055  -0.000  0.00  0.00    +0.007 C 
ENDBRANCH  27  29
ENDBRANCH  17  27
ENDBRANCH   1  17
TORSDOF 6
