REMARK  Name = ZINC43526190
REMARK  9 active torsions:
REMARK  status: ('A' for Active; 'I' for Inactive)
REMARK    1  A    between atoms: C_1  and  C_2
REMARK    2  A    between atoms: C_2  and  C_3
REMARK    3  A    between atoms: C_12  and  C_14
REMARK    4  A    between atoms: C_14  and  N_15
REMARK    5  A    between atoms: N_15  and  C_16
REMARK    6  A    between atoms: C_16  and  N_18
REMARK    7  A    between atoms: N_18  and  C_19
REMARK    8  A    between atoms: C_21  and  C_26
REMARK    9  A    between atoms: C_23  and  C_25
REMARK                            x       y       z     vdW  Elec       q    Type
REMARK                         _______ _______ _______ _____ _____    ______ ____
ROOT
ATOM      1  N   UNL     1       5.247  -2.732  -2.722  0.00  0.00    -0.328 N 
ATOM      2  H   UNL     1       5.355  -1.844  -2.345  0.00  0.00    +0.148 HD
ENDROOT
BRANCH   1   3
ATOM      3  C   UNL     1       6.270  -3.609  -2.683  0.00  0.00    +0.134 C 
ATOM      4  S   UNL     1       6.080  -5.175  -3.348  0.00  0.00    -0.019 S 
BRANCH   3   5
ATOM      5  N   UNL     1       7.442  -3.252  -2.122  0.00  0.00    -0.297 N 
ATOM      6  H   UNL     1       7.571  -2.346  -1.801  0.00  0.00    +0.154 HD
BRANCH   5   7
ATOM      7  C   UNL     1       8.474  -4.190  -2.002  0.00  0.00    +0.033 A 
ATOM      8  C   UNL     1       8.799  -5.008  -3.076  0.00  0.00    +0.026 A 
ATOM      9  C   UNL     1       9.818  -5.932  -2.954  0.00  0.00    -0.048 A 
ATOM     10  C   UNL     1      10.514  -6.043  -1.765  0.00  0.00    +0.006 A 
ATOM     11  C   UNL     1      10.193  -5.230  -0.693  0.00  0.00    -0.048 A 
ATOM     12  C   UNL     1       9.178  -4.300  -0.810  0.00  0.00    +0.026 A 
ATOM     13  C   UNL     1      10.954  -5.355   0.601  0.00  0.00    +0.044 C 
ATOM     14  C   UNL     1      10.172  -6.819  -4.120  0.00  0.00    +0.044 C 
ENDBRANCH   5   7
ENDBRANCH   3   5
ENDBRANCH   1   3
BRANCH   1  15
ATOM     15  C   UNL     1       3.973  -3.119  -3.332  0.00  0.00    +0.088 C 
BRANCH  15  23
ATOM     16  C   UNL     1       0.560  -0.767  -2.228  0.00  0.00    -0.025 C 
ATOM     17  C   UNL     1       1.958  -0.378  -1.740  0.00  0.00    -0.075 C 
ATOM     18  N   UNL     1       2.864  -1.523  -1.850  0.00  0.00    +0.383 N 
ATOM     19  C   UNL     1       2.400  -2.631  -1.011  0.00  0.00    -0.078 C 
ATOM     20  C   UNL     1       1.017  -3.095  -1.475  0.00  0.00    -0.015 C 
ATOM     21  C   UNL     1       0.579  -2.236  -2.672  0.00  0.00    -0.013 C 
ATOM     22  C   UNL     1       1.624  -2.391  -3.785  0.00  0.00    -0.010 C 
ATOM     23  C   UNL     1       2.990  -1.950  -3.245  0.00  0.00    -0.051 C 
ATOM     24  H   UNL     1       3.775  -1.242  -1.519  0.00  0.00    -0.081 HD
BRANCH  16  26
ATOM     25  C   UNL     1      -0.552   0.895  -0.730  0.00  0.00    +0.004 C 
ATOM     26  C   UNL     1      -0.448  -0.588  -1.091  0.00  0.00    -0.002 C 
ENDBRANCH  16  26
ENDBRANCH  15  23
ENDBRANCH   1  15
TORSDOF 6
