REMARK  Name = ZINC05773522
REMARK  6 active torsions:
REMARK  status: ('A' for Active; 'I' for Inactive)
REMARK    1  A    between atoms: C_4  and  C_7
REMARK    2  A    between atoms: C_7  and  N_48
REMARK    3  A    between atoms: C_8  and  N_48
REMARK    4  A    between atoms: C_15  and  N_17
REMARK    5  A    between atoms: N_17  and  C_18
REMARK    6  A    between atoms: C_18  and  C_19
REMARK                            x       y       z     vdW  Elec       q    Type
REMARK                         _______ _______ _______ _____ _____    ______ ____
ROOT
ATOM      1  C   UNL     1       1.379   3.480   0.008  0.00  0.00    -0.028 C 
ATOM      2  C   UNL     1       1.280   3.988   1.473  0.00  0.00    +0.152 C 
ATOM      3  S   UNL     1       1.950   5.694   1.254  0.00  0.00    -0.031 S 
ATOM      4  O   UNL     1       2.660   6.071   2.426  0.00  0.00    -0.174 OA
ATOM      5  O   UNL     1       0.925   6.540   0.751  0.00  0.00    -0.174 OA
ATOM      6  C   UNL     1       3.152   5.333  -0.093  0.00  0.00    +0.186 C 
ATOM      7  C   UNL     1       2.675   3.972  -0.636  0.00  0.00    +0.086 C 
ENDROOT
BRANCH   7   8
ATOM      8  N   UNL     1       2.465   4.094  -2.081  0.00  0.00    -0.278 N 
ATOM      9  C   UNL     1       1.516   4.925  -2.556  0.00  0.00    +0.300 C 
ATOM     10  O   UNL     1       0.834   5.573  -1.786  0.00  0.00    -0.253 OA
ATOM     11  N   UNL     1       1.322   5.037  -3.885  0.00  0.00    -0.313 N 
ATOM     12  H   UNL     1       1.866   4.520  -4.500  0.00  0.00    +0.146 HD
ATOM     13  H   UNL     1       0.639   5.635  -4.227  0.00  0.00    +0.146 HD
BRANCH   8  14
ATOM     14  C   UNL     1       3.286   3.313  -3.009  0.00  0.00    +0.144 C 
BRANCH  14  15
ATOM     15  C   UNL     1       2.618   1.989  -3.278  0.00  0.00    -0.030 A 
ATOM     16  C   UNL     1       2.902   0.896  -2.480  0.00  0.00    +0.005 A 
ATOM     17  C   UNL     1       2.286  -0.317  -2.724  0.00  0.00    +0.000 A 
ATOM     18  C   UNL     1       1.393  -0.440  -3.772  0.00  0.00    +0.000 A 
ATOM     19  C   UNL     1       1.113   0.651  -4.574  0.00  0.00    +0.000 A 
ATOM     20  C   UNL     1       1.726   1.865  -4.327  0.00  0.00    +0.005 A 
ENDBRANCH  14  15
ENDBRANCH   8  14
ENDBRANCH   7   8
BRANCH   1  21
ATOM     21  N   UNL     1       1.369   2.005  -0.000  0.00  0.00    +0.386 N 
ATOM     22  H   UNL     1       1.845   1.667  -0.845  0.00  0.00    -0.085 HD
ATOM     23  H   UNL     1       1.861   1.658   0.832  0.00  0.00    -0.085 HD
BRANCH  21  24
ATOM     24  C   UNL     1      -0.018   1.503   0.010  0.00  0.00    -0.046 C 
BRANCH  24  28
ATOM     25  C   UNL     1       0.039  -2.768  -0.013  0.00  0.00    +0.000 A 
ATOM     26  C   UNL     1       0.041  -2.084   1.188  0.00  0.00    +0.000 A 
ATOM     27  C   UNL     1       0.023  -0.702   1.195  0.00  0.00    +0.002 A 
ATOM     28  C   UNL     1       0.002  -0.004   0.002  0.00  0.00    -0.064 A 
ATOM     29  C   UNL     1      -0.006  -0.689  -1.199  0.00  0.00    +0.002 A 
ATOM     30  C   UNL     1       0.018  -2.071  -1.206  0.00  0.00    +0.000 A 
ENDBRANCH  24  28
ENDBRANCH  21  24
ENDBRANCH   1  21
TORSDOF 6
