REMARK  Name = ZINC62788262
REMARK  11 active torsions:
REMARK  status: ('A' for Active; 'I' for Inactive)
REMARK    1  A    between atoms: C_1  and  C_2
REMARK    2  A    between atoms: C_2  and  C_3
REMARK    3  A    between atoms: C_2  and  C_4
REMARK    4  A    between atoms: C_4  and  C_6
REMARK    5  A    between atoms: C_4  and  N_10
REMARK    6  A    between atoms: C_6  and  N_7
REMARK    7  A    between atoms: N_7  and  C_8
REMARK    8  A    between atoms: N_7  and  C_9
REMARK    9  A    between atoms: N_10  and  C_11
REMARK   10  A    between atoms: C_16  and  C_17
REMARK   11  A    between atoms: C_17  and  N_19
REMARK                            x       y       z     vdW  Elec       q    Type
REMARK                         _______ _______ _______ _____ _____    ______ ____
ROOT
ATOM      1  C   UNL     1       1.382  -2.919  -0.790  0.00  0.00    +0.038 A 
ATOM      2  C   UNL     1       2.219  -2.440   0.208  0.00  0.00    +0.043 A 
ATOM      3  C   UNL     1       3.043  -3.309   0.896  0.00  0.00    +0.043 A 
ATOM      4  C   UNL     1       3.041  -4.663   0.598  0.00  0.00    +0.021 A 
ATOM      5  C   UNL     1       2.217  -5.157  -0.390  0.00  0.00    +0.013 A 
ATOM      6  C   UNL     1       1.373  -4.291  -1.091  0.00  0.00    +0.024 A 
ATOM      7 CL   UNL     1       4.088  -2.702   2.143  0.00  0.00    -0.083 Cl
ENDROOT
BRANCH   1   8
ATOM      8  N   UNL     1       0.551  -2.047  -1.484  0.00  0.00    -0.342 N 
ATOM      9  H   UNL     1      -0.082  -2.393  -2.132  0.00  0.00    +0.146 HD
BRANCH   8  10
ATOM     10  C   UNL     1       0.633  -0.606  -1.237  0.00  0.00    +0.056 C 
BRANCH  10  12
ATOM     11  C   UNL     1      -0.127   1.257   0.245  0.00  0.00    +0.009 C 
ATOM     12  C   UNL     1      -0.213  -0.249  -0.013  0.00  0.00    +0.001 C 
ATOM     13  C   UNL     1      -1.669  -0.641  -0.269  0.00  0.00    +0.009 C 
ENDBRANCH  10  12
BRANCH  10  14
ATOM     14  C   UNL     1       0.108   0.152  -2.459  0.00  0.00    -0.057 C 
BRANCH  14  15
ATOM     15  N   UNL     1       0.849  -0.272  -3.654  0.00  0.00    +0.377 N 
ATOM     16  C   UNL     1       0.261   0.357  -4.844  0.00  0.00    -0.097 C 
ATOM     17  C   UNL     1       2.255   0.136  -3.529  0.00  0.00    -0.097 C 
ATOM     18  H   UNL     1       0.797  -1.276  -3.743  0.00  0.00    -0.083 HD
ENDBRANCH  14  15
ENDBRANCH  10  14
ENDBRANCH   8  10
ENDBRANCH   1   8
BRANCH   6  19
ATOM     19  C   UNL     1       0.486  -4.813  -2.143  0.00  0.00    +0.079 C 
ATOM     20  S   UNL     1       1.076  -5.019  -3.737  0.00  0.00    -0.035 S 
BRANCH  19  21
ATOM     21  N   UNL     1      -0.792  -5.129  -1.852  0.00  0.00    -0.352 N 
ATOM     22  H   UNL     1      -1.126  -5.012  -0.949  0.00  0.00    +0.143 HD
ATOM     23  H   UNL     1      -1.376  -5.473  -2.545  0.00  0.00    +0.143 HD
ENDBRANCH  19  21
ENDBRANCH   6  19
TORSDOF 7
