REMARK  Name = ZINC24243873
REMARK  10 active torsions:
REMARK  status: ('A' for Active; 'I' for Inactive)
REMARK    1  A    between atoms: C_1  and  C_2
REMARK    2  A    between atoms: C_2  and  C_4
REMARK    3  A    between atoms: C_2  and  N_10
REMARK    4  A    between atoms: N_6  and  C_7
REMARK    5  A    between atoms: N_13  and  C_16
REMARK    6  A    between atoms: C_16  and  C_17
REMARK    7  A    between atoms: C_17  and  O_18
REMARK    8  A    between atoms: O_18  and  C_19
REMARK    9  A    between atoms: C_22  and  S_25
REMARK   10  A    between atoms: S_25  and  N_28
REMARK                            x       y       z     vdW  Elec       q    Type
REMARK                         _______ _______ _______ _____ _____    ______ ____
ROOT
ATOM      1  N   UNL     1      -0.414   6.945   3.048  0.00  0.00    +0.389 N 
ATOM      2  C   UNL     1       0.895   7.605   2.932  0.00  0.00    -0.062 C 
ATOM      3  C   UNL     1       1.468   7.353   1.535  0.00  0.00    +0.066 C 
ATOM      4  N   UNL     1       1.589   5.905   1.313  0.00  0.00    -0.303 NA
ATOM      5  C   UNL     1       0.281   5.246   1.429  0.00  0.00    +0.066 C 
ATOM      6  C   UNL     1      -0.292   5.498   2.825  0.00  0.00    -0.062 C 
ATOM      7  H   UNL     1      -1.071   7.355   2.267  0.00  0.00    -0.081 HD
ENDROOT
BRANCH   1   9
ATOM      8  C   UNL     1      -0.185   6.605   5.462  0.00  0.00    -0.004 C 
ATOM      9  C   UNL     1      -1.032   7.228   4.350  0.00  0.00    +0.016 C 
BRANCH   9  10
ATOM     10  C   UNL     1      -2.419   6.640   4.386  0.00  0.00    +0.199 C 
ATOM     11  O   UNL     1      -2.850   6.044   3.421  0.00  0.00    -0.278 OA
ATOM     12  N   UNL     1      -3.180   6.776   5.489  0.00  0.00    -0.314 N 
ATOM     13  H   UNL     1      -2.789   7.316   6.364  0.00  0.00    +0.149 HD
BRANCH  12  14
ATOM     14  C   UNL     1      -4.529   6.204   5.524  0.00  0.00    +0.073 C 
ATOM     15  C   UNL     1      -5.646   7.066   6.115  0.00  0.00    +0.024 C 
ATOM     16  C   UNL     1      -5.115   5.860   6.895  0.00  0.00    +0.024 C 
ENDBRANCH  12  14
ENDBRANCH   9  10
ENDBRANCH   1   9
BRANCH   4  17
ATOM     17  C   UNL     1       2.208   5.623   0.010  0.00  0.00    +0.125 C 
BRANCH  17  18
ATOM     18  C   UNL     1       3.712   5.887   0.092  0.00  0.00    +0.244 C 
BRANCH  18  19
ATOM     19  O   UNL     1       4.310   4.960   1.001  0.00  0.00    -0.491 OA
BRANCH  19  20
ATOM     20  C   UNL     1       5.652   5.060   1.190  0.00  0.00    +0.121 A 
ATOM     21  C   UNL     1       6.297   4.192   2.059  0.00  0.00    +0.047 A 
ATOM     22  C   UNL     1       7.662   4.295   2.249  0.00  0.00    +0.032 A 
ATOM     23  C   UNL     1       8.384   5.261   1.574  0.00  0.00    +0.105 A 
ATOM     24  C   UNL     1       7.743   6.127   0.707  0.00  0.00    +0.032 A 
ATOM     25  C   UNL     1       6.379   6.029   0.514  0.00  0.00    +0.047 A 
BRANCH  23  26
ATOM     26  S   UNL     1      10.124   5.390   1.819  0.00  0.00    +0.056 S 
ATOM     27  O   UNL     1      10.484   6.724   1.488  0.00  0.00    -0.153 OA
ATOM     28  O   UNL     1      10.399   4.820   3.091  0.00  0.00    -0.153 OA
BRANCH  26  29
ATOM     29  N   UNL     1      10.850   4.412   0.696  0.00  0.00    -0.204 NA
ATOM     30  H   UNL     1      11.943   4.465   0.816  0.00  0.00    +0.144 HD
ATOM     31  H   UNL     1      10.576   4.748  -0.315  0.00  0.00    +0.144 HD
ENDBRANCH  26  29
ENDBRANCH  23  26
ENDBRANCH  19  20
ENDBRANCH  18  19
ENDBRANCH  17  18
ENDBRANCH   4  17
TORSDOF 9
