REMARK  Name = ZINC63375919
REMARK  7 active torsions:
REMARK  status: ('A' for Active; 'I' for Inactive)
REMARK    1  A    between atoms: C_1  and  O_2
REMARK    2  A    between atoms: O_2  and  C_3
REMARK    3  A    between atoms: C_10  and  C_18
REMARK    4  A    between atoms: C_20  and  O_36
REMARK    5  A    between atoms: N_22  and  C_28
REMARK    6  A    between atoms: C_28  and  C_29
REMARK    7  A    between atoms: C_29  and  C_30
REMARK                            x       y       z     vdW  Elec       q    Type
REMARK                         _______ _______ _______ _____ _____    ______ ____
ROOT
ATOM      1  C   UNL     1      -6.390  -5.153  -0.846  0.00  0.00    +0.141 C 
ATOM      2  C   UNL     1      -6.903  -6.020  -1.999  0.00  0.00    +0.217 C 
ATOM      3  N   UNL     1      -6.961  -5.220  -3.224  0.00  0.00    -0.286 N 
ATOM      4  C   UNL     1      -7.303  -3.922  -3.185  0.00  0.00    +0.141 C 
ATOM      5  S   UNL     1      -7.501  -3.066  -4.654  0.00  0.00    -0.018 S 
ATOM      6  N   UNL     1      -7.495  -3.279  -2.021  0.00  0.00    -0.267 N 
ATOM      7  C   UNL     1      -7.122  -3.835  -0.852  0.00  0.00    +0.227 C 
ATOM      8  O   UNL     1      -7.376  -3.277   0.195  0.00  0.00    -0.275 OA
ATOM      9  H   UNL     1      -7.907  -2.401  -2.022  0.00  0.00    +0.157 HD
ENDROOT
BRANCH   1  16
ATOM     10  C   UNL     1      -1.200  -0.637   0.010  0.00  0.00    +0.121 A 
ATOM     11  C   UNL     1      -2.375   0.136   0.020  0.00  0.00    +0.047 A 
ATOM     12  C   UNL     1      -3.606  -0.417   0.033  0.00  0.00    +0.029 A 
ATOM     13  C   UNL     1      -3.753  -1.875   0.037  0.00  0.00    +0.043 A 
ATOM     14  N   UNL     1      -4.814  -2.649   0.026  0.00  0.00    -0.376 N 
ATOM     15  C   UNL     1      -4.374  -4.036   0.129  0.00  0.00    +0.124 C 
ATOM     16  C   UNL     1      -4.890  -4.905  -1.021  0.00  0.00    +0.096 C 
ATOM     17  N   UNL     1      -4.169  -6.187  -0.992  0.00  0.00    -0.310 NA
ATOM     18  C   UNL     1      -2.743  -6.055  -1.306  0.00  0.00    +0.085 C 
ATOM     19  C   UNL     1      -2.035  -5.237  -0.210  0.00  0.00    +0.048 C 
ATOM     20  C   UNL     1      -2.859  -3.987   0.008  0.00  0.00    -0.036 C 
ATOM     21  C   UNL     1      -2.514  -2.694   0.017  0.00  0.00    +0.003 A 
ATOM     22  C   UNL     1      -1.226  -1.991   0.003  0.00  0.00    +0.055 A 
ATOM     23  H   UNL     1      -4.303  -6.658  -0.110  0.00  0.00    +0.122 HD
ATOM     24  H   UNL     1      -5.734  -2.349  -0.039  0.00  0.00    +0.160 HD
BRANCH  10  26
ATOM     25  C   UNL     1      -0.017   1.425   0.010  0.00  0.00    +0.277 C 
ATOM     26  O   UNL     1       0.002  -0.004   0.002  0.00  0.00    -0.495 OA
ENDBRANCH  10  26
ENDBRANCH   1  16
BRANCH   2  27
ATOM     27  O   UNL     1      -6.018  -7.125  -2.194  0.00  0.00    -0.373 OA
ATOM     28  H   UNL     1      -6.282  -7.718  -2.910  0.00  0.00    +0.212 HD
ENDBRANCH   2  27
BRANCH   3  29
ATOM     29  C   UNL     1      -6.641  -5.844  -4.510  0.00  0.00    +0.114 C 
BRANCH  29  30
ATOM     30  C   UNL     1      -7.915  -6.423  -5.127  0.00  0.00    +0.054 C 
BRANCH  30  31
ATOM     31  C   UNL     1      -7.586  -7.065  -6.450  0.00  0.00    -0.046 A 
ATOM     32  C   UNL     1      -7.633  -6.317  -7.612  0.00  0.00    +0.004 A 
ATOM     33  C   UNL     1      -7.330  -6.906  -8.825  0.00  0.00    +0.000 A 
ATOM     34  C   UNL     1      -6.981  -8.243  -8.877  0.00  0.00    +0.000 A 
ATOM     35  C   UNL     1      -6.934  -8.990  -7.715  0.00  0.00    +0.000 A 
ATOM     36  C   UNL     1      -7.232  -8.400  -6.501  0.00  0.00    +0.004 A 
ENDBRANCH  30  31
ENDBRANCH  29  30
ENDBRANCH   3  29
TORSDOF 6
