REMARK  Name = ZINC39466964
REMARK  8 active torsions:
REMARK  status: ('A' for Active; 'I' for Inactive)
REMARK    1  A    between atoms: C_1  and  C_2
REMARK    2  A    between atoms: C_2  and  C_3
REMARK    3  A    between atoms: C_2  and  S_4
REMARK    4  A    between atoms: S_4  and  C_7
REMARK    5  A    between atoms: P_16  and  C_32
REMARK    6  A    between atoms: C_24  and  C_25
REMARK    7  A    between atoms: C_25  and  C_26
REMARK    8  A    between atoms: C_32  and  C_33
REMARK                            x       y       z     vdW  Elec       q    Type
REMARK                         _______ _______ _______ _____ _____    ______ ____
ROOT
ATOM      1  C   UNL     1      -1.546  -2.383  -0.005  0.00  0.00    +0.088 C 
ATOM      2  C   UNL     1      -2.050  -3.102   0.994  0.00  0.00    +0.004 C 
ATOM      3  C   UNL     1      -1.898  -4.605   0.982  0.00  0.00    +0.017 C 
ATOM      4  C   UNL     1      -0.504  -4.962   1.499  0.00  0.00    -0.003 C 
ATOM      5  C   UNL     1      -0.255  -6.470   1.381  0.00  0.00    -0.020 C 
ATOM      6  C   UNL     1       1.157  -6.737   1.917  0.00  0.00    +0.156 C 
ATOM      7  O   UNL     1       1.426  -8.150   1.878  0.00  0.00    -0.319 OA
ATOM      8  P   UNL     1       1.141  -8.935   0.482  0.00  0.00    +0.262 P 
ATOM      9  O   UNL     1       0.942 -10.380   0.736  0.00  0.00    -0.274 OA
ATOM     10  N   UNL     1      -0.241  -8.263  -0.118  0.00  0.00    -0.291 NA
ATOM     11  N   UNL     1      -0.384  -6.895  -0.015  0.00  0.00    +0.397 N 
ATOM     12  C   UNL     1      -1.734  -6.594  -0.519  0.00  0.00    -0.046 C 
ATOM     13  C   UNL     1      -2.043  -5.103  -0.459  0.00  0.00    +0.005 C 
ATOM     14  C   UNL     1      -1.089  -4.351  -1.347  0.00  0.00    -0.019 C 
ATOM     15  C   UNL     1      -0.840  -3.057  -1.108  0.00  0.00    -0.022 C 
ATOM     16  H   UNL     1      -0.927  -8.812  -0.530  0.00  0.00    +0.111 HD
ATOM     17  H   UNL     1       0.314  -6.433  -0.578  0.00  0.00    -0.055 HD
ENDROOT
BRANCH   1  18
ATOM     18  S   UNL     1      -1.726  -0.631  -0.011  0.00  0.00    -0.001 S 
ATOM     19  O   UNL     1      -2.511  -0.343   1.139  0.00  0.00    -0.169 OA
ATOM     20  O   UNL     1      -2.207  -0.321  -1.312  0.00  0.00    -0.169 OA
BRANCH  18  22
ATOM     21  C   UNL     1      -0.081   1.542   0.226  0.00  0.00    +0.032 C 
ATOM     22  C   UNL     1      -0.044   0.012   0.203  0.00  0.00    +0.130 C 
ATOM     23  C   UNL     1       0.535  -0.503   1.523  0.00  0.00    +0.032 C 
ENDBRANCH  18  22
ENDBRANCH   1  18
BRANCH  15  24
ATOM     24  C   UNL     1       0.128  -2.290  -1.971  0.00  0.00    +0.071 C 
BRANCH  24  25
ATOM     25  C   UNL     1       0.577  -3.159  -3.118  0.00  0.00    -0.043 A 
ATOM     26  C   UNL     1       1.746  -3.889  -3.016  0.00  0.00    +0.004 A 
ATOM     27  C   UNL     1       2.157  -4.686  -4.068  0.00  0.00    +0.000 A 
ATOM     28  C   UNL     1       1.399  -4.753  -5.222  0.00  0.00    +0.000 A 
ATOM     29  C   UNL     1       0.229  -4.023  -5.324  0.00  0.00    +0.000 A 
ATOM     30  C   UNL     1      -0.184  -3.230  -4.270  0.00  0.00    +0.004 A 
ENDBRANCH  24  25
ENDBRANCH  15  24
BRANCH   8  31
ATOM     31  C   UNL     1       2.525  -8.684  -0.678  0.00  0.00    +0.147 C 
BRANCH  31  32
ATOM     32  C   UNL     1       3.796  -9.215  -0.066  0.00  0.00    -0.037 A 
ATOM     33  C   UNL     1       4.589  -8.387   0.706  0.00  0.00    +0.004 A 
ATOM     34  C   UNL     1       5.755  -8.873   1.267  0.00  0.00    +0.000 A 
ATOM     35  C   UNL     1       6.127 -10.188   1.057  0.00  0.00    +0.000 A 
ATOM     36  C   UNL     1       5.333 -11.016   0.286  0.00  0.00    +0.000 A 
ATOM     37  C   UNL     1       4.166 -10.531  -0.272  0.00  0.00    +0.004 A 
ENDBRANCH  31  32
ENDBRANCH   8  31
TORSDOF 6
