REMARK  Name = ZINC47257570
REMARK  8 active torsions:
REMARK  status: ('A' for Active; 'I' for Inactive)
REMARK    1  A    between atoms: C_1  and  C_2
REMARK    2  A    between atoms: C_2  and  C_4
REMARK    3  A    between atoms: C_2  and  N_11
REMARK    4  A    between atoms: N_11  and  C_12
REMARK    5  A    between atoms: N_11  and  C_24
REMARK    6  A    between atoms: C_12  and  C_13
REMARK    7  A    between atoms: N_15  and  C_16
REMARK    8  A    between atoms: C_17  and  C_21
REMARK                            x       y       z     vdW  Elec       q    Type
REMARK                         _______ _______ _______ _____ _____    ______ ____
ROOT
ATOM      1  C   UNL     1      -0.336   0.204   2.370  0.00  0.00    +0.020 C 
ENDROOT
BRANCH   1   2
ATOM      2  C   UNL     1       0.323   0.093   3.721  0.00  0.00    +0.201 C 
ATOM      3  O   UNL     1       1.426  -0.402   3.819  0.00  0.00    -0.278 OA
ATOM      4  N   UNL     1      -0.313   0.545   4.820  0.00  0.00    -0.281 N 
ATOM      5  H   UNL     1      -1.195   0.941   4.742  0.00  0.00    +0.155 HD
BRANCH   4   6
ATOM      6  C   UNL     1       0.293   0.443   6.063  0.00  0.00    +0.084 A 
ATOM      7  C   UNL     1      -0.208   0.845   7.292  0.00  0.00    +0.065 A 
ATOM      8  C   UNL     1       0.639   0.620   8.441  0.00  0.00    +0.022 A 
ATOM      9  C   UNL     1       1.828   0.042   8.189  0.00  0.00    +0.048 A 
ATOM     10  S   UNL     1       1.799  -0.201   6.426  0.00  0.00    -0.081 S 
BRANCH   7  11
ATOM     11  C   UNL     1      -1.530   1.467   7.419  0.00  0.00    +0.244 C 
ATOM     12  O   UNL     1      -2.218   1.642   6.430  0.00  0.00    -0.270 OA
ATOM     13  N   UNL     1      -1.984   1.844   8.631  0.00  0.00    -0.325 N 
ATOM     14  H   UNL     1      -1.436   1.705   9.419  0.00  0.00    +0.145 HD
ATOM     15  H   UNL     1      -2.858   2.256   8.715  0.00  0.00    +0.145 HD
ENDBRANCH   7  11
ENDBRANCH   4   6
ENDBRANCH   1   2
BRANCH   1  16
ATOM     16  N   UNL     1       0.554  -0.354   1.344  0.00  0.00    +0.392 N 
ATOM     17  H   UNL     1       1.465   0.072   1.420  0.00  0.00    -0.080 HD
BRANCH  16  18
ATOM     18  C   UNL     1       0.675  -1.806   1.538  0.00  0.00    -0.067 C 
ATOM     19  C   UNL     1       2.057  -2.357   1.896  0.00  0.00    -0.017 C 
ATOM     20  C   UNL     1       1.478  -2.592   0.500  0.00  0.00    -0.017 C 
ENDBRANCH  16  18
BRANCH  16  22
ATOM     21  C   UNL     1      -1.514  -0.320   0.034  0.00  0.00    -0.008 C 
ATOM     22  C   UNL     1      -0.003  -0.083   0.012  0.00  0.00    -0.038 C 
BRANCH  22  23
ATOM     23  C   UNL     1       0.275   1.349  -0.367  0.00  0.00    -0.043 A 
ATOM     24  C   UNL     1       0.672   2.255   0.598  0.00  0.00    +0.003 A 
ATOM     25  C   UNL     1       0.927   3.568   0.251  0.00  0.00    +0.000 A 
ATOM     26  C   UNL     1       0.787   3.976  -1.063  0.00  0.00    +0.001 A 
ATOM     27  C   UNL     1       0.390   3.071  -2.029  0.00  0.00    +0.020 A 
ATOM     28  C   UNL     1       0.140   1.755  -1.683  0.00  0.00    +0.043 A 
ATOM     29 CL   UNL     1      -0.352   0.616  -2.897  0.00  0.00    -0.083 Cl
ENDBRANCH  22  23
ENDBRANCH  16  22
ENDBRANCH   1  16
TORSDOF 7
