REMARK  Name = ZINC65881321
REMARK  10 active torsions:
REMARK  status: ('A' for Active; 'I' for Inactive)
REMARK    1  A    between atoms: C_1  and  C_2
REMARK    2  A    between atoms: C_2  and  N_3
REMARK    3  A    between atoms: N_3  and  C_4
REMARK    4  A    between atoms: N_3  and  C_5
REMARK    5  A    between atoms: C_5  and  C_6
REMARK    6  A    between atoms: C_10  and  C_12
REMARK    7  A    between atoms: C_12  and  N_13
REMARK    8  A    between atoms: C_14  and  C_16
REMARK    9  A    between atoms: C_19  and  S_21
REMARK   10  A    between atoms: S_21  and  N_24
REMARK                            x       y       z     vdW  Elec       q    Type
REMARK                         _______ _______ _______ _____ _____    ______ ____
ROOT
ATOM      1  N   UNL     1       5.320  -2.309  -4.287  0.00  0.00    -0.305 N 
ATOM      2  C   UNL     1       6.660  -2.374  -4.417  0.00  0.00    +0.280 C 
ATOM      3  O   UNL     1       7.240  -3.426  -4.222  0.00  0.00    -0.267 OA
ATOM      4  H   UNL     1       4.858  -1.471  -4.443  0.00  0.00    +0.149 HD
ENDROOT
BRANCH   2   5
ATOM      5  C   UNL     1       7.419  -1.177  -4.792  0.00  0.00    +0.192 A 
ATOM      6  C   UNL     1       8.772  -1.105  -4.962  0.00  0.00    +0.057 A 
ATOM      7  C   UNL     1       9.065   0.221  -5.317  0.00  0.00    +0.072 A 
ATOM      8  C   UNL     1       7.892   0.892  -5.348  0.00  0.00    +0.258 A 
ATOM      9  O   UNL     1       6.903   0.045  -5.036  0.00  0.00    -0.432 OA
BRANCH   8  10
ATOM     10  S   UNL     1       7.697   2.599  -5.739  0.00  0.00    +0.089 S 
ATOM     11  O   UNL     1       6.482   3.018  -5.134  0.00  0.00    -0.150 OA
ATOM     12  O   UNL     1       8.943   3.224  -5.460  0.00  0.00    -0.150 OA
BRANCH  10  13
ATOM     13  N   UNL     1       7.471   2.703  -7.376  0.00  0.00    -0.201 NA
ATOM     14  H   UNL     1       7.467   1.898  -7.917  0.00  0.00    +0.144 HD
ATOM     15  H   UNL     1       7.343   3.569  -7.794  0.00  0.00    +0.144 HD
ENDBRANCH  10  13
ENDBRANCH   8  10
ENDBRANCH   2   5
BRANCH   1  16
ATOM     16  C   UNL     1       4.561  -3.505  -3.913  0.00  0.00    +0.140 C 
BRANCH  16  21
ATOM     17  C   UNL     1       1.202  -2.420  -2.575  0.00  0.00    -0.064 A 
ATOM     18  C   UNL     1       0.404  -2.547  -3.696  0.00  0.00    +0.002 A 
ATOM     19  C   UNL     1       0.952  -2.984  -4.888  0.00  0.00    +0.001 A 
ATOM     20  C   UNL     1       2.297  -3.294  -4.958  0.00  0.00    +0.005 A 
ATOM     21  C   UNL     1       3.095  -3.167  -3.836  0.00  0.00    -0.030 A 
ATOM     22  C   UNL     1       2.548  -2.725  -2.646  0.00  0.00    +0.007 A 
BRANCH  17  23
ATOM     23  C   UNL     1       0.605  -1.943  -1.276  0.00  0.00    -0.043 C 
BRANCH  23  24
ATOM     24  N   UNL     1       0.690  -0.478  -1.207  0.00  0.00    +0.380 N 
ATOM     25  C   UNL     1       2.100  -0.070  -1.159  0.00  0.00    -0.096 C 
ATOM     26  H   UNL     1       0.251  -0.077  -2.022  0.00  0.00    -0.082 HD
BRANCH  24  28
ATOM     27  C   UNL     1      -0.019   1.526   0.010  0.00  0.00    -0.017 C 
ATOM     28  C   UNL     1       0.002  -0.004   0.002  0.00  0.00    -0.082 C 
ENDBRANCH  24  28
ENDBRANCH  23  24
ENDBRANCH  17  23
ENDBRANCH  16  21
ENDBRANCH   1  16
TORSDOF 8
