REMARK  Name = ZINC40679681
REMARK  7 active torsions:
REMARK  status: ('A' for Active; 'I' for Inactive)
REMARK    1  A    between atoms: C_1  and  C_2
REMARK    2  A    between atoms: C_2  and  N_3
REMARK    3  A    between atoms: N_3  and  C_4
REMARK    4  A    between atoms: C_11  and  N_28
REMARK    5  A    between atoms: C_12  and  N_16
REMARK    6  A    between atoms: C_22  and  O_26
REMARK    7  A    between atoms: O_26  and  C_27
REMARK                            x       y       z     vdW  Elec       q    Type
REMARK                         _______ _______ _______ _____ _____    ______ ____
ROOT
ATOM      1  N   UNL     1       0.666  -0.466  -1.199  0.00  0.00    -0.285 N 
ATOM      2  C   UNL     1      -0.060  -0.727  -2.356  0.00  0.00    +0.129 A 
ATOM      3  C   UNL     1       0.567  -1.275  -3.478  0.00  0.00    +0.104 A 
ATOM      4  C   UNL     1      -0.208  -1.517  -4.613  0.00  0.00    +0.150 A 
ATOM      5  N   UNL     1      -1.504  -1.219  -4.584  0.00  0.00    -0.221 NA
ATOM      6  C   UNL     1      -2.057  -0.704  -3.504  0.00  0.00    +0.200 A 
ATOM      7  N   UNL     1      -1.363  -0.465  -2.410  0.00  0.00    -0.332 N 
ATOM      8  H   UNL     1      -1.808  -0.089  -1.634  0.00  0.00    +0.168 HD
ENDROOT
BRANCH   4   9
ATOM      9  N   UNL     1       0.367  -2.061  -5.758  0.00  0.00    -0.277 N 
ATOM     10  C   UNL     1      -0.411  -2.296  -6.876  0.00  0.00    +0.165 A 
ATOM     11  N   UNL     1      -1.692  -2.070  -7.051  0.00  0.00    -0.225 NA
ATOM     12  C   UNL     1      -2.328  -2.353  -8.210  0.00  0.00    +0.081 A 
ATOM     13  C   UNL     1      -3.693  -2.160  -8.525  0.00  0.00    +0.032 A 
ATOM     14  C   UNL     1      -4.184  -2.503  -9.757  0.00  0.00    +0.048 A 
ATOM     15  C   UNL     1      -3.363  -3.050 -10.739  0.00  0.00    +0.121 A 
ATOM     16  C   UNL     1      -2.019  -3.252 -10.463  0.00  0.00    +0.063 A 
ATOM     17  C   UNL     1      -1.523  -2.910  -9.229  0.00  0.00    +0.044 A 
ATOM     18  S   UNL     1       0.075  -2.978  -8.455  0.00  0.00    -0.052 S 
ATOM     19  H   UNL     1       1.313  -2.274  -5.771  0.00  0.00    +0.156 HD
BRANCH  15  20
ATOM     20  O   UNL     1      -3.873  -3.384 -11.955  0.00  0.00    -0.495 OA
ATOM     21  C   UNL     1      -5.267  -3.146 -12.161  0.00  0.00    +0.277 C 
ENDBRANCH  15  20
ENDBRANCH   4   9
BRANCH   1  22
ATOM     22  C   UNL     1       1.184   0.812  -0.972  0.00  0.00    +0.035 A 
ATOM     23  C   UNL     1       1.068   1.793  -1.949  0.00  0.00    +0.023 A 
ATOM     24  C   UNL     1       1.581   3.055  -1.722  0.00  0.00    +0.002 A 
ATOM     25  C   UNL     1       2.210   3.342  -0.524  0.00  0.00    +0.000 A 
ATOM     26  C   UNL     1       2.326   2.368   0.451  0.00  0.00    +0.002 A 
ATOM     27  C   UNL     1       1.810   1.105   0.233  0.00  0.00    +0.023 A 
ENDBRANCH   1  22
BRANCH   3  28
ATOM     28  N   UNL     1       1.939  -1.573  -3.464  0.00  0.00    -0.353 N 
ATOM     29  H   UNL     1       2.450  -1.468  -2.646  0.00  0.00    +0.143 HD
ATOM     30  H   UNL     1       2.376  -1.883  -4.272  0.00  0.00    +0.143 HD
ENDBRANCH   3  28
BRANCH   1  32
ATOM     31  C   UNL     1      -0.253  -1.529   0.803  0.00  0.00    +0.025 C 
ATOM     32  C   UNL     1       0.887  -1.531  -0.217  0.00  0.00    +0.109 C 
ENDBRANCH   1  32
TORSDOF 5
