REMARK  Name = ZINC18459632
REMARK  10 active torsions:
REMARK  status: ('A' for Active; 'I' for Inactive)
REMARK    1  A    between atoms: C_1  and  C_2
REMARK    2  A    between atoms: C_5  and  N_9
REMARK    3  A    between atoms: C_6  and  C_8
REMARK    4  A    between atoms: C_10  and  C_12
REMARK    5  A    between atoms: C_12  and  C_14
REMARK    6  A    between atoms: C_12  and  S_15
REMARK    7  A    between atoms: S_15  and  C_16
REMARK    8  A    between atoms: C_19  and  C_27
REMARK    9  A    between atoms: N_20  and  C_21
REMARK   10  A    between atoms: C_27  and  C_28
REMARK                            x       y       z     vdW  Elec       q    Type
REMARK                         _______ _______ _______ _____ _____    ______ ____
ROOT
ATOM      1  C   UNL     1      -1.015  -8.645  -2.553  0.00  0.00    +0.197 A 
ATOM      2  N   UNL     1      -0.708  -9.338  -1.481  0.00  0.00    -0.122 NA
ATOM      3  N   UNL     1      -0.970 -10.581  -1.674  0.00  0.00    -0.133 NA
ATOM      4  C   UNL     1      -1.455 -10.757  -2.871  0.00  0.00    +0.143 A 
ATOM      5  N   UNL     1      -1.507  -9.529  -3.474  0.00  0.00    -0.274 N 
ENDROOT
BRANCH   5   6
ATOM      6  C   UNL     1      -1.967  -9.238  -4.766  0.00  0.00    +0.050 A 
ATOM      7  C   UNL     1      -3.304  -9.428  -5.088  0.00  0.00    +0.026 A 
ATOM      8  C   UNL     1      -3.755  -9.140  -6.362  0.00  0.00    +0.002 A 
ATOM      9  C   UNL     1      -2.875  -8.664  -7.316  0.00  0.00    +0.000 A 
ATOM     10  C   UNL     1      -1.542  -8.474  -6.999  0.00  0.00    +0.002 A 
ATOM     11  C   UNL     1      -1.087  -8.754  -5.725  0.00  0.00    +0.026 A 
ENDBRANCH   5   6
BRANCH   1  12
ATOM     12  S   UNL     1      -0.833  -6.905  -2.764  0.00  0.00    -0.073 S 
BRANCH  12  13
ATOM     13  C   UNL     1      -0.134  -6.343  -1.187  0.00  0.00    +0.137 C 
ATOM     14  C   UNL     1       1.263  -6.941  -1.007  0.00  0.00    +0.029 C 
BRANCH  13  16
ATOM     15  N   UNL     1       0.059  -4.170  -0.021  0.00  0.00    -0.284 N 
ATOM     16  C   UNL     1      -0.040  -4.839  -1.187  0.00  0.00    +0.230 C 
ATOM     17  O   UNL     1      -0.054  -4.230  -2.236  0.00  0.00    -0.274 OA
ATOM     18  H   UNL     1       0.135  -4.658   0.814  0.00  0.00    +0.155 HD
BRANCH  15  23
ATOM     19  C   UNL     1       0.025   1.503   0.005  0.00  0.00    +0.044 C 
ATOM     20  C   UNL     1       0.034  -0.004  -0.002  0.00  0.00    -0.050 A 
ATOM     21  C   UNL     1       0.632  -0.685  -1.046  0.00  0.00    +0.005 A 
ATOM     22  C   UNL     1       0.642  -2.066  -1.055  0.00  0.00    +0.024 A 
ATOM     23  C   UNL     1       0.051  -2.771  -0.014  0.00  0.00    +0.036 A 
ATOM     24  C   UNL     1      -0.548  -2.083   1.033  0.00  0.00    -0.029 A 
ATOM     25  C   UNL     1      -0.550  -0.702   1.039  0.00  0.00    +0.008 A 
ATOM     26  C   UNL     1      -1.190  -2.843   2.165  0.00  0.00    +0.045 C 
ENDBRANCH  15  23
ENDBRANCH  13  16
ENDBRANCH  12  13
ENDBRANCH   1  12
BRANCH   4  27
ATOM     27  C   UNL     1      -1.884 -12.069  -3.477  0.00  0.00    +0.119 C 
BRANCH  27  28
ATOM     28  C   UNL     1      -3.341 -12.308  -3.175  0.00  0.00    -0.003 A 
ATOM     29  C   UNL     1      -4.432 -11.951  -3.897  0.00  0.00    +0.011 A 
ATOM     30  C   UNL     1      -5.687 -12.281  -3.421  0.00  0.00    +0.008 A 
ATOM     31  C   UNL     1      -5.790 -12.951  -2.248  0.00  0.00    +0.045 A 
ATOM     32  S   UNL     1      -4.078 -13.143  -1.780  0.00  0.00    -0.101 S 
ENDBRANCH  27  28
ENDBRANCH   4  27
TORSDOF 7
