REMARK  Name = ZINC01781247
REMARK  12 active torsions:
REMARK  status: ('A' for Active; 'I' for Inactive)
REMARK    1  A    between atoms: C_4  and  C_7
REMARK    2  A    between atoms: C_7  and  N_71
REMARK    3  A    between atoms: C_8  and  C_9
REMARK    4  A    between atoms: C_8  and  N_71
REMARK    5  A    between atoms: C_15  and  C_16
REMARK    6  A    between atoms: C_15  and  N_71
REMARK    7  A    between atoms: C_16  and  C_18
REMARK    8  A    between atoms: C_16  and  O_39
REMARK    9  A    between atoms: C_18  and  N_19
REMARK   10  A    between atoms: N_19  and  C_20
REMARK   11  A    between atoms: N_19  and  S_30
REMARK   12  A    between atoms: S_30  and  C_33
REMARK                            x       y       z     vdW  Elec       q    Type
REMARK                         _______ _______ _______ _____ _____    ______ ____
ROOT
ATOM      1  C   UNL     1       2.108   0.345  -1.475  0.00  0.00    +0.161 C 
ENDROOT
BRANCH   1   2
ATOM      2  C   UNL     1       1.784   0.460   0.016  0.00  0.00    +0.117 C 
BRANCH   2   3
ATOM      3  O   UNL     1       0.422   0.863   0.177  0.00  0.00    -0.392 OA
ATOM      4  H   UNL     1       0.189   1.665  -0.309  0.00  0.00    +0.210 HD
ENDBRANCH   2   3
BRANCH   2   5
ATOM      5  C   UNL     1       2.703   1.500   0.659  0.00  0.00    -0.045 C 
BRANCH   5   6
ATOM      6  N   UNL     1       2.515   1.458   2.125  0.00  0.00    +0.387 N 
ATOM      7  H   UNL     1       2.506   0.479   2.432  0.00  0.00    -0.081 HD
BRANCH   6   8
ATOM      8  C   UNL     1       3.627   2.163   2.797  0.00  0.00    -0.042 C 
BRANCH   8  12
ATOM      9  C   UNL     1       4.411   0.221   6.520  0.00  0.00    +0.000 A 
ATOM     10  C   UNL     1       5.144  -0.116   5.397  0.00  0.00    +0.000 A 
ATOM     11  C   UNL     1       4.890   0.513   4.192  0.00  0.00    +0.002 A 
ATOM     12  C   UNL     1       3.903   1.478   4.110  0.00  0.00    -0.064 A 
ATOM     13  C   UNL     1       3.175   1.818   5.234  0.00  0.00    +0.002 A 
ATOM     14  C   UNL     1       3.425   1.186   6.438  0.00  0.00    +0.000 A 
ENDBRANCH   8  12
ENDBRANCH   6   8
BRANCH   6  15
ATOM     15  C   UNL     1       1.227   2.087   2.487  0.00  0.00    -0.042 C 
BRANCH  15  16
ATOM     16  C   UNL     1       0.964   3.289   1.617  0.00  0.00    -0.064 A 
ATOM     17  C   UNL     1       1.875   4.328   1.581  0.00  0.00    +0.002 A 
ATOM     18  C   UNL     1       1.637   5.428   0.779  0.00  0.00    +0.000 A 
ATOM     19  C   UNL     1       0.482   5.495   0.022  0.00  0.00    +0.000 A 
ATOM     20  C   UNL     1      -0.431   4.458   0.062  0.00  0.00    +0.000 A 
ATOM     21  C   UNL     1      -0.191   3.355   0.860  0.00  0.00    +0.002 A 
ENDBRANCH  15  16
ENDBRANCH   6  15
ENDBRANCH   5   6
ENDBRANCH   2   5
ENDBRANCH   1   2
BRANCH   1  22
ATOM     22  N   UNL     1       1.228  -0.651  -2.091  0.00  0.00    -0.200 N 
BRANCH  22  23
ATOM     23  C   UNL     1       1.567  -2.002  -2.049  0.00  0.00    +0.059 A 
ATOM     24  C   UNL     1       1.238  -2.768  -0.951  0.00  0.00    +0.025 A 
ATOM     25  C   UNL     1       1.573  -4.118  -0.900  0.00  0.00    +0.002 A 
ATOM     26  C   UNL     1       2.233  -4.718  -1.929  0.00  0.00    +0.008 A 
ATOM     27  C   UNL     1       2.588  -3.972  -3.065  0.00  0.00    -0.016 A 
ATOM     28  C   UNL     1       2.247  -2.599  -3.132  0.00  0.00    +0.005 A 
ATOM     29  C   UNL     1       2.606  -1.854  -4.266  0.00  0.00    +0.010 A 
ATOM     30  C   UNL     1       3.267  -2.461  -5.290  0.00  0.00    +0.001 A 
ATOM     31  C   UNL     1       3.598  -3.813  -5.228  0.00  0.00    +0.001 A 
ATOM     32  C   UNL     1       3.270  -4.565  -4.142  0.00  0.00    +0.008 A 
ENDBRANCH  22  23
BRANCH  22  33
ATOM     33  S   UNL     1      -0.171  -0.172  -2.836  0.00  0.00    +0.075 S 
ATOM     34  O   UNL     1      -1.043  -1.294  -2.824  0.00  0.00    -0.150 OA
ATOM     35  O   UNL     1      -0.530   1.078  -2.262  0.00  0.00    -0.150 OA
BRANCH  33  36
ATOM     36  C   UNL     1       0.220   0.143  -4.525  0.00  0.00    +0.109 A 
ATOM     37  C   UNL     1       0.615   1.408  -4.919  0.00  0.00    +0.029 A 
ATOM     38  C   UNL     1       0.927   1.654  -6.243  0.00  0.00    +0.002 A 
ATOM     39  C   UNL     1       0.834   0.638  -7.175  0.00  0.00    +0.000 A 
ATOM     40  C   UNL     1       0.434  -0.626  -6.782  0.00  0.00    +0.002 A 
ATOM     41  C   UNL     1       0.127  -0.873  -5.457  0.00  0.00    +0.029 A 
ENDBRANCH  33  36
ENDBRANCH  22  33
ENDBRANCH   1  22
TORSDOF 12
