REMARK  Name = ZINC39779179
REMARK  9 active torsions:
REMARK  status: ('A' for Active; 'I' for Inactive)
REMARK    1  A    between atoms: C_1  and  C_2
REMARK    2  A    between atoms: C_4  and  N_11
REMARK    3  A    between atoms: C_6  and  C_8
REMARK    4  A    between atoms: C_8  and  C_9
REMARK    5  A    between atoms: C_8  and  C_10
REMARK    6  A    between atoms: N_14  and  C_17
REMARK    7  A    between atoms: C_17  and  C_18
REMARK    8  A    between atoms: C_23  and  C_30
REMARK    9  A    between atoms: C_24  and  C_29
REMARK                            x       y       z     vdW  Elec       q    Type
REMARK                         _______ _______ _______ _____ _____    ______ ____
ROOT
ATOM      1  N   UNL     1       0.030  -2.832  -2.322  0.00  0.00    -0.313 N 
ATOM      2  C   UNL     1       0.044  -4.302  -2.286  0.00  0.00    +0.122 C 
ATOM      3  C   UNL     1      -1.085  -4.822  -3.181  0.00  0.00    +0.104 C 
ATOM      4  N   UNL     1      -0.955  -4.232  -4.520  0.00  0.00    -0.292 NA
ATOM      5  C   UNL     1      -1.109  -2.772  -4.477  0.00  0.00    +0.104 C 
ATOM      6  C   UNL     1       0.014  -2.168  -3.634  0.00  0.00    +0.122 C 
ENDROOT
BRANCH   1  10
ATOM      7  C   UNL     1       0.408   1.477   0.028  0.00  0.00    +0.063 C 
ATOM      8  C   UNL     1       0.205  -0.016   0.011  0.00  0.00    +0.017 A 
ATOM      9  C   UNL     1       0.218  -0.709  -1.184  0.00  0.00    +0.064 A 
ATOM     10  C   UNL     1       0.026  -2.092  -1.150  0.00  0.00    +0.125 A 
ATOM     11  N   UNL     1      -0.162  -2.687   0.024  0.00  0.00    -0.219 NA
ATOM     12  C   UNL     1      -0.167  -1.986   1.140  0.00  0.00    +0.112 A 
ATOM     13  N   UNL     1       0.017  -0.681   1.142  0.00  0.00    -0.347 N 
ATOM     14  H   UNL     1       0.010  -0.199   1.984  0.00  0.00    +0.167 HD
BRANCH  12  15
ATOM     15  C   UNL     1      -0.383  -2.698   2.451  0.00  0.00    +0.049 C 
ATOM     16  C   UNL     1       0.972  -3.023   3.083  0.00  0.00    +0.015 C 
ATOM     17  C   UNL     1      -1.183  -1.797   3.394  0.00  0.00    +0.015 C 
ENDBRANCH  12  15
ENDBRANCH   1  10
BRANCH   4  18
ATOM     18  C   UNL     1      -1.913  -4.835  -5.457  0.00  0.00    +0.158 C 
BRANCH  18  19
ATOM     19  C   UNL     1      -1.591  -4.391  -6.860  0.00  0.00    +0.138 C 
ATOM     20  N   UNL     1      -0.569  -3.589  -7.039  0.00  0.00    -0.160 NA
ATOM     21  C   UNL     1      -0.203  -3.140  -8.244  0.00  0.00    +0.271 C 
ATOM     22  O   UNL     1       0.754  -2.396  -8.375  0.00  0.00    -0.268 OA
ATOM     23  C   UNL     1      -1.006  -3.582  -9.429  0.00  0.00    +0.071 C 
ATOM     24  C   UNL     1      -0.828  -3.264 -10.720  0.00  0.00    -0.045 C 
ATOM     25  C   UNL     1      -1.789  -3.851 -11.728  0.00  0.00    +0.076 C 
ATOM     26  S   UNL     1      -2.899  -4.846 -10.650  0.00  0.00    -0.098 S 
ATOM     27  C   UNL     1      -2.130  -4.482  -9.092  0.00  0.00    +0.111 C 
ATOM     28  N   UNL     1      -2.352  -4.835  -7.848  0.00  0.00    -0.226 NA
ATOM     29  C   UNL     1      -1.054  -4.743 -12.731  0.00  0.00    +0.024 C 
ATOM     30  C   UNL     1       0.292  -2.352 -11.150  0.00  0.00    +0.041 C 
ENDBRANCH  18  19
ENDBRANCH   4  18
TORSDOF 4
