REMARK  Name = ZINC03665684
REMARK  13 active torsions:
REMARK  status: ('A' for Active; 'I' for Inactive)
REMARK    1  A    between atoms: C_1  and  C_2
REMARK    2  A    between atoms: C_4  and  N_11
REMARK    3  A    between atoms: C_5  and  O_9
REMARK    4  A    between atoms: O_9  and  C_10
REMARK    5  A    between atoms: N_11  and  C_12
REMARK    6  A    between atoms: C_12  and  N_14
REMARK    7  A    between atoms: N_14  and  C_15
REMARK    8  A    between atoms: N_14  and  C_26
REMARK    9  A    between atoms: C_15  and  C_16
REMARK   10  A    between atoms: C_16  and  C_17
REMARK   11  A    between atoms: C_17  and  N_18
REMARK   12  A    between atoms: C_22  and  C_25
REMARK   13  A    between atoms: C_26  and  C_27
REMARK                            x       y       z     vdW  Elec       q    Type
REMARK                         _______ _______ _______ _____ _____    ______ ____
ROOT
ATOM      1  N   UNL     1      -1.921  -1.377  -1.246  0.00  0.00    -0.305 N 
ENDROOT
BRANCH   1   2
ATOM      2  C   UNL     1      -2.807  -0.551  -1.838  0.00  0.00    +0.138 C 
ATOM      3  S   UNL     1      -3.684  -1.078  -3.211  0.00  0.00    -0.018 S 
BRANCH   2   4
ATOM      4  N   UNL     1      -3.003   0.689  -1.349  0.00  0.00    -0.294 N 
ATOM      5  H   UNL     1      -2.509   0.997  -0.416  0.00  0.00    +0.154 HD
BRANCH   4   9
ATOM      6  C   UNL     1      -4.477   2.728  -5.574  0.00  0.00    +0.045 C 
ATOM      7  C   UNL     1      -4.573   2.596  -4.076  0.00  0.00    -0.030 A 
ATOM      8  C   UNL     1      -3.746   1.714  -3.407  0.00  0.00    +0.031 A 
ATOM      9  C   UNL     1      -3.838   1.587  -2.029  0.00  0.00    +0.075 A 
ATOM     10  C   UNL     1      -4.757   2.359  -1.321  0.00  0.00    +0.143 A 
ATOM     11  C   UNL     1      -5.579   3.244  -1.998  0.00  0.00    +0.067 A 
ATOM     12  C   UNL     1      -5.486   3.362  -3.373  0.00  0.00    +0.047 A 
ATOM     13 CL   UNL     1      -6.518   4.473  -4.220  0.00  0.00    -0.083 Cl
BRANCH  10  14
ATOM     14  O   UNL     1      -4.848   2.242   0.031  0.00  0.00    -0.493 OA
ATOM     15  C   UNL     1      -5.813   3.064   0.690  0.00  0.00    +0.277 C 
ENDBRANCH  10  14
ENDBRANCH   4   9
ENDBRANCH   2   4
ENDBRANCH   1   2
BRANCH   1  16
ATOM     16  C   UNL     1      -1.708  -2.725  -1.778  0.00  0.00    +0.105 C 
BRANCH  16  17
ATOM     17  C   UNL     1      -2.677  -3.698  -1.104  0.00  0.00    +0.000 C 
BRANCH  17  18
ATOM     18  C   UNL     1      -2.454  -5.106  -1.659  0.00  0.00    -0.077 C 
BRANCH  18  19
ATOM     19  N   UNL     1      -3.385  -6.041  -1.012  0.00  0.00    +0.380 N 
ATOM     20  C   UNL     1      -3.086  -6.173   0.420  0.00  0.00    -0.079 C 
ATOM     21  C   UNL     1      -4.159  -7.036   1.089  0.00  0.00    -0.018 C 
ATOM     22  C   UNL     1      -4.184  -8.415   0.424  0.00  0.00    -0.001 C 
ATOM     23  C   UNL     1      -4.449  -8.246  -1.075  0.00  0.00    -0.031 C 
ATOM     24  C   UNL     1      -3.368  -7.348  -1.680  0.00  0.00    -0.076 C 
ATOM     25  C   UNL     1      -4.418  -9.615  -1.757  0.00  0.00    +0.005 C 
ATOM     26  H   UNL     1      -4.400  -5.629  -1.106  0.00  0.00    -0.082 HD
ENDBRANCH  18  19
ENDBRANCH  17  18
ENDBRANCH  16  17
ENDBRANCH   1  16
BRANCH   1  27
ATOM     27  C   UNL     1      -1.171  -0.925  -0.072  0.00  0.00    +0.181 C 
BRANCH  27  28
ATOM     28  C   UNL     1       0.114  -0.274  -0.516  0.00  0.00    +0.122 A 
ATOM     29  C   UNL     1       0.278   1.031  -0.795  0.00  0.00    +0.046 A 
ATOM     30  C   UNL     1       1.631   1.202  -1.170  0.00  0.00    +0.041 A 
ATOM     31  C   UNL     1       2.212  -0.009  -1.097  0.00  0.00    +0.195 A 
ATOM     32  O   UNL     1       1.288  -0.899  -0.700  0.00  0.00    -0.466 OA
ENDBRANCH  27  28
ENDBRANCH   1  27
TORSDOF 10
