REMARK  Name = ZINC40151189
REMARK  11 active torsions:
REMARK  status: ('A' for Active; 'I' for Inactive)
REMARK    1  A    between atoms: C_1  and  O_2
REMARK    2  A    between atoms: O_2  and  C_3
REMARK    3  A    between atoms: C_6  and  N_9
REMARK    4  A    between atoms: N_9  and  N_10
REMARK    5  A    between atoms: C_11  and  C_12
REMARK    6  A    between atoms: C_11  and  C_25
REMARK    7  A    between atoms: C_25  and  C_27
REMARK    8  A    between atoms: C_25  and  O_32
REMARK    9  A    between atoms: C_27  and  C_29
REMARK   10  A    between atoms: C_27  and  O_31
REMARK   11  A    between atoms: C_29  and  O_30
REMARK                            x       y       z     vdW  Elec       q    Type
REMARK                         _______ _______ _______ _____ _____    ______ ____
ROOT
ATOM      1  N   UNL     1      -4.945  -3.984  -0.009  0.00  0.00    -0.186 NA
ATOM      2  C   UNL     1      -6.070  -4.577   0.140  0.00  0.00    +0.099 C 
ENDROOT
BRANCH   2   3
ATOM      3  C   UNL     1      -7.347  -3.778   0.152  0.00  0.00    +0.215 C 
ATOM      4  C   UNL     1      -7.660  -3.429   1.589  0.00  0.00    +0.245 C 
ATOM      5  O   UNL     1      -6.860  -2.806   2.259  0.00  0.00    -0.273 OA
ATOM      6  N   UNL     1      -8.826  -3.813   2.112  0.00  0.00    -0.282 N 
ATOM      7  C   UNL     1      -9.714  -4.491   1.404  0.00  0.00    +0.057 A 
ATOM      8  C   UNL     1     -10.939  -4.882   1.990  0.00  0.00    +0.027 A 
ATOM      9  C   UNL     1     -11.851  -5.577   1.271  0.00  0.00    +0.022 A 
ATOM     10  C   UNL     1     -11.642  -5.944  -0.070  0.00  0.00    +0.043 A 
ATOM     11  C   UNL     1     -10.505  -5.619  -0.726  0.00  0.00    +0.047 A 
ATOM     12  C   UNL     1      -9.464  -4.864  -0.011  0.00  0.00    +0.059 A 
ATOM     13  N   UNL     1      -8.356  -4.533  -0.608  0.00  0.00    -0.368 N 
ATOM     14 CL   UNL     1     -12.875  -6.836  -0.906  0.00  0.00    -0.083 Cl
ATOM     15  H   UNL     1      -9.028  -3.590   3.034  0.00  0.00    +0.155 HD
ATOM     16  H   UNL     1      -8.199  -4.779  -1.533  0.00  0.00    +0.161 HD
ENDBRANCH   2   3
BRANCH   1  17
ATOM     17  N   UNL     1      -4.890  -2.584  -0.038  0.00  0.00    -0.238 N 
ATOM     18  H   UNL     1      -5.709  -2.066  -0.012  0.00  0.00    +0.174 HD
BRANCH  17  22
ATOM     19  C   UNL     1      -1.204  -0.649  -0.239  0.00  0.00    +0.120 A 
ATOM     20  C   UNL     1      -2.376   0.093  -0.202  0.00  0.00    +0.047 A 
ATOM     21  C   UNL     1      -3.598  -0.547  -0.136  0.00  0.00    +0.028 A 
ATOM     22  C   UNL     1      -3.653  -1.935  -0.106  0.00  0.00    +0.049 A 
ATOM     23  C   UNL     1      -2.479  -2.677  -0.144  0.00  0.00    +0.028 A 
ATOM     24  C   UNL     1      -1.259  -2.035  -0.215  0.00  0.00    +0.047 A 
BRANCH  19  26
ATOM     25  C   UNL     1      -0.020   1.411  -0.325  0.00  0.00    +0.277 C 
ATOM     26  O   UNL     1      -0.002  -0.017  -0.304  0.00  0.00    -0.495 OA
ENDBRANCH  19  26
ENDBRANCH  17  22
ENDBRANCH   1  17
BRANCH   2  27
ATOM     27  C   UNL     1      -6.116  -6.074   0.304  0.00  0.00    +0.193 C 
BRANCH  27  28
ATOM     28  O   UNL     1      -6.715  -6.398   1.560  0.00  0.00    -0.383 OA
ATOM     29  H   UNL     1      -7.619  -6.072   1.661  0.00  0.00    +0.210 HD
ENDBRANCH  27  28
BRANCH  27  30
ATOM     30  C   UNL     1      -4.694  -6.637   0.256  0.00  0.00    +0.174 C 
BRANCH  30  31
ATOM     31  O   UNL     1      -4.096  -6.314  -1.001  0.00  0.00    -0.387 OA
ATOM     32  H   UNL     1      -4.570  -6.670  -1.765  0.00  0.00    +0.210 HD
ENDBRANCH  30  31
BRANCH  30  33
ATOM     33  C   UNL     1      -4.742  -8.157   0.422  0.00  0.00    +0.190 C 
BRANCH  33  34
ATOM     34  O   UNL     1      -3.410  -8.670   0.494  0.00  0.00    -0.392 OA
ATOM     35  H   UNL     1      -3.363  -9.630   0.600  0.00  0.00    +0.210 HD
ENDBRANCH  33  34
ENDBRANCH  30  33
ENDBRANCH  27  30
ENDBRANCH   2  27
TORSDOF 10
