REMARK  Name = ZINC50224241
REMARK  4 active torsions:
REMARK  status: ('A' for Active; 'I' for Inactive)
REMARK    1  A    between atoms: C_5  and  C_13
REMARK    2  A    between atoms: C_13  and  N_14
REMARK    3  A    between atoms: C_16  and  C_19
REMARK    4  A    between atoms: C_19  and  N_20
REMARK                            x       y       z     vdW  Elec       q    Type
REMARK                         _______ _______ _______ _____ _____    ______ ____
ROOT
ATOM      1  C   UNL     1      -0.017   1.398   0.010  0.00  0.00    +0.020 A 
ATOM      2  C   UNL     1       1.159   2.087   0.002  0.00  0.00    +0.048 A 
ATOM      3  C   UNL     1       2.375   1.379  -0.013  0.00  0.00    +0.141 A 
ATOM      4  N   UNL     1       3.525   2.050  -0.020  0.00  0.00    -0.232 NA
ATOM      5  C   UNL     1       4.690   1.421  -0.035  0.00  0.00    +0.070 A 
ATOM      6  C   UNL     1       4.730   0.041  -0.043  0.00  0.00    +0.096 A 
ATOM      7  C   UNL     1       3.526  -0.672  -0.035  0.00  0.00    +0.259 A 
ATOM      8  O   UNL     1       3.527  -1.893  -0.042  0.00  0.00    -0.267 OA
ATOM      9  N   UNL     1       2.362   0.012  -0.020  0.00  0.00    -0.267 N 
ATOM     10  C   UNL     1       1.181  -0.667  -0.011  0.00  0.00    +0.111 A 
ATOM     11  C   UNL     1       0.002  -0.004   0.002  0.00  0.00    +0.035 A 
ATOM     12 BR   UNL     1      -1.624  -0.970   0.012  0.00  0.00    -0.049 Br
ENDROOT
BRANCH   5  13
ATOM     13  C   UNL     1       5.973   2.212  -0.043  0.00  0.00    +0.200 C 
BRANCH  13  14
ATOM     14  N   UNL     1       6.312   2.578  -1.421  0.00  0.00    -0.246 N 
ATOM     15  C   UNL     1       6.548   3.831  -1.873  0.00  0.00    +0.132 A 
ATOM     16  C   UNL     1       6.821   3.711  -3.193  0.00  0.00    +0.066 A 
ATOM     17  N   UNL     1       6.740   2.407  -3.480  0.00  0.00    -0.136 NA
ATOM     18  N   UNL     1       6.442   1.762  -2.408  0.00  0.00    -0.065 NA
BRANCH  16  19
ATOM     19  C   UNL     1       7.152   4.826  -4.151  0.00  0.00    -0.027 C 
BRANCH  19  20
ATOM     20  N   UNL     1       8.610   4.961  -4.261  0.00  0.00    +0.382 N 
ATOM     21  H   UNL     1       8.998   5.171  -3.354  0.00  0.00    -0.090 HD
ATOM     22  H   UNL     1       9.003   4.096  -4.603  0.00  0.00    -0.090 HD
ATOM     23  H   UNL     1       8.832   5.707  -4.903  0.00  0.00    -0.090 HD
ENDBRANCH  19  20
ENDBRANCH  16  19
ENDBRANCH  13  14
ENDBRANCH   5  13
TORSDOF 4
