REMARK  Name = ZINC27828755
REMARK  12 active torsions:
REMARK  status: ('A' for Active; 'I' for Inactive)
REMARK    1  A    between atoms: C_1  and  C_2
REMARK    2  A    between atoms: C_2  and  C_3
REMARK    3  A    between atoms: C_3  and  C_4
REMARK    4  A    between atoms: C_4  and  C_5
REMARK    5  A    between atoms: C_8  and  C_12
REMARK    6  A    between atoms: C_8  and  C_13
REMARK    7  A    between atoms: N_18  and  C_19
REMARK    8  A    between atoms: C_19  and  C_20
REMARK    9  A    between atoms: C_20  and  C_21
REMARK   10  A    between atoms: C_21  and  N_22
REMARK   11  A    between atoms: N_22  and  C_23
REMARK   12  A    between atoms: C_23  and  N_25
REMARK                            x       y       z     vdW  Elec       q    Type
REMARK                         _______ _______ _______ _____ _____    ______ ____
ROOT
ATOM      1  C   UNL     1       0.002  -0.004   0.002  0.00  0.00    +0.068 A 
ATOM      2  C   UNL     1      -0.016   1.350   0.009  0.00  0.00    +0.073 A 
ATOM      3  S   UNL     1       1.734   1.707  -0.005  0.00  0.00    -0.062 S 
ATOM      4  C   UNL     1       2.300   0.065  -0.020  0.00  0.00    +0.136 A 
ATOM      5  N   UNL     1       1.171  -0.618  -0.012  0.00  0.00    -0.338 N 
ATOM      6  N   UNL     1       3.603  -0.408  -0.035  0.00  0.00    -0.325 N 
ATOM      7  H   UNL     1       3.795  -1.491  -0.042  0.00  0.00    +0.148 HD
ATOM      8  H   UNL     1       1.215  -1.717  -0.019  0.00  0.00    +0.167 HD
ENDROOT
BRANCH   1  11
ATOM      9  C   UNL     1      -1.710  -2.686   1.452  0.00  0.00    +0.102 C 
ATOM     10  C   UNL     1      -0.978  -2.299   0.146  0.00  0.00    +0.069 C 
ATOM     11  C   UNL     1      -1.282  -0.792   0.011  0.00  0.00    +0.151 C 
ATOM     12  O   UNL     1      -2.084  -0.429   1.170  0.00  0.00    -0.452 OA
ATOM     13  C   UNL     1      -2.665  -1.529   1.681  0.00  0.00    +0.311 C 
ATOM     14  O   UNL     1      -3.744  -1.586   2.222  0.00  0.00    -0.251 OA
ATOM     15  C   UNL     1      -2.068  -0.529  -1.275  0.00  0.00    +0.062 C 
BRANCH   9  16
ATOM     16  C   UNL     1      -2.482  -3.994   1.269  0.00  0.00    +0.015 C 
BRANCH  16  17
ATOM     17  C   UNL     1      -3.184  -4.360   2.578  0.00  0.00    +0.001 C 
BRANCH  17  19
ATOM     18  C   UNL     1      -4.658  -6.035   3.704  0.00  0.00    +0.004 C 
ATOM     19  C   UNL     1      -3.956  -5.668   2.394  0.00  0.00    -0.003 C 
ENDBRANCH  17  19
ENDBRANCH  16  17
ENDBRANCH   9  16
ENDBRANCH   1  11
BRANCH   6  20
ATOM     20  C   UNL     1       4.724   0.535  -0.040  0.00  0.00    +0.105 C 
BRANCH  20  21
ATOM     21  C   UNL     1       6.043  -0.240  -0.057  0.00  0.00    +0.037 C 
BRANCH  21  22
ATOM     22  C   UNL     1       7.213   0.745  -0.063  0.00  0.00    +0.104 C 
BRANCH  22  23
ATOM     23  N   UNL     1       8.476   0.003  -0.079  0.00  0.00    -0.327 N 
ATOM     24  H   UNL     1       8.467  -1.097  -0.085  0.00  0.00    +0.148 HD
BRANCH  23  25
ATOM     25  C   UNL     1       9.649   0.667  -0.086  0.00  0.00    +0.128 C 
ATOM     26  S   UNL     1       9.662   2.379  -0.077  0.00  0.00    -0.019 S 
BRANCH  25  27
ATOM     27  N   UNL     1      10.810  -0.016  -0.101  0.00  0.00    -0.341 N 
ATOM     28  H   UNL     1      11.767   0.526  -0.107  0.00  0.00    +0.144 HD
ATOM     29  H   UNL     1      10.802  -1.116  -0.107  0.00  0.00    +0.144 HD
ENDBRANCH  25  27
ENDBRANCH  23  25
ENDBRANCH  22  23
ENDBRANCH  21  22
ENDBRANCH  20  21
ENDBRANCH   6  20
TORSDOF 10
