REMARK  Name = ZINC09027534
REMARK  11 active torsions:
REMARK  status: ('A' for Active; 'I' for Inactive)
REMARK    1  A    between atoms: C_1  and  C_2
REMARK    2  A    between atoms: C_2  and  N_3
REMARK    3  A    between atoms: C_4  and  C_20
REMARK    4  A    between atoms: C_7  and  S_8
REMARK    5  A    between atoms: S_8  and  C_9
REMARK    6  A    between atoms: C_9  and  C_10
REMARK    7  A    between atoms: N_12  and  C_13
REMARK    8  A    between atoms: C_23  and  C_26
REMARK    9  A    between atoms: C_26  and  C_27
REMARK   10  A    between atoms: C_26  and  C_28
REMARK   11  A    between atoms: C_26  and  C_29
REMARK                            x       y       z     vdW  Elec       q    Type
REMARK                         _______ _______ _______ _____ _____    ______ ____
ROOT
ATOM      1  N   UNL     1      -1.052  -0.686  -0.255  0.00  0.00    -0.302 N 
ATOM      2  C   UNL     1      -0.167   0.322   0.049  0.00  0.00    +0.165 A 
ATOM      3  N   UNL     1       1.008  -0.236   0.222  0.00  0.00    -0.128 NA
ATOM      4  N   UNL     1       0.921  -1.506   0.044  0.00  0.00    -0.122 NA
ATOM      5  C   UNL     1      -0.316  -1.836  -0.253  0.00  0.00    +0.192 A 
ENDROOT
BRANCH   2   6
ATOM      6  C   UNL     1      -0.481   1.762   0.166  0.00  0.00    +0.019 A 
ATOM      7  C   UNL     1      -1.657   2.270  -0.390  0.00  0.00    +0.012 A 
ATOM      8  C   UNL     1      -1.947   3.614  -0.272  0.00  0.00    +0.005 A 
ATOM      9  C   UNL     1      -1.070   4.459   0.385  0.00  0.00    -0.042 A 
ATOM     10  C   UNL     1       0.100   3.962   0.933  0.00  0.00    +0.005 A 
ATOM     11  C   UNL     1       0.399   2.620   0.827  0.00  0.00    +0.012 A 
BRANCH   9  12
ATOM     12  C   UNL     1      -1.391   5.926   0.504  0.00  0.00    -0.013 C 
ATOM     13  C   UNL     1      -0.288   6.746  -0.169  0.00  0.00    +0.015 C 
ATOM     14  C   UNL     1      -2.729   6.213  -0.179  0.00  0.00    +0.015 C 
ATOM     15  C   UNL     1      -1.480   6.310   1.983  0.00  0.00    +0.015 C 
ENDBRANCH   9  12
ENDBRANCH   2   6
BRANCH   1  17
ATOM     16  C   UNL     1      -2.704  -0.351  -2.027  0.00  0.00    +0.027 C 
ATOM     17  C   UNL     1      -2.486  -0.553  -0.526  0.00  0.00    +0.122 C 
ENDBRANCH   1  17
BRANCH   5  18
ATOM     18  S   UNL     1      -0.914  -3.461  -0.580  0.00  0.00    -0.077 S 
BRANCH  18  19
ATOM     19  C   UNL     1       0.617  -4.406  -0.383  0.00  0.00    +0.173 C 
BRANCH  19  20
ATOM     20  C   UNL     1       0.340  -5.867  -0.624  0.00  0.00    +0.227 C 
ATOM     21  O   UNL     1      -0.782  -6.234  -0.901  0.00  0.00    -0.275 OA
ATOM     22  N   UNL     1       1.339  -6.767  -0.531  0.00  0.00    -0.285 N 
ATOM     23  H   UNL     1       2.221  -6.484  -0.243  0.00  0.00    +0.155 HD
BRANCH  22  24
ATOM     24  C   UNL     1       1.105  -8.109  -0.851  0.00  0.00    +0.033 A 
ATOM     25  C   UNL     1       1.768  -9.115  -0.159  0.00  0.00    +0.024 A 
ATOM     26  C   UNL     1       1.531 -10.439  -0.473  0.00  0.00    +0.017 A 
ATOM     27  C   UNL     1       0.641 -10.763  -1.482  0.00  0.00    +0.018 A 
ATOM     28  C   UNL     1      -0.016  -9.763  -2.176  0.00  0.00    +0.017 A 
ATOM     29  C   UNL     1       0.213  -8.438  -1.863  0.00  0.00    +0.024 A 
ATOM     30 BR   UNL     1       0.324 -12.577  -1.914  0.00  0.00    -0.050 Br
ENDBRANCH  22  24
ENDBRANCH  19  20
ENDBRANCH  18  19
ENDBRANCH   5  18
TORSDOF 7
