REMARK  Name = ZINC64143380
REMARK  8 active torsions:
REMARK  status: ('A' for Active; 'I' for Inactive)
REMARK    1  A    between atoms: C_1  and  C_2
REMARK    2  A    between atoms: C_5  and  C_30
REMARK    3  A    between atoms: N_7  and  C_9
REMARK    4  A    between atoms: C_12  and  N_15
REMARK    5  A    between atoms: C_18  and  N_21
REMARK    6  A    between atoms: N_21  and  C_22
REMARK    7  A    between atoms: C_22  and  C_23
REMARK    8  A    between atoms: C_23  and  C_24
REMARK                            x       y       z     vdW  Elec       q    Type
REMARK                         _______ _______ _______ _____ _____    ______ ____
ROOT
ATOM      1  N   UNL     1       2.797  -5.870   4.154  0.00  0.00    -0.330 N 
ATOM      2  C   UNL     1       2.154  -7.174   4.366  0.00  0.00    +0.103 C 
ATOM      3  C   UNL     1       3.087  -8.274   3.849  0.00  0.00    +0.003 C 
ATOM      4  C   UNL     1       4.456  -8.132   4.517  0.00  0.00    -0.069 C 
ATOM      5  C   UNL     1       5.064  -6.774   4.157  0.00  0.00    +0.003 C 
ATOM      6  C   UNL     1       4.156  -5.660   4.673  0.00  0.00    +0.103 C 
ENDROOT
BRANCH   1  10
ATOM      7  C   UNL     1       0.812  -2.830   2.104  0.00  0.00    +0.045 A 
ATOM      8  C   UNL     1       2.044  -2.580   2.693  0.00  0.00    +0.026 A 
ATOM      9  C   UNL     1       2.701  -3.587   3.372  0.00  0.00    +0.025 A 
ATOM     10  C   UNL     1       2.130  -4.849   3.466  0.00  0.00    +0.030 A 
ATOM     11  C   UNL     1       0.898  -5.099   2.877  0.00  0.00    +0.025 A 
ATOM     12  C   UNL     1       0.238  -4.091   2.203  0.00  0.00    +0.026 A 
BRANCH   7  17
ATOM     13  C   UNL     1      -2.734  -0.486  -0.342  0.00  0.00    +0.025 C 
ATOM     14  C   UNL     1      -1.697  -0.591   0.778  0.00  0.00    +0.072 C 
ATOM     15  C   UNL     1      -0.472   0.319   0.489  0.00  0.00    +0.043 C 
ATOM     16  C   UNL     1       0.648  -0.438   1.242  0.00  0.00    +0.089 C 
ATOM     17  N   UNL     1       0.145  -1.810   1.415  0.00  0.00    -0.264 N 
ATOM     18  N   UNL     1      -1.075  -1.940   0.801  0.00  0.00    -0.237 NA
ATOM     19  C   UNL     1       1.934  -0.444   0.412  0.00  0.00    +0.029 C 
ATOM     20  H   UNL     1      -0.972  -2.307  -0.133  0.00  0.00    +0.145 HD
ENDBRANCH   7  17
ENDBRANCH   1  10
BRANCH   4  21
ATOM     21  N   UNL     1       5.343  -9.205   4.048  0.00  0.00    +0.381 N 
ATOM     22  H   UNL     1       4.905 -10.099   4.213  0.00  0.00    -0.086 HD
ATOM     23  H   UNL     1       5.515  -9.091   3.061  0.00  0.00    -0.086 HD
BRANCH  21  24
ATOM     24  C   UNL     1       6.617  -9.141   4.778  0.00  0.00    -0.076 C 
BRANCH  24  25
ATOM     25  C   UNL     1       7.540 -10.259   4.289  0.00  0.00    +0.038 C 
BRANCH  25  26
ATOM     26  C   UNL     1       8.847 -10.194   5.038  0.00  0.00    +0.057 A 
ATOM     27  H   UNL     1      11.215 -11.203   6.799  0.00  0.00    +0.166 HD
ATOM     28  C   UNL     1       9.411 -11.199   5.733  0.00  0.00    +0.107 A 
ATOM     29  N   UNL     1      10.583 -10.714   6.250  0.00  0.00    -0.351 N 
ATOM     30  C   UNL     1      10.693  -9.429   5.851  0.00  0.00    +0.196 A 
ATOM     31  N   UNL     1       9.654  -9.126   5.123  0.00  0.00    -0.241 NA
ENDBRANCH  25  26
ENDBRANCH  24  25
ENDBRANCH  21  24
ENDBRANCH   4  21
TORSDOF 6
