REMARK  Name = ZINC43919429
REMARK  5 active torsions:
REMARK  status: ('A' for Active; 'I' for Inactive)
REMARK    1  A    between atoms: C_1  and  C_2
REMARK    2  A    between atoms: C_6  and  C_19
REMARK    3  A    between atoms: N_11  and  C_13
REMARK    4  A    between atoms: C_23  and  C_30
REMARK    5  A    between atoms: C_26  and  C_29
REMARK                            x       y       z     vdW  Elec       q    Type
REMARK                         _______ _______ _______ _____ _____    ______ ____
ROOT
ATOM      1  C   UNL     1      -0.029   1.490   0.018  0.00  0.00    +0.068 C 
ATOM      2  C   UNL     1      -0.003  -0.017   0.006  0.00  0.00    +0.073 A 
ATOM      3  C   UNL     1       0.006  -0.834  -1.143  0.00  0.00    +0.087 A 
ATOM      4  C   UNL     1      -0.005  -0.559  -2.584  0.00  0.00    +0.205 A 
ATOM      5  O   UNL     1      -0.026   0.583  -3.014  0.00  0.00    -0.286 OA
ATOM      6  C   UNL     1       0.011  -1.719  -3.491  0.00  0.00    +0.100 A 
ATOM      7  C   UNL     1       0.036  -2.985  -2.945  0.00  0.00    +0.101 A 
ATOM      8  N   UNL     1       0.045  -3.185  -1.619  0.00  0.00    -0.345 N 
ATOM      9  H   UNL     1       0.062  -4.096  -1.288  0.00  0.00    +0.167 HD
ATOM     10  C   UNL     1       0.031  -2.160  -0.713  0.00  0.00    +0.146 A 
ATOM     11  N   UNL     1       0.037  -2.128   0.646  0.00  0.00    -0.216 N 
ATOM     12  N   UNL     1       0.021  -0.789   1.056  0.00  0.00    -0.169 NA
ENDROOT
BRANCH   6  13
ATOM     13  C   UNL     1       0.001  -1.532  -4.951  0.00  0.00    +0.252 C 
ATOM     14  O   UNL     1       1.010  -1.169  -5.524  0.00  0.00    -0.270 OA
ATOM     15  N   UNL     1      -1.127  -1.762  -5.652  0.00  0.00    -0.297 N 
ATOM     16  C   UNL     1      -2.383  -2.086  -4.963  0.00  0.00    +0.111 C 
ATOM     17  C   UNL     1      -3.470  -1.117  -5.440  0.00  0.00    +0.004 C 
ATOM     18  C   UNL     1      -3.559  -1.169  -6.967  0.00  0.00    +0.009 C 
ATOM     19  C   UNL     1      -2.223  -0.732  -7.573  0.00  0.00    +0.004 C 
ATOM     20  C   UNL     1      -1.124  -1.690  -7.119  0.00  0.00    +0.111 C 
ATOM     21  C   UNL     1      -1.888   0.685  -7.101  0.00  0.00    +0.009 C 
ATOM     22  C   UNL     1      -4.816  -1.522  -4.836  0.00  0.00    +0.009 C 
ENDBRANCH   6  13
BRANCH  11  23
ATOM     23  C   UNL     1       0.060  -3.244   1.493  0.00  0.00    +0.068 A 
ATOM     24  C   UNL     1      -0.606  -4.407   1.130  0.00  0.00    +0.028 A 
ATOM     25  C   UNL     1      -0.581  -5.505   1.966  0.00  0.00    +0.002 A 
ATOM     26  C   UNL     1       0.106  -5.448   3.165  0.00  0.00    +0.000 A 
ATOM     27  C   UNL     1       0.770  -4.291   3.530  0.00  0.00    +0.002 A 
ATOM     28  C   UNL     1       0.755  -3.192   2.695  0.00  0.00    +0.028 A 
ENDBRANCH  11  23
TORSDOF 2
