REMARK  Name = ZINC63634572
REMARK  10 active torsions:
REMARK  status: ('A' for Active; 'I' for Inactive)
REMARK    1  A    between atoms: C_1  and  C_2
REMARK    2  A    between atoms: C_4  and  C_7
REMARK    3  A    between atoms: C_10  and  C_28
REMARK    4  A    between atoms: C_11  and  S_13
REMARK    5  A    between atoms: S_13  and  N_16
REMARK    6  A    between atoms: N_16  and  C_17
REMARK    7  A    between atoms: C_17  and  C_18
REMARK    8  A    between atoms: C_18  and  C_19
REMARK    9  A    between atoms: C_28  and  C_29
REMARK   10  A    between atoms: C_28  and  C_30
REMARK                            x       y       z     vdW  Elec       q    Type
REMARK                         _______ _______ _______ _____ _____    ______ ____
ROOT
ATOM      1  S   UNL     1       0.096  -7.179  -1.131  0.00  0.00    +0.059 S 
ATOM      2  O   UNL     1       0.012  -6.962   0.270  0.00  0.00    -0.153 OA
ATOM      3  O   UNL     1      -0.924  -7.846  -1.862  0.00  0.00    -0.153 OA
ENDROOT
BRANCH   1   8
ATOM      4  C   UNL     1       0.441  -3.204  -1.681  0.00  0.00    +0.022 A 
ATOM      5  C   UNL     1       0.607  -3.107  -3.063  0.00  0.00    +0.012 A 
ATOM      6  C   UNL     1       0.615  -4.249  -3.837  0.00  0.00    +0.006 A 
ATOM      7  C   UNL     1       0.459  -5.490  -3.245  0.00  0.00    -0.018 A 
ATOM      8  C   UNL     1       0.294  -5.594  -1.875  0.00  0.00    +0.109 A 
ATOM      9  C   UNL     1       0.290  -4.460  -1.090  0.00  0.00    +0.040 A 
BRANCH   4  13
ATOM     10  C   UNL     1       0.608   1.652  -0.217  0.00  0.00    +0.069 C 
ATOM     11  C   UNL     1       0.502   0.149  -0.181  0.00  0.00    +0.081 A 
ATOM     12  C   UNL     1       0.567  -0.706  -1.292  0.00  0.00    +0.075 A 
ATOM     13  C   UNL     1       0.431  -1.984  -0.846  0.00  0.00    +0.168 A 
ATOM     14  O   UNL     1       0.286  -1.939   0.491  0.00  0.00    -0.354 OA
ATOM     15  N   UNL     1       0.339  -0.580   0.887  0.00  0.00    -0.083 NA
ENDBRANCH   4  13
BRANCH   7  16
ATOM     16  C   UNL     1       0.468  -6.733  -4.096  0.00  0.00    +0.015 C 
ATOM     17  C   UNL     1      -0.752  -6.728  -5.019  0.00  0.00    +0.012 C 
ATOM     18  C   UNL     1       1.745  -6.766  -4.938  0.00  0.00    +0.012 C 
ENDBRANCH   7  16
ENDBRANCH   1   8
BRANCH   1  19
ATOM     19  N   UNL     1       1.497  -8.023  -1.397  0.00  0.00    -0.190 NA
ATOM     20  H   UNL     1       1.486  -8.816  -1.955  0.00  0.00    +0.148 HD
BRANCH  19  21
ATOM     21  C   UNL     1       2.750  -7.571  -0.788  0.00  0.00    +0.110 C 
BRANCH  21  22
ATOM     22  C   UNL     1       3.784  -8.697  -0.853  0.00  0.00    +0.063 C 
BRANCH  22  23
ATOM     23  C   UNL     1       5.093  -8.225  -0.217  0.00  0.00    +0.175 C 
ATOM     24  N   UNL     1       4.914  -8.040   1.228  0.00  0.00    -0.363 N 
ATOM     25  C   UNL     1       5.736  -8.850   1.831  0.00  0.00    +0.060 A 
ATOM     26  C   UNL     1       6.014  -9.119   3.248  0.00  0.00    +0.027 A 
ATOM     27  C   UNL     1       6.944 -10.037   3.581  0.00  0.00    +0.002 A 
ATOM     28  C   UNL     1       7.671 -10.761   2.620  0.00  0.00    +0.002 A 
ATOM     29  C   UNL     1       7.494 -10.593   1.295  0.00  0.00    +0.027 A 
ATOM     30  C   UNL     1       6.505  -9.618   0.814  0.00  0.00    +0.060 A 
ATOM     31  N   UNL     1       6.130  -9.252  -0.378  0.00  0.00    -0.363 N 
ATOM     32  H   UNL     1       4.296  -7.426   1.656  0.00  0.00    +0.162 HD
ATOM     33  H   UNL     1       6.472  -9.596  -1.218  0.00  0.00    +0.162 HD
ENDBRANCH  22  23
ENDBRANCH  21  22
ENDBRANCH  19  21
ENDBRANCH   1  19
TORSDOF 7
