REMARK  Name = ZINC19945414
REMARK  6 active torsions:
REMARK  status: ('A' for Active; 'I' for Inactive)
REMARK    1  A    between atoms: C_1  and  N_2
REMARK    2  A    between atoms: N_5  and  C_8
REMARK    3  A    between atoms: C_9  and  N_15
REMARK    4  A    between atoms: C_16  and  C_18
REMARK    5  A    between atoms: C_23  and  O_24
REMARK    6  A    between atoms: O_24  and  C_25
REMARK                            x       y       z     vdW  Elec       q    Type
REMARK                         _______ _______ _______ _____ _____    ______ ____
ROOT
ATOM      1  C   UNL     1       2.373   1.411  -0.029  0.00  0.00    +0.070 A 
ATOM      2  C   UNL     1       2.397   0.016  -0.030  0.00  0.00    +0.056 A 
ATOM      3  C   UNL     1       1.206  -0.694  -0.025  0.00  0.00    +0.025 A 
ATOM      4  C   UNL     1      -0.001  -0.021  -0.019  0.00  0.00    +0.003 A 
ATOM      5  C   UNL     1      -0.026   1.362  -0.018  0.00  0.00    +0.022 A 
ATOM      6  C   UNL     1       1.157   2.079  -0.022  0.00  0.00    +0.064 A 
ATOM      7 CL   UNL     1       1.120   3.815  -0.021  0.00  0.00    -0.082 Cl
ENDROOT
BRANCH   1  12
ATOM      8  C   UNL     1       6.420   5.254  -0.006  0.00  0.00    -0.096 C 
ATOM      9  N   UNL     1       5.162   4.495  -0.001  0.00  0.00    +0.380 N 
ATOM     10  C   UNL     1       5.018   3.705  -1.231  0.00  0.00    -0.060 C 
ATOM     11  C   UNL     1       3.662   2.994  -1.222  0.00  0.00    +0.086 C 
ATOM     12  N   UNL     1       3.572   2.134  -0.034  0.00  0.00    -0.331 N 
ATOM     13  C   UNL     1       3.716   2.923   1.197  0.00  0.00    +0.086 C 
ATOM     14  C   UNL     1       5.071   3.634   1.187  0.00  0.00    -0.060 C 
ATOM     15  H   UNL     1       4.333   5.217   0.039  0.00  0.00    -0.082 HD
ENDBRANCH   1  12
BRANCH   2  16
ATOM     16  N   UNL     1       3.621  -0.665  -0.037  0.00  0.00    -0.280 N 
ATOM     17  C   UNL     1       3.747  -1.833   0.625  0.00  0.00    +0.252 C 
ATOM     18  O   UNL     1       2.777  -2.336   1.159  0.00  0.00    -0.270 OA
ATOM     19  H   UNL     1       4.480  -0.247  -0.582  0.00  0.00    +0.155 HD
BRANCH  17  20
ATOM     20  C   UNL     1       5.060  -2.500   0.701  0.00  0.00    +0.081 A 
ATOM     21  C   UNL     1       6.176  -1.926   0.088  0.00  0.00    +0.032 A 
ATOM     22  C   UNL     1       7.401  -2.554   0.163  0.00  0.00    +0.020 A 
ATOM     23  C   UNL     1       7.530  -3.755   0.844  0.00  0.00    +0.034 A 
ATOM     24  C   UNL     1       6.434  -4.333   1.454  0.00  0.00    +0.061 A 
ATOM     25  C   UNL     1       5.195  -3.711   1.393  0.00  0.00    +0.146 A 
ATOM     26 BR   UNL     1       6.624  -5.971   2.380  0.00  0.00    -0.046 Br
ATOM     27 BR   UNL     1       8.911  -1.775  -0.666  0.00  0.00    -0.050 Br
BRANCH  25  28
ATOM     28  O   UNL     1       4.119  -4.276   1.996  0.00  0.00    -0.493 OA
ATOM     29  C   UNL     1       3.341  -5.186   1.215  0.00  0.00    +0.277 C 
ENDBRANCH  25  28
ENDBRANCH  17  20
ENDBRANCH   2  16
TORSDOF 4
