REMARK  Name = ZINC10156495
REMARK  6 active torsions:
REMARK  status: ('A' for Active; 'I' for Inactive)
REMARK    1  A    between atoms: C_1  and  C_2
REMARK    2  A    between atoms: C_5  and  N_9
REMARK    3  A    between atoms: C_7  and  C_8
REMARK    4  A    between atoms: C_18  and  C_20
REMARK    5  A    between atoms: C_20  and  S_21
REMARK    6  A    between atoms: S_21  and  C_22
REMARK                            x       y       z     vdW  Elec       q    Type
REMARK                         _______ _______ _______ _____ _____    ______ ____
ROOT
ATOM      1  N   UNL     1      -2.987  -0.989   0.266  0.00  0.00    -0.328 N 
ATOM      2  C   UNL     1      -2.181   0.027   0.724  0.00  0.00    +0.180 C 
ATOM      3  N   UNL     1      -1.064  -0.266   1.480  0.00  0.00    -0.298 N 
ATOM      4  C   UNL     1      -0.221   0.743   1.880  0.00  0.00    +0.211 A 
ATOM      5  N   UNL     1       0.876   0.441   2.625  0.00  0.00    -0.293 N 
ATOM      6  H   UNL     1       1.060  -0.479   2.870  0.00  0.00    +0.172 HD
ATOM      7  C   UNL     1       1.709   1.427   3.022  0.00  0.00    +0.253 A 
ATOM      8  O   UNL     1       2.698   1.174   3.690  0.00  0.00    -0.268 OA
ATOM      9  C   UNL     1       1.414   2.751   2.650  0.00  0.00    +0.094 A 
ATOM     10  C   UNL     1       0.299   2.993   1.902  0.00  0.00    +0.060 A 
ATOM     11  N   UNL     1      -0.490   1.986   1.536  0.00  0.00    -0.218 NA
ATOM     12  H   UNL     1      -3.818  -0.781  -0.189  0.00  0.00    +0.169 HD
ATOM     13  H   UNL     1      -3.271   1.578  -0.018  0.00  0.00    +0.159 HD
ATOM     14  H   UNL     1      -0.874  -1.184   1.730  0.00  0.00    +0.172 HD
ATOM     15  N   UNL     1      -2.418   1.305   0.469  0.00  0.00    -0.371 N 
ATOM     16  H   UNL     1      -1.742   2.021   0.762  0.00  0.00    +0.159 HD
ENDROOT
BRANCH   1  21
ATOM     17  C   UNL     1      -1.451  -6.396   1.035  0.00  0.00    +0.044 C 
ATOM     18  C   UNL     1      -1.859  -4.959   0.831  0.00  0.00    -0.047 A 
ATOM     19  C   UNL     1      -0.892  -3.982   0.676  0.00  0.00    +0.005 A 
ATOM     20  C   UNL     1      -1.263  -2.666   0.482  0.00  0.00    +0.026 A 
ATOM     21  C   UNL     1      -2.608  -2.322   0.456  0.00  0.00    +0.042 A 
ATOM     22  C   UNL     1      -3.576  -3.305   0.612  0.00  0.00    +0.029 A 
ATOM     23  C   UNL     1      -3.199  -4.621   0.798  0.00  0.00    -0.046 A 
ATOM     24  C   UNL     1      -4.249  -5.688   0.968  0.00  0.00    +0.044 C 
ENDBRANCH   1  21
BRANCH  10  25
ATOM     25  C   UNL     1      -0.039   4.402   1.490  0.00  0.00    +0.132 C 
BRANCH  25  26
ATOM     26  S   UNL     1       0.349   4.628  -0.263  0.00  0.00    -0.093 S 
BRANCH  26  27
ATOM     27  C   UNL     1      -0.130   6.311  -0.469  0.00  0.00    +0.136 A 
ATOM     28  N   UNL     1      -0.082   7.056  -1.551  0.00  0.00    -0.233 NA
ATOM     29  C   UNL     1      -0.487   8.344  -1.563  0.00  0.00    +0.079 A 
ATOM     30  C   UNL     1      -0.489   9.248  -2.650  0.00  0.00    +0.029 A 
ATOM     31  C   UNL     1      -0.940  10.533  -2.491  0.00  0.00    +0.002 A 
ATOM     32  C   UNL     1      -1.406  10.992  -1.268  0.00  0.00    +0.001 A 
ATOM     33  C   UNL     1      -1.418  10.134  -0.183  0.00  0.00    +0.017 A 
ATOM     34  C   UNL     1      -0.970   8.846  -0.333  0.00  0.00    +0.040 A 
ATOM     35  S   UNL     1      -0.812   7.438   0.739  0.00  0.00    -0.061 S 
ENDBRANCH  26  27
ENDBRANCH  25  26
ENDBRANCH  10  25
TORSDOF 4
