REMARK  Name = ZINC38546570
REMARK  9 active torsions:
REMARK  status: ('A' for Active; 'I' for Inactive)
REMARK    1  A    between atoms: C_1  and  C_2
REMARK    2  A    between atoms: C_2  and  N_3
REMARK    3  A    between atoms: N_6  and  C_9
REMARK    4  A    between atoms: C_9  and  C_11
REMARK    5  A    between atoms: C_9  and  C_19
REMARK    6  A    between atoms: C_15  and  O_17
REMARK    7  A    between atoms: O_17  and  C_18
REMARK    8  A    between atoms: C_23  and  N_24
REMARK    9  A    between atoms: C_25  and  C_27
REMARK                            x       y       z     vdW  Elec       q    Type
REMARK                         _______ _______ _______ _____ _____    ______ ____
ROOT
ATOM      1  C   UNL     1      -4.918  -2.592  -1.132  0.00  0.00    +0.120 C 
ENDROOT
BRANCH   1   2
ATOM      2  C   UNL     1      -4.886  -4.093  -1.272  0.00  0.00    +0.006 A 
ATOM      3  C   UNL     1      -5.567  -4.711  -2.321  0.00  0.00    -0.030 A 
ATOM      4  C   UNL     1      -5.491  -6.068  -2.380  0.00  0.00    -0.005 A 
ATOM      5  S   UNL     1      -4.480  -6.499  -0.989  0.00  0.00    -0.078 S 
ATOM      6  C   UNL     1      -4.190  -4.846  -0.379  0.00  0.00    +0.078 A 
ATOM      7  C   UNL     1      -6.121  -6.973  -3.389  0.00  0.00    +0.043 C 
ATOM      8  C   UNL     1      -7.183  -6.172  -4.159  0.00  0.00    +0.005 C 
ATOM      9  C   UNL     1      -6.574  -4.835  -4.589  0.00  0.00    +0.005 C 
ATOM     10  C   UNL     1      -6.364  -3.939  -3.368  0.00  0.00    +0.036 C 
BRANCH   6  11
ATOM     11  N   UNL     1      -3.445  -4.434   0.728  0.00  0.00    -0.273 N 
ATOM     12  C   UNL     1      -2.918  -5.350   1.564  0.00  0.00    +0.284 C 
ATOM     13  O   UNL     1      -3.093  -6.536   1.355  0.00  0.00    -0.266 OA
ATOM     14  H   UNL     1      -3.306  -3.488   0.894  0.00  0.00    +0.156 HD
BRANCH  12  15
ATOM     15  C   UNL     1      -2.135  -4.917   2.726  0.00  0.00    +0.189 A 
ATOM     16  C   UNL     1      -1.545  -5.736   3.646  0.00  0.00    +0.054 A 
ATOM     17  C   UNL     1      -0.905  -4.902   4.576  0.00  0.00    +0.042 A 
ATOM     18  C   UNL     1      -1.130  -3.628   4.189  0.00  0.00    +0.196 A 
ATOM     19  O   UNL     1      -1.868  -3.641   3.071  0.00  0.00    -0.458 OA
ENDBRANCH  12  15
ENDBRANCH   6  11
ENDBRANCH   1   2
BRANCH   1  23
ATOM     20  N   UNL     1      -1.190  -0.609  -1.320  0.00  0.00    +0.381 N 
ATOM     21  C   UNL     1      -1.197  -2.075  -1.406  0.00  0.00    -0.063 C 
ATOM     22  C   UNL     1      -2.593  -2.556  -1.809  0.00  0.00    +0.067 C 
ATOM     23  N   UNL     1      -3.571  -2.102  -0.810  0.00  0.00    -0.295 NA
ATOM     24  C   UNL     1      -3.558  -0.637  -0.695  0.00  0.00    +0.067 C 
ATOM     25  C   UNL     1      -2.154  -0.172  -0.301  0.00  0.00    -0.063 C 
ATOM     26  H   UNL     1      -1.446  -0.219  -2.214  0.00  0.00    -0.082 HD
BRANCH  20  28
ATOM     27  C   UNL     1       1.138  -0.493  -2.071  0.00  0.00    -0.017 C 
ATOM     28  C   UNL     1       0.155  -0.147  -0.951  0.00  0.00    -0.082 C 
ENDBRANCH  20  28
ENDBRANCH   1  23
BRANCH   1  29
ATOM     29  C   UNL     1      -5.869  -2.211  -0.027  0.00  0.00    -0.022 A 
ATOM     30  C   UNL     1      -5.416  -2.130   1.277  0.00  0.00    +0.006 A 
ATOM     31  C   UNL     1      -6.285  -1.780   2.293  0.00  0.00    +0.004 A 
ATOM     32  C   UNL     1      -7.610  -1.511   2.008  0.00  0.00    +0.045 A 
ATOM     33  C   UNL     1      -8.067  -1.591   0.701  0.00  0.00    +0.120 A 
ATOM     34  C   UNL     1      -7.191  -1.936  -0.318  0.00  0.00    +0.051 A 
BRANCH  33  35
ATOM     35  O   UNL     1      -9.370  -1.326   0.418  0.00  0.00    -0.495 OA
ATOM     36  C   UNL     1     -10.213  -0.972   1.516  0.00  0.00    +0.277 C 
ENDBRANCH  33  35
ENDBRANCH   1  29
TORSDOF 7
