REMARK  Name = ZINC36637421
REMARK  11 active torsions:
REMARK  status: ('A' for Active; 'I' for Inactive)
REMARK    1  A    between atoms: C_1  and  C_2
REMARK    2  A    between atoms: C_2  and  C_3
REMARK    3  A    between atoms: N_9  and  S_10
REMARK    4  A    between atoms: S_10  and  C_13
REMARK    5  A    between atoms: C_16  and  C_19
REMARK    6  A    between atoms: N_21  and  C_22
REMARK    7  A    between atoms: C_22  and  C_23
REMARK    8  A    between atoms: C_23  and  N_24
REMARK    9  A    between atoms: N_24  and  C_25
REMARK   10  A    between atoms: N_24  and  C_26
REMARK   11  A    between atoms: C_30  and  C_36
REMARK                            x       y       z     vdW  Elec       q    Type
REMARK                         _______ _______ _______ _____ _____    ______ ____
ROOT
ATOM      1  C   UNL     1      -3.065   6.638   1.018  0.00  0.00    +0.252 C 
ATOM      2  O   UNL     1      -2.386   7.286   0.246  0.00  0.00    -0.270 OA
ATOM      3  N   UNL     1      -4.102   7.218   1.654  0.00  0.00    -0.248 N 
ATOM      4  C   UNL     1      -4.484   8.506   1.322  0.00  0.00    +0.168 A 
ATOM      5  N   UNL     1      -3.969   9.312   0.422  0.00  0.00    -0.224 NA
ATOM      6  C   UNL     1      -4.449  10.555   0.202  0.00  0.00    +0.083 A 
ATOM      7  C   UNL     1      -3.989  11.516  -0.728  0.00  0.00    -0.024 A 
ATOM      8  C   UNL     1      -4.593  12.742  -0.824  0.00  0.00    +0.005 A 
ATOM      9  C   UNL     1      -5.670  13.085  -0.019  0.00  0.00    +0.001 A 
ATOM     10  C   UNL     1      -6.145  12.170   0.902  0.00  0.00    +0.017 A 
ATOM     11  C   UNL     1      -5.546  10.940   1.006  0.00  0.00    +0.041 A 
ATOM     12  S   UNL     1      -5.809   9.493   2.004  0.00  0.00    -0.052 S 
ATOM     13  C   UNL     1      -2.823  11.188  -1.624  0.00  0.00    +0.046 C 
ENDROOT
BRANCH   1  17
ATOM     14  C   UNL     1      -2.170   2.544   1.712  0.00  0.00    +0.106 A 
ATOM     15  C   UNL     1      -2.614   3.338   2.754  0.00  0.00    +0.029 A 
ATOM     16  C   UNL     1      -2.906   4.669   2.536  0.00  0.00    +0.015 A 
ATOM     17  C   UNL     1      -2.753   5.213   1.259  0.00  0.00    +0.037 A 
ATOM     18  C   UNL     1      -2.305   4.406   0.212  0.00  0.00    +0.015 A 
ATOM     19  C   UNL     1      -2.011   3.079   0.445  0.00  0.00    +0.029 A 
BRANCH  14  20
ATOM     20  S   UNL     1      -1.800   0.846   1.999  0.00  0.00    +0.061 S 
ATOM     21  O   UNL     1      -2.081   0.158   0.788  0.00  0.00    -0.153 OA
ATOM     22  O   UNL     1      -2.414   0.499   3.233  0.00  0.00    -0.153 OA
BRANCH  20  28
ATOM     23  C   UNL     1       0.424   1.047   3.547  0.00  0.00    +0.080 C 
ATOM     24  C   UNL     1       1.285  -0.137   3.999  0.00  0.00    +0.021 C 
ATOM     25  C   UNL     1       2.310  -0.462   2.910  0.00  0.00    +0.003 C 
ATOM     26  C   UNL     1       1.583  -0.856   1.623  0.00  0.00    +0.017 C 
ATOM     27  C   UNL     1       0.726   0.320   1.144  0.00  0.00    +0.110 C 
ATOM     28  N   UNL     1      -0.164   0.735   2.237  0.00  0.00    -0.174 NA
BRANCH  23  30
ATOM     29  C   UNL     1      -0.082   1.764   5.886  0.00  0.00    +0.005 C 
ATOM     30  C   UNL     1      -0.691   1.288   4.566  0.00  0.00    +0.017 C 
ENDBRANCH  23  30
ENDBRANCH  20  28
ENDBRANCH  14  20
ENDBRANCH   1  17
BRANCH   3  31
ATOM     31  C   UNL     1      -4.824   6.485   2.696  0.00  0.00    +0.097 C 
BRANCH  31  32
ATOM     32  C   UNL     1      -4.309   6.915   4.072  0.00  0.00    -0.060 C 
BRANCH  32  33
ATOM     33  N   UNL     1      -4.937   6.086   5.110  0.00  0.00    +0.377 N 
ATOM     34  C   UNL     1      -4.355   6.416   6.418  0.00  0.00    -0.097 C 
ATOM     35  C   UNL     1      -6.382   6.347   5.137  0.00  0.00    -0.097 C 
ATOM     36  H   UNL     1      -4.775   5.111   4.906  0.00  0.00    -0.083 HD
ENDBRANCH  32  33
ENDBRANCH  31  32
ENDBRANCH   3  31
TORSDOF 7
