REMARK  Name = ZINC03205163
REMARK  9 active torsions:
REMARK  status: ('A' for Active; 'I' for Inactive)
REMARK    1  A    between atoms: C_6  and  C_7
REMARK    2  A    between atoms: C_7  and  C_8
REMARK    3  A    between atoms: C_7  and  O_15
REMARK    4  A    between atoms: O_15  and  C_16
REMARK    5  A    between atoms: C_16  and  C_17
REMARK    6  A    between atoms: C_17  and  C_19
REMARK    7  A    between atoms: C_17  and  O_32
REMARK    8  A    between atoms: C_19  and  N_60
REMARK    9  A    between atoms: N_22  and  C_25
REMARK                            x       y       z     vdW  Elec       q    Type
REMARK                         _______ _______ _______ _____ _____    ______ ____
ROOT
ATOM      1  C   UNL     1      -1.067   1.262  -3.587  0.00  0.00    +0.124 C 
ENDROOT
BRANCH   1   2
ATOM      2  O   UNL     1      -1.158   2.656  -3.889  0.00  0.00    -0.391 OA
ATOM      3  H   UNL     1      -0.315   3.062  -4.133  0.00  0.00    +0.210 HD
ENDBRANCH   1   2
BRANCH   1   4
ATOM      4  C   UNL     1      -0.542   0.509  -4.811  0.00  0.00    +0.190 C 
BRANCH   4   5
ATOM      5  O   UNL     1      -1.493   0.604  -5.873  0.00  0.00    -0.365 OA
BRANCH   5   6
ATOM      6  C   UNL     1      -1.097  -0.069  -7.069  0.00  0.00    +0.178 C 
BRANCH   6  12
ATOM      7  C   UNL     1      -2.845  -1.776  -6.524  0.00  0.00    +0.008 A 
ATOM      8  C   UNL     1      -3.300  -3.081  -6.493  0.00  0.00    +0.020 A 
ATOM      9  C   UNL     1      -2.495  -4.105  -6.959  0.00  0.00    +0.041 A 
ATOM     10  C   UNL     1      -1.237  -3.822  -7.461  0.00  0.00    +0.020 A 
ATOM     11  C   UNL     1      -0.786  -2.516  -7.496  0.00  0.00    +0.008 A 
ATOM     12  C   UNL     1      -1.591  -1.493  -7.030  0.00  0.00    -0.014 A 
ATOM     13 CL   UNL     1      -3.063  -5.745  -6.915  0.00  0.00    -0.084 Cl
ENDBRANCH   6  12
BRANCH   6  14
ATOM     14  C   UNL     1      -1.691   0.635  -8.262  0.00  0.00    -0.014 A 
ATOM     15  C   UNL     1      -2.946   1.206  -8.173  0.00  0.00    +0.008 A 
ATOM     16  C   UNL     1      -3.488   1.858  -9.265  0.00  0.00    +0.020 A 
ATOM     17  C   UNL     1      -2.779   1.928 -10.451  0.00  0.00    +0.041 A 
ATOM     18  C   UNL     1      -1.525   1.351 -10.541  0.00  0.00    +0.020 A 
ATOM     19  C   UNL     1      -0.981   0.705  -9.447  0.00  0.00    +0.008 A 
ATOM     20 CL   UNL     1      -3.462   2.740 -11.825  0.00  0.00    -0.084 Cl
ENDBRANCH   6  14
ENDBRANCH   5   6
ENDBRANCH   4   5
ENDBRANCH   1   4
BRANCH   1  21
ATOM     21  C   UNL     1      -0.109   1.057  -2.412  0.00  0.00    -0.045 C 
BRANCH  21  27
ATOM     22  C   UNL     1      -1.753   0.958  -0.637  0.00  0.00    -0.060 C 
ATOM     23  C   UNL     1      -2.335   1.726   0.552  0.00  0.00    +0.086 C 
ATOM     24  N   UNL     1      -1.278   1.958   1.547  0.00  0.00    -0.333 N 
ATOM     25  C   UNL     1      -0.169   2.727   0.964  0.00  0.00    +0.086 C 
ATOM     26  C   UNL     1       0.412   1.958  -0.225  0.00  0.00    -0.060 C 
ATOM     27  N   UNL     1      -0.655   1.752  -1.227  0.00  0.00    +0.383 N 
ATOM     28  H   UNL     1      -1.022   2.666  -1.516  0.00  0.00    -0.082 HD
BRANCH  24  29
ATOM     29  C   UNL     1      -1.788   2.596   2.681  0.00  0.00    +0.030 A 
ATOM     30  C   UNL     1      -1.236   3.795   3.113  0.00  0.00    +0.026 A 
ATOM     31  C   UNL     1      -1.745   4.426   4.231  0.00  0.00    +0.040 A 
ATOM     32  C   UNL     1      -2.798   3.858   4.928  0.00  0.00    +0.124 A 
ATOM     33  C   UNL     1      -3.347   2.660   4.503  0.00  0.00    +0.040 A 
ATOM     34  C   UNL     1      -2.844   2.029   3.382  0.00  0.00    +0.026 A 
ATOM     35  F   UNL     1      -3.291   4.475   6.024  0.00  0.00    -0.205 F 
ENDBRANCH  24  29
ENDBRANCH  21  27
ENDBRANCH   1  21
TORSDOF 9
