REMARK  Name = ZINC21319200
REMARK  11 active torsions:
REMARK  status: ('A' for Active; 'I' for Inactive)
REMARK    1  A    between atoms: C_1  and  C_2
REMARK    2  A    between atoms: C_2  and  O_3
REMARK    3  A    between atoms: O_3  and  C_4
REMARK    4  A    between atoms: C_7  and  N_10
REMARK    5  A    between atoms: C_11  and  C_13
REMARK    6  A    between atoms: C_13  and  S_14
REMARK    7  A    between atoms: S_14  and  C_15
REMARK    8  A    between atoms: N_19  and  N_20
REMARK    9  A    between atoms: N_21  and  N_22
REMARK   10  A    between atoms: C_23  and  C_24
REMARK   11  A    between atoms: C_29  and  O_30
REMARK                            x       y       z     vdW  Elec       q    Type
REMARK                         _______ _______ _______ _____ _____    ______ ____
ROOT
ATOM      1  C   UNL     1       3.977  -6.573  -0.530  0.00  0.00    +0.210 A 
ATOM      2  N   UNL     1       2.855  -7.252  -0.518  0.00  0.00    -0.119 NA
ATOM      3  N   UNL     1       3.170  -8.611  -0.648  0.00  0.00    -0.109 NA
ATOM      4  C   UNL     1       4.474  -8.719  -0.728  0.00  0.00    +0.254 A 
ATOM      5  N   UNL     1       5.007  -7.461  -0.657  0.00  0.00    -0.211 N 
ATOM      6  N   UNL     1       5.187  -9.901  -0.861  0.00  0.00    -0.204 N 
ATOM      7  H   UNL     1       6.286  -9.876  -0.919  0.00  0.00    +0.177 HD
ENDROOT
BRANCH   5   8
ATOM      8  N   UNL     1       6.336  -7.149  -0.706  0.00  0.00    -0.294 N 
ATOM      9  H   UNL     1       7.085  -7.947  -0.810  0.00  0.00    +0.163 HD
ATOM     10  H   UNL     1       6.656  -6.099  -0.640  0.00  0.00    +0.163 HD
ENDBRANCH   5   8
BRANCH   6  11
ATOM     11  N   UNL     1       4.510 -11.125  -0.922  0.00  0.00    -0.187 NA
ATOM     12  C   UNL     1       5.178 -12.232  -1.046  0.00  0.00    +0.142 C 
BRANCH  12  13
ATOM     13  C   UNL     1       4.465 -13.520  -1.110  0.00  0.00    +0.037 A 
ATOM     14  C   UNL     1       5.180 -14.712  -1.244  0.00  0.00    +0.028 A 
ATOM     15  C   UNL     1       4.506 -15.915  -1.303  0.00  0.00    +0.019 A 
ATOM     16  C   UNL     1       3.123 -15.945  -1.230  0.00  0.00    +0.019 A 
ATOM     17  C   UNL     1       2.405 -14.771  -1.097  0.00  0.00    +0.047 A 
ATOM     18  C   UNL     1       3.066 -13.556  -1.031  0.00  0.00    +0.126 A 
ATOM     19 BR   UNL     1       5.474 -17.529  -1.484  0.00  0.00    -0.050 Br
BRANCH  18  20
ATOM     20  O   UNL     1       2.361 -12.402  -0.895  0.00  0.00    -0.506 OA
ATOM     21  H   UNL     1       1.263 -12.433  -0.833  0.00  0.00    +0.292 HD
ENDBRANCH  18  20
ENDBRANCH  12  13
ENDBRANCH   6  11
BRANCH   1  22
ATOM     22  S   UNL     1       4.130  -4.822  -0.398  0.00  0.00    -0.075 S 
BRANCH  22  23
ATOM     23  C   UNL     1       2.417  -4.241  -0.258  0.00  0.00    +0.173 C 
BRANCH  23  25
ATOM     24  N   UNL     1       1.234  -2.083  -0.020  0.00  0.00    -0.285 N 
ATOM     25  C   UNL     1       2.405  -2.739  -0.137  0.00  0.00    +0.227 C 
ATOM     26  O   UNL     1       3.449  -2.122  -0.144  0.00  0.00    -0.275 OA
ATOM     27  H   UNL     1       0.294  -2.646   0.073  0.00  0.00    +0.155 HD
BRANCH  24  31
ATOM     28  C   UNL     1       1.173   2.087  -0.017  0.00  0.00    +0.121 A 
ATOM     29  C   UNL     1       2.117   1.408  -0.773  0.00  0.00    +0.047 A 
ATOM     30  C   UNL     1       2.138   0.027  -0.775  0.00  0.00    +0.027 A 
ATOM     31  C   UNL     1       1.213  -0.681  -0.019  0.00  0.00    +0.034 A 
ATOM     32  C   UNL     1       0.269  -0.001   0.738  0.00  0.00    +0.027 A 
ATOM     33  C   UNL     1       0.249   1.379   0.739  0.00  0.00    +0.047 A 
BRANCH  28  34
ATOM     34  O   UNL     1       1.153   3.446  -0.015  0.00  0.00    -0.492 OA
BRANCH  34  36
ATOM     35  C   UNL     1       0.288   5.599   0.662  0.00  0.00    +0.048 C 
ATOM     36  C   UNL     1       0.154   4.080   0.786  0.00  0.00    +0.225 C 
ENDBRANCH  34  36
ENDBRANCH  28  34
ENDBRANCH  24  31
ENDBRANCH  23  25
ENDBRANCH  22  23
ENDBRANCH   1  22
TORSDOF 10
