REMARK  Name = ZINC40679377
REMARK  8 active torsions:
REMARK  status: ('A' for Active; 'I' for Inactive)
REMARK    1  A    between atoms: C_1  and  C_2
REMARK    2  A    between atoms: C_2  and  N_3
REMARK    3  A    between atoms: N_3  and  C_4
REMARK    4  A    between atoms: C_11  and  N_25
REMARK    5  A    between atoms: C_12  and  N_16
REMARK    6  A    between atoms: N_16  and  C_17
REMARK    7  A    between atoms: C_19  and  C_24
REMARK    8  A    between atoms: C_21  and  C_23
REMARK                            x       y       z     vdW  Elec       q    Type
REMARK                         _______ _______ _______ _____ _____    ______ ____
ROOT
ATOM      1  N   UNL     1       1.376   0.809  -2.026  0.00  0.00    -0.284 N 
ATOM      2  C   UNL     1       0.588   0.346  -3.074  0.00  0.00    +0.151 A 
ATOM      3  C   UNL     1       1.001  -0.743  -3.844  0.00  0.00    +0.104 A 
ATOM      4  C   UNL     1       0.171  -1.167  -4.883  0.00  0.00    +0.126 A 
ATOM      5  N   UNL     1      -0.974  -0.523  -5.099  0.00  0.00    -0.333 N 
ATOM      6  C   UNL     1      -1.326   0.501  -4.348  0.00  0.00    +0.200 A 
ATOM      7  N   UNL     1      -0.575   0.930  -3.354  0.00  0.00    -0.220 NA
ATOM      8  H   UNL     1      -1.556  -0.811  -5.819  0.00  0.00    +0.168 HD
ENDROOT
BRANCH   1   9
ATOM      9  C   UNL     1       2.295   1.839  -2.246  0.00  0.00    +0.035 A 
ATOM     10  C   UNL     1       3.059   2.327  -1.193  0.00  0.00    +0.023 A 
ATOM     11  C   UNL     1       3.966   3.344  -1.414  0.00  0.00    +0.002 A 
ATOM     12  C   UNL     1       4.116   3.877  -2.681  0.00  0.00    +0.000 A 
ATOM     13  C   UNL     1       3.357   3.393  -3.732  0.00  0.00    +0.002 A 
ATOM     14  C   UNL     1       2.452   2.373  -3.519  0.00  0.00    +0.023 A 
ENDBRANCH   1   9
BRANCH   3  15
ATOM     15  N   UNL     1       2.217  -1.393  -3.581  0.00  0.00    -0.353 N 
ATOM     16  H   UNL     1       2.725  -1.167  -2.786  0.00  0.00    +0.143 HD
ATOM     17  H   UNL     1       2.550  -2.066  -4.195  0.00  0.00    +0.143 HD
ENDBRANCH   3  15
BRANCH   1  19
ATOM     18  C   UNL     1       0.185   0.986   0.102  0.00  0.00    +0.025 C 
ATOM     19  C   UNL     1       1.243   0.218  -0.693  0.00  0.00    +0.109 C 
ENDBRANCH   1  19
BRANCH   4  20
ATOM     20  N   UNL     1       0.535  -2.247  -5.681  0.00  0.00    -0.299 N 
ATOM     21  H   UNL     1       1.325  -2.766  -5.465  0.00  0.00    +0.154 HD
BRANCH  20  22
ATOM     22  C   UNL     1      -0.238  -2.583  -6.796  0.00  0.00    +0.033 A 
ATOM     23  C   UNL     1      -0.787  -1.584  -7.590  0.00  0.00    +0.026 A 
ATOM     24  C   UNL     1      -1.550  -1.920  -8.691  0.00  0.00    -0.048 A 
ATOM     25  C   UNL     1      -1.768  -3.250  -9.003  0.00  0.00    +0.006 A 
ATOM     26  C   UNL     1      -1.224  -4.247  -8.215  0.00  0.00    -0.048 A 
ATOM     27  C   UNL     1      -0.455  -3.918  -7.116  0.00  0.00    +0.026 A 
ATOM     28  C   UNL     1      -1.464  -5.694  -8.559  0.00  0.00    +0.044 C 
ATOM     29  C   UNL     1      -2.145  -0.837  -9.553  0.00  0.00    +0.044 C 
ENDBRANCH  20  22
ENDBRANCH   4  20
TORSDOF 5
