REMARK  Name = ZINC66595884
REMARK  10 active torsions:
REMARK  status: ('A' for Active; 'I' for Inactive)
REMARK    1  A    between atoms: C_1  and  C_2
REMARK    2  A    between atoms: C_2  and  C_3
REMARK    3  A    between atoms: C_3  and  C_4
REMARK    4  A    between atoms: C_4  and  N_5
REMARK    5  A    between atoms: C_10  and  C_12
REMARK    6  A    between atoms: C_12  and  N_13
REMARK    7  A    between atoms: N_16  and  C_17
REMARK    8  A    between atoms: C_17  and  C_18
REMARK    9  A    between atoms: C_21  and  S_23
REMARK   10  A    between atoms: S_23  and  N_26
REMARK                            x       y       z     vdW  Elec       q    Type
REMARK                         _______ _______ _______ _____ _____    ______ ____
ROOT
ATOM      1  N   UNL     1      -2.574  -4.071   2.445  0.00  0.00    -0.301 N 
ATOM      2  C   UNL     1      -1.974  -4.309   3.627  0.00  0.00    +0.300 C 
ATOM      3  O   UNL     1      -0.921  -4.915   3.664  0.00  0.00    -0.253 OA
ATOM      4  N   UNL     1      -2.541  -3.873   4.770  0.00  0.00    -0.295 N 
ATOM      5  H   UNL     1      -3.414  -3.587   2.416  0.00  0.00    +0.150 HD
ATOM      6  H   UNL     1      -3.381  -3.389   4.741  0.00  0.00    +0.151 HD
ENDROOT
BRANCH   1   7
ATOM      7  C   UNL     1      -1.958  -4.544   1.202  0.00  0.00    +0.090 C 
BRANCH   7  13
ATOM      8  N   UNL     1      -2.900  -2.579   0.086  0.00  0.00    +0.383 N 
ATOM      9  C   UNL     1      -3.610  -2.078  -1.096  0.00  0.00    -0.078 C 
ATOM     10  C   UNL     1      -5.032  -2.644  -1.120  0.00  0.00    -0.019 C 
ATOM     11  C   UNL     1      -4.965  -4.173  -1.173  0.00  0.00    -0.003 C 
ATOM     12  C   UNL     1      -4.158  -4.681   0.025  0.00  0.00    -0.014 C 
ATOM     13  C   UNL     1      -2.769  -4.039   0.007  0.00  0.00    -0.051 C 
ATOM     14  H   UNL     1      -3.417  -2.334   0.917  0.00  0.00    -0.081 HD
BRANCH   8  15
ATOM     15  C   UNL     1      -1.563  -1.972   0.147  0.00  0.00    -0.078 C 
BRANCH  15  16
ATOM     16  C   UNL     1      -1.698  -0.464   0.367  0.00  0.00    -0.019 C 
BRANCH  16  18
ATOM     17  C   UNL     1      -0.441   1.677   0.650  0.00  0.00    +0.004 C 
ATOM     18  C   UNL     1      -0.306   0.169   0.430  0.00  0.00    -0.005 C 
ENDBRANCH  16  18
ENDBRANCH  15  16
ENDBRANCH   8  15
ENDBRANCH   7  13
ENDBRANCH   1   7
BRANCH   4  19
ATOM     19  C   UNL     1      -1.888  -4.132   6.056  0.00  0.00    +0.148 C 
BRANCH  19  20
ATOM     20  C   UNL     1      -2.719  -3.546   7.168  0.00  0.00    +0.009 A 
ATOM     21  C   UNL     1      -3.713  -4.125   7.887  0.00  0.00    +0.015 A 
ATOM     22  C   UNL     1      -4.344  -3.388   8.871  0.00  0.00    +0.036 A 
ATOM     23  C   UNL     1      -3.951  -2.109   9.090  0.00  0.00    +0.142 A 
ATOM     24  S   UNL     1      -2.646  -1.914   7.887  0.00  0.00    -0.072 S 
BRANCH  23  25
ATOM     25  S   UNL     1      -4.564  -0.945  10.261  0.00  0.00    +0.062 S 
ATOM     26  O   UNL     1      -4.258   0.345   9.749  0.00  0.00    -0.153 OA
ATOM     27  O   UNL     1      -5.891  -1.345  10.575  0.00  0.00    -0.153 OA
BRANCH  25  28
ATOM     28  N   UNL     1      -3.674  -1.128  11.645  0.00  0.00    -0.203 NA
ATOM     29  H   UNL     1      -3.524  -0.368  12.230  0.00  0.00    +0.144 HD
ATOM     30  H   UNL     1      -3.302  -1.994  11.872  0.00  0.00    +0.144 HD
ENDBRANCH  25  28
ENDBRANCH  23  25
ENDBRANCH  19  20
ENDBRANCH   4  19
TORSDOF 9
