REMARK  Name = ZINC05053205
REMARK  4 active torsions:
REMARK  status: ('A' for Active; 'I' for Inactive)
REMARK    1  A    between atoms: C_1  and  C_2
REMARK    2  A    between atoms: C_2  and  N_51
REMARK    3  A    between atoms: C_6  and  N_9
REMARK    4  A    between atoms: C_12  and  C_29
REMARK                            x       y       z     vdW  Elec       q    Type
REMARK                         _______ _______ _______ _____ _____    ______ ____
ROOT
ATOM      1  N   UNL     1       3.719   9.402   0.021  0.00  0.00    -0.328 N 
ATOM      2  C   UNL     1       2.984   8.227   0.021  0.00  0.00    +0.124 A 
ATOM      3  C   UNL     1       1.588   8.264   0.035  0.00  0.00    +0.066 A 
ATOM      4  C   UNL     1       0.897   7.069   0.034  0.00  0.00    +0.045 A 
ATOM      5  N   UNL     1       1.574   5.929   0.015  0.00  0.00    -0.219 NA
ATOM      6  C   UNL     1       2.898   5.924   0.008  0.00  0.00    +0.224 A 
ATOM      7  N   UNL     1       3.598   7.048   0.008  0.00  0.00    -0.199 NA
ATOM      8  N   UNL     1       3.569   4.710  -0.006  0.00  0.00    -0.254 N 
ATOM      9  C   UNL     1       2.856   3.526  -0.006  0.00  0.00    +0.200 A 
ATOM     10  N   UNL     1       1.494   3.431   0.006  0.00  0.00    -0.326 N 
ATOM     11  H   UNL     1       0.846   4.193   0.017  0.00  0.00    +0.169 HD
ATOM     12  C   UNL     1       1.177   2.083   0.002  0.00  0.00    +0.069 A 
ATOM     13  C   UNL     1      -0.017   1.376   0.010  0.00  0.00    +0.049 A 
ATOM     14  C   UNL     1       0.002  -0.004   0.002  0.00  0.00    +0.061 A 
ATOM     15  C   UNL     1       1.210  -0.691  -0.013  0.00  0.00    +0.061 A 
ATOM     16  C   UNL     1       2.404  -0.003  -0.021  0.00  0.00    +0.051 A 
ATOM     17  C   UNL     1       2.400   1.394  -0.013  0.00  0.00    +0.092 A 
ATOM     18  N   UNL     1       3.386   2.329  -0.018  0.00  0.00    -0.214 NA
ATOM     19 CL   UNL     1       1.214  -2.427  -0.023  0.00  0.00    -0.082 Cl
ATOM     20 CL   UNL     1      -1.492  -0.887   0.011  0.00  0.00    -0.082 Cl
ATOM     21  C   UNL     1      -0.610   7.059   0.048  0.00  0.00    +0.066 C 
ATOM     22  H   UNL     1       4.688   9.368   0.011  0.00  0.00    +0.148 HD
ATOM     23  H   UNL     1       4.539   4.692  -0.015  0.00  0.00    +0.158 HD
ENDROOT
BRANCH   1  27
ATOM     24  C   UNL     1       2.957  13.488  -0.731  0.00  0.00    -0.079 C 
ATOM     25  C   UNL     1       2.007  12.479  -1.379  0.00  0.00    -0.017 C 
ATOM     26  C   UNL     1       2.671  11.099  -1.397  0.00  0.00    +0.018 C 
ATOM     27  C   UNL     1       3.031  10.696   0.035  0.00  0.00    +0.055 C 
ATOM     28  C   UNL     1       3.952  11.757   0.642  0.00  0.00    -0.056 C 
ATOM     29  N   UNL     1       3.246  13.055   0.653  0.00  0.00    +0.381 N 
ATOM     30  H   UNL     1       2.360  12.948   1.160  0.00  0.00    -0.082 HD
BRANCH  29  32
ATOM     31  C   UNL     1       3.460  15.455   1.101  0.00  0.00    -0.017 C 
ATOM     32  C   UNL     1       4.071  14.072   1.338  0.00  0.00    -0.082 C 
ENDBRANCH  29  32
ENDBRANCH   1  27
TORSDOF 2
