REMARK  Name = ZINC43286702
REMARK  9 active torsions:
REMARK  status: ('A' for Active; 'I' for Inactive)
REMARK    1  A    between atoms: C_1  and  C_2
REMARK    2  A    between atoms: C_2  and  C_3
REMARK    3  A    between atoms: C_3  and  C_5
REMARK    4  A    between atoms: C_3  and  N_23
REMARK    5  A    between atoms: C_5  and  C_7
REMARK    6  A    between atoms: C_5  and  N_13
REMARK    7  A    between atoms: N_13  and  C_14
REMARK    8  A    between atoms: N_13  and  C_15
REMARK    9  A    between atoms: C_15  and  C_16
REMARK                            x       y       z     vdW  Elec       q    Type
REMARK                         _______ _______ _______ _____ _____    ______ ____
ROOT
ATOM      1  C   UNL     1       0.571  -1.748   1.641  0.00  0.00    -0.014 C 
ENDROOT
BRANCH   1   2
ATOM      2  C   UNL     1       0.744  -2.226   3.060  0.00  0.00    -0.021 A 
ATOM      3  C   UNL     1       1.877  -2.595   3.704  0.00  0.00    +0.025 A 
ATOM      4  C   UNL     1       1.796  -3.004   5.023  0.00  0.00    +0.025 A 
ATOM      5  C   UNL     1       0.585  -3.023   5.631  0.00  0.00    +0.060 A 
ATOM      6  S   UNL     1      -0.491  -2.444   4.330  0.00  0.00    -0.102 S 
ATOM      7 BR   UNL     1       3.351  -3.529   5.962  0.00  0.00    -0.050 Br
ENDBRANCH   1   2
BRANCH   1   8
ATOM      8  N   UNL     1      -0.654  -2.328   1.075  0.00  0.00    +0.385 N 
ATOM      9  C   UNL     1      -0.793  -1.906  -0.326  0.00  0.00    -0.095 C 
ATOM     10  H   UNL     1      -1.452  -2.009   1.603  0.00  0.00    -0.081 HD
BRANCH   8  11
ATOM     11  C   UNL     1      -0.578  -3.793   1.140  0.00  0.00    -0.046 C 
BRANCH  11  12
ATOM     12  C   UNL     1      -1.920  -4.393   0.714  0.00  0.00    +0.102 C 
ATOM     13  C   UNL     1      -1.899  -5.906   0.944  0.00  0.00    +0.030 C 
ATOM     14  C   UNL     1      -3.222  -6.507   0.460  0.00  0.00    +0.005 C 
ATOM     15  C   UNL     1      -3.424  -6.146  -1.015  0.00  0.00    +0.028 C 
ATOM     16  C   UNL     1      -3.386  -4.624  -1.170  0.00  0.00    +0.160 C 
ATOM     17  O   UNL     1      -2.142  -4.127  -0.673  0.00  0.00    -0.378 OA
ENDBRANCH  11  12
ENDBRANCH   8  11
ENDBRANCH   1   8
BRANCH   1  18
ATOM     18  C   UNL     1       0.468  -0.222   1.625  0.00  0.00    +0.042 C 
BRANCH  18  19
ATOM     19  N   UNL     1      -0.703   0.198   2.406  0.00  0.00    -0.328 NA
ATOM     20  H   UNL     1      -1.557  -0.134   1.983  0.00  0.00    +0.118 HD
ATOM     21  H   UNL     1      -0.630  -0.112   3.363  0.00  0.00    +0.118 HD
ENDBRANCH  18  19
BRANCH  18  23
ATOM     22  C   UNL     1       1.672   1.906   2.138  0.00  0.00    +0.005 C 
ATOM     23  C   UNL     1       1.733   0.381   2.240  0.00  0.00    +0.014 C 
ENDBRANCH  18  23
ENDBRANCH   1  18
TORSDOF 7
