REMARK  Name = ZINC48862775
REMARK  4 active torsions:
REMARK  status: ('A' for Active; 'I' for Inactive)
REMARK    1  A    between atoms: C_8  and  N_13
REMARK    2  A    between atoms: C_9  and  N_12
REMARK    3  A    between atoms: C_17  and  C_19
REMARK    4  A    between atoms: C_19  and  O_20
REMARK                            x       y       z     vdW  Elec       q    Type
REMARK                         _______ _______ _______ _____ _____    ______ ____
ROOT
ATOM      1  C   UNL     1      -0.017   1.389   0.010  0.00  0.00    +0.017 A 
ATOM      2  C   UNL     1       1.140   2.107   0.003  0.00  0.00    +0.027 A 
ATOM      3  C   UNL     1       2.376   1.439  -0.013  0.00  0.00    +0.048 A 
ATOM      4  C   UNL     1       2.392   0.023  -0.021  0.00  0.00    +0.022 A 
ATOM      5  C   UNL     1       1.182  -0.686  -0.013  0.00  0.00    +0.027 A 
ATOM      6  C   UNL     1       0.002  -0.004   0.002  0.00  0.00    +0.019 A 
ATOM      7 BR   UNL     1      -1.629  -0.960   0.013  0.00  0.00    -0.050 Br
ATOM      8  C   UNL     1       3.636  -0.648  -0.036  0.00  0.00    +0.062 A 
ATOM      9  C   UNL     1       4.792   0.124  -0.043  0.00  0.00    +0.063 A 
ATOM     10  C   UNL     1       4.690   1.514  -0.035  0.00  0.00    +0.107 A 
ATOM     11  N   UNL     1       3.526   2.122  -0.020  0.00  0.00    -0.359 N 
ATOM     12  H   UNL     1       3.500   3.091  -0.015  0.00  0.00    +0.165 HD
ENDROOT
BRANCH   8  13
ATOM     13  N   UNL     1       3.702  -2.038  -0.044  0.00  0.00    -0.323 N 
ATOM     14  C   UNL     1       3.747  -2.903   1.149  0.00  0.00    +0.105 C 
ATOM     15  C   UNL     1       3.196  -4.269   0.670  0.00  0.00    +0.021 C 
ATOM     16  C   UNL     1       3.780  -4.354  -0.765  0.00  0.00    +0.026 C 
ATOM     17  C   UNL     1       3.731  -2.888  -1.243  0.00  0.00    +0.099 C 
BRANCH  17  18
ATOM     18  C   UNL     1       4.976  -2.573  -2.074  0.00  0.00    +0.178 C 
BRANCH  18  19
ATOM     19  O   UNL     1       6.145  -2.931  -1.335  0.00  0.00    -0.393 OA
ATOM     20  H   UNL     1       6.974  -2.758  -1.802  0.00  0.00    +0.209 HD
ENDBRANCH  18  19
ENDBRANCH  17  18
ENDBRANCH   8  13
BRANCH   9  21
ATOM     21  N   UNL     1       6.052  -0.491  -0.058  0.00  0.00    -0.355 N 
ATOM     22  H   UNL     1       6.119  -1.458  -0.063  0.00  0.00    +0.142 HD
ATOM     23  H   UNL     1       6.856   0.051  -0.062  0.00  0.00    +0.142 HD
ENDBRANCH   9  21
TORSDOF 4
