REMARK  Name = ZINC66244829
REMARK  6 active torsions:
REMARK  status: ('A' for Active; 'I' for Inactive)
REMARK    1  A    between atoms: C_3  and  C_6
REMARK    2  A    between atoms: C_6  and  N_7
REMARK    3  A    between atoms: N_10  and  C_11
REMARK    4  A    between atoms: C_11  and  C_12
REMARK    5  A    between atoms: C_15  and  N_18
REMARK    6  A    between atoms: C_21  and  C_23
REMARK                            x       y       z     vdW  Elec       q    Type
REMARK                         _______ _______ _______ _____ _____    ______ ____
ROOT
ATOM      1  C   UNL     1       7.298   0.523   3.117  0.00  0.00    +0.151 C 
ENDROOT
BRANCH   1   5
ATOM      2  N   UNL     1       4.101   0.607   1.347  0.00  0.00    -0.351 N 
ATOM      3  C   UNL     1       5.384   0.576   1.572  0.00  0.00    +0.169 C 
ATOM      4  N   UNL     1       6.267   0.560   0.518  0.00  0.00    -0.371 N 
ATOM      5  N   UNL     1       5.855   0.558   2.864  0.00  0.00    -0.354 N 
ATOM      6  H   UNL     1       5.935   0.573  -0.393  0.00  0.00    +0.159 HD
ATOM      7  H   UNL     1       7.222   0.537   0.686  0.00  0.00    +0.159 HD
ATOM      8  H   UNL     1       5.232   0.569   3.607  0.00  0.00    +0.163 HD
ATOM      9  H   UNL     1       3.478   0.617   2.090  0.00  0.00    +0.163 HD
BRANCH   2  10
ATOM     10  C   UNL     1       3.599   0.625  -0.029  0.00  0.00    +0.190 C 
BRANCH  10  13
ATOM     11  C   UNL     1      -0.016   1.341   0.009  0.00  0.00    +0.041 A 
ATOM     12  C   UNL     1       1.331   1.769  -0.001  0.00  0.00    +0.046 A 
ATOM     13  C   UNL     1       2.092   0.660  -0.014  0.00  0.00    +0.124 A 
ATOM     14  O   UNL     1       1.282  -0.411  -0.012  0.00  0.00    -0.466 OA
ATOM     15  C   UNL     1       0.002  -0.004   0.002  0.00  0.00    +0.195 A 
ENDBRANCH  10  13
ENDBRANCH   2  10
ENDBRANCH   1   5
BRANCH   1  16
ATOM     16  C   UNL     1       7.546   0.510   4.603  0.00  0.00    -0.028 A 
ATOM     17  C   UNL     1       7.683   1.702   5.291  0.00  0.00    +0.007 A 
ATOM     18  C   UNL     1       7.911   1.694   6.653  0.00  0.00    +0.028 A 
ATOM     19  C   UNL     1       8.004   0.486   7.332  0.00  0.00    +0.065 A 
ATOM     20  C   UNL     1       7.866  -0.709   6.639  0.00  0.00    +0.028 A 
ATOM     21  C   UNL     1       7.632  -0.694   5.278  0.00  0.00    +0.007 A 
BRANCH  19  22
ATOM     22  N   UNL     1       8.236   0.474   8.714  0.00  0.00    -0.239 N 
ATOM     23  C   UNL     1       8.353  -0.626   9.492  0.00  0.00    +0.115 A 
ATOM     24  C   UNL     1       8.572  -0.211  10.761  0.00  0.00    +0.054 A 
ATOM     25  C   UNL     1       8.590   1.188  10.761  0.00  0.00    +0.166 A 
ATOM     26  N   UNL     1       8.395   1.599   9.534  0.00  0.00    -0.162 NA
BRANCH  25  27
ATOM     27  C   UNL     1       8.804   2.069  11.964  0.00  0.00    +0.436 C 
ATOM     28  F   UNL     1      10.171   2.325  12.118  0.00  0.00    -0.164 F 
ATOM     29  F   UNL     1       8.121   3.277  11.785  0.00  0.00    -0.164 F 
ATOM     30  F   UNL     1       8.319   1.424  13.107  0.00  0.00    -0.164 F 
ENDBRANCH  25  27
ENDBRANCH  19  22
ENDBRANCH   1  16
TORSDOF 6
