REMARK  Name = ZINC40680072
REMARK  12 active torsions:
REMARK  status: ('A' for Active; 'I' for Inactive)
REMARK    1  A    between atoms: C_1  and  C_2
REMARK    2  A    between atoms: C_2  and  C_3
REMARK    3  A    between atoms: C_3  and  C_4
REMARK    4  A    between atoms: C_4  and  C_5
REMARK    5  A    between atoms: C_8  and  N_11
REMARK    6  A    between atoms: C_13  and  N_29
REMARK    7  A    between atoms: C_14  and  N_18
REMARK    8  A    between atoms: N_18  and  C_19
REMARK    9  A    between atoms: C_21  and  C_27
REMARK   10  A    between atoms: C_21  and  C_28
REMARK   11  A    between atoms: C_23  and  C_25
REMARK   12  A    between atoms: C_23  and  C_26
REMARK                            x       y       z     vdW  Elec       q    Type
REMARK                         _______ _______ _______ _____ _____    ______ ____
ROOT
ATOM      1  N   UNL     1      -6.660  -3.962  -0.752  0.00  0.00    -0.298 N 
ATOM      2  C   UNL     1      -7.447  -4.040  -1.896  0.00  0.00    +0.149 A 
ATOM      3  C   UNL     1      -8.781  -4.444  -1.812  0.00  0.00    +0.105 A 
ATOM      4  C   UNL     1      -9.526  -4.505  -2.991  0.00  0.00    +0.145 A 
ATOM      5  N   UNL     1      -8.941  -4.178  -4.141  0.00  0.00    -0.219 NA
ATOM      6  C   UNL     1      -7.679  -3.801  -4.176  0.00  0.00    +0.225 A 
ATOM      7  N   UNL     1      -6.942  -3.726  -3.087  0.00  0.00    -0.219 NA
ATOM      8  H   UNL     1      -7.011  -4.264   0.100  0.00  0.00    +0.154 HD
ENDROOT
BRANCH   1  12
ATOM      9  C   UNL     1      -2.795  -2.430  -0.985  0.00  0.00    -0.047 A 
ATOM     10  C   UNL     1      -3.782  -1.941  -1.821  0.00  0.00    +0.005 A 
ATOM     11  C   UNL     1      -5.065  -2.447  -1.746  0.00  0.00    +0.023 A 
ATOM     12  C   UNL     1      -5.363  -3.448  -0.831  0.00  0.00    +0.032 A 
ATOM     13  C   UNL     1      -4.369  -3.937   0.007  0.00  0.00    +0.023 A 
ATOM     14  C   UNL     1      -3.087  -3.431  -0.076  0.00  0.00    +0.005 A 
BRANCH   9  15
ATOM     15  C   UNL     1      -1.396  -1.875  -1.068  0.00  0.00    +0.035 C 
BRANCH  15  16
ATOM     16  C   UNL     1      -0.587  -2.683  -2.085  0.00  0.00    +0.004 C 
BRANCH  16  18
ATOM     17  C   UNL     1       1.642  -2.928  -3.187  0.00  0.00    +0.004 C 
ATOM     18  C   UNL     1       0.833  -2.120  -2.170  0.00  0.00    -0.003 C 
ENDBRANCH  16  18
ENDBRANCH  15  16
ENDBRANCH   9  15
ENDBRANCH   1  12
BRANCH   3  19
ATOM     19  N   UNL     1      -9.357  -4.781  -0.577  0.00  0.00    -0.353 N 
ATOM     20  H   UNL     1      -8.826  -4.734   0.234  0.00  0.00    +0.143 HD
ATOM     21  H   UNL     1     -10.285  -5.060  -0.534  0.00  0.00    +0.143 HD
ENDBRANCH   3  19
BRANCH   4  22
ATOM     22  N   UNL     1     -10.858  -4.901  -2.965  0.00  0.00    -0.325 N 
ATOM     23  H   UNL     1     -11.277  -5.138  -2.122  0.00  0.00    +0.148 HD
BRANCH  22  24
ATOM     24  C   UNL     1     -11.632  -4.961  -4.211  0.00  0.00    +0.069 C 
ATOM     25  C   UNL     1     -12.235  -3.584  -4.495  0.00  0.00    +0.009 C 
ATOM     26  C   UNL     1     -13.054  -3.633  -5.784  0.00  0.00    -0.072 C 
ATOM     27  N   UNL     1     -14.057  -4.687  -5.756  0.00  0.00    +0.386 N 
ATOM     28  C   UNL     1     -13.641  -6.004  -5.302  0.00  0.00    -0.072 C 
ATOM     29  C   UNL     1     -12.775  -5.961  -4.047  0.00  0.00    +0.009 C 
ATOM     30  C   UNL     1     -12.922  -6.783  -6.406  0.00  0.00    -0.010 C 
ATOM     31  C   UNL     1     -14.921  -6.799  -4.949  0.00  0.00    -0.010 C 
ATOM     32  C   UNL     1     -12.129  -3.751  -6.994  0.00  0.00    -0.010 C 
ATOM     33  C   UNL     1     -13.798  -2.283  -5.905  0.00  0.00    -0.010 C 
ATOM     34  H   UNL     1     -14.835  -4.375  -5.169  0.00  0.00    -0.084 HD
ATOM     35  H   UNL     1     -14.452  -4.780  -6.696  0.00  0.00    -0.084 HD
ENDBRANCH  22  24
ENDBRANCH   4  22
TORSDOF 7
