REMARK  Name = ZINC36679309
REMARK  6 active torsions:
REMARK  status: ('A' for Active; 'I' for Inactive)
REMARK    1  A    between atoms: C_1  and  C_2
REMARK    2  A    between atoms: C_2  and  C_3
REMARK    3  A    between atoms: C_3  and  C_5
REMARK    4  A    between atoms: C_3  and  O_9
REMARK    5  A    between atoms: C_5  and  C_6
REMARK    6  A    between atoms: O_9  and  C_10
REMARK                            x       y       z     vdW  Elec       q    Type
REMARK                         _______ _______ _______ _____ _____    ______ ____
ROOT
ATOM      1  C   UNL     1      -1.484  -0.556  -0.005  0.00  0.00    +0.180 C 
ENDROOT
BRANCH   1   3
ATOM      2  C   UNL     1       0.195   1.291   0.086  0.00  0.00    +0.007 C 
ATOM      3  C   UNL     1       0.009  -0.225   0.004  0.00  0.00    +0.041 C 
ENDBRANCH   1   3
BRANCH   1   4
ATOM      4  C   UNL     1      -1.672  -2.061  -0.212  0.00  0.00    +0.113 C 
BRANCH   4   5
ATOM      5  C   UNL     1      -3.141  -2.370  -0.344  0.00  0.00    +0.066 C 
ATOM      6  N   UNL     1      -3.856  -2.653   0.731  0.00  0.00    -0.391 N 
ATOM      7  N   UNL     1      -3.714  -2.359  -1.535  0.00  0.00    -0.348 N 
ATOM      8  H   UNL     1      -3.435  -2.661   1.605  0.00  0.00    +0.157 HD
ATOM      9  H   UNL     1      -3.190  -2.151  -2.324  0.00  0.00    +0.143 HD
ATOM     10  H   UNL     1      -4.660  -2.558  -1.620  0.00  0.00    +0.143 HD
ATOM     11  H   UNL     1      -4.802  -2.852   0.646  0.00  0.00    +0.157 HD
ENDBRANCH   4   5
ENDBRANCH   1   4
BRANCH   1  12
ATOM     12  O   UNL     1      -2.066  -0.171   1.242  0.00  0.00    -0.487 OA
BRANCH  12  13
ATOM     13  C   UNL     1      -2.633   1.063   1.303  0.00  0.00    +0.135 A 
ATOM     14  C   UNL     1      -2.675   1.865   0.173  0.00  0.00    +0.048 A 
ATOM     15  C   UNL     1      -3.252   3.119   0.237  0.00  0.00    +0.023 A 
ATOM     16  C   UNL     1      -3.790   3.574   1.428  0.00  0.00    +0.042 A 
ATOM     17  C   UNL     1      -3.750   2.775   2.557  0.00  0.00    +0.039 A 
ATOM     18  C   UNL     1      -3.178   1.518   2.496  0.00  0.00    +0.061 A 
ATOM     19 BR   UNL     1      -3.130   0.424   4.037  0.00  0.00    -0.046 Br
ATOM     20 CL   UNL     1      -4.514   5.149   1.506  0.00  0.00    -0.084 Cl
ENDBRANCH  12  13
ENDBRANCH   1  12
TORSDOF 5
