REMARK  Name = ZINC45630494
REMARK  9 active torsions:
REMARK  status: ('A' for Active; 'I' for Inactive)
REMARK    1  A    between atoms: C_1  and  C_2
REMARK    2  A    between atoms: C_2  and  C_4
REMARK    3  A    between atoms: C_2  and  N_20
REMARK    4  A    between atoms: N_6  and  C_7
REMARK    5  A    between atoms: C_7  and  C_8
REMARK    6  A    between atoms: N_10  and  C_11
REMARK    7  A    between atoms: N_20  and  C_21
REMARK    8  A    between atoms: C_21  and  C_22
REMARK    9  A    between atoms: C_21  and  C_28
REMARK                            x       y       z     vdW  Elec       q    Type
REMARK                         _______ _______ _______ _____ _____    ______ ____
ROOT
ATOM      1  C   UNL     1      -0.147   1.395   0.050  0.00  0.00    -0.004 C 
ATOM      2  C   UNL     1      -0.201  -0.128  -0.093  0.00  0.00    +0.014 C 
ENDROOT
BRANCH   2   3
ATOM      3  C   UNL     1       0.468  -0.768   1.097  0.00  0.00    +0.199 C 
ATOM      4  O   UNL     1       1.431  -1.487   0.937  0.00  0.00    -0.278 OA
ATOM      5  N   UNL     1      -0.005  -0.541   2.338  0.00  0.00    -0.308 N 
ATOM      6  H   UNL     1      -0.775   0.035   2.466  0.00  0.00    +0.149 HD
BRANCH   5   7
ATOM      7  C   UNL     1       0.645  -1.163   3.495  0.00  0.00    +0.200 C 
BRANCH   7   8
ATOM      8  C   UNL     1      -0.072  -0.751   4.755  0.00  0.00    +0.234 C 
ATOM      9  O   UNL     1      -1.031  -0.011   4.693  0.00  0.00    -0.274 OA
ATOM     10  N   UNL     1       0.353  -1.205   5.951  0.00  0.00    -0.282 N 
ATOM     11  H   UNL     1       1.166  -1.732   6.009  0.00  0.00    +0.155 HD
BRANCH  10  12
ATOM     12  C   UNL     1      -0.379  -0.916   7.110  0.00  0.00    +0.072 A 
ATOM     13  C   UNL     1      -1.735  -0.634   7.024  0.00  0.00    +0.029 A 
ATOM     14  C   UNL     1      -2.456  -0.349   8.167  0.00  0.00    +0.043 A 
ATOM     15  C   UNL     1      -1.828  -0.345   9.401  0.00  0.00    +0.161 A 
ATOM     16  C   UNL     1      -0.474  -0.626   9.492  0.00  0.00    +0.195 A 
ATOM     17  C   UNL     1       0.251  -0.918   8.349  0.00  0.00    +0.182 A 
ATOM     18  F   UNL     1       1.570  -1.198   8.438  0.00  0.00    -0.200 F 
ATOM     19  F   UNL     1       0.137  -0.621  10.697  0.00  0.00    -0.199 F 
ATOM     20  F   UNL     1      -2.536  -0.066  10.517  0.00  0.00    -0.202 F 
ENDBRANCH  10  12
ENDBRANCH   7   8
ENDBRANCH   5   7
ENDBRANCH   2   3
BRANCH   2  21
ATOM     21  N   UNL     1       0.498  -0.529  -1.321  0.00  0.00    +0.394 N 
ATOM     22  H   UNL     1       0.124  -0.014  -2.104  0.00  0.00    -0.083 HD
ATOM     23  H   UNL     1       1.483  -0.331  -1.228  0.00  0.00    -0.083 HD
BRANCH  21  24
ATOM     24  C   UNL     1       0.307  -1.968  -1.545  0.00  0.00    -0.009 C 
BRANCH  24  25
ATOM     25  C   UNL     1      -1.146  -2.243  -1.834  0.00  0.00    -0.057 A 
ATOM     26  C   UNL     1      -1.867  -1.379  -2.636  0.00  0.00    +0.002 A 
ATOM     27  C   UNL     1      -3.200  -1.631  -2.901  0.00  0.00    +0.000 A 
ATOM     28  C   UNL     1      -3.812  -2.748  -2.364  0.00  0.00    +0.000 A 
ATOM     29  C   UNL     1      -3.091  -3.613  -1.562  0.00  0.00    +0.000 A 
ATOM     30  C   UNL     1      -1.757  -3.363  -1.301  0.00  0.00    +0.002 A 
ENDBRANCH  24  25
BRANCH  24  31
ATOM     31  C   UNL     1       1.145  -2.409  -2.718  0.00  0.00    -0.057 A 
ATOM     32  C   UNL     1       1.254  -1.599  -3.833  0.00  0.00    +0.002 A 
ATOM     33  C   UNL     1       2.022  -2.004  -4.909  0.00  0.00    +0.000 A 
ATOM     34  C   UNL     1       2.681  -3.219  -4.869  0.00  0.00    +0.000 A 
ATOM     35  C   UNL     1       2.572  -4.028  -3.754  0.00  0.00    +0.000 A 
ATOM     36  C   UNL     1       1.808  -3.622  -2.677  0.00  0.00    +0.002 A 
ENDBRANCH  24  31
ENDBRANCH  21  24
ENDBRANCH   2  21
TORSDOF 8
