REMARK  Name = ZINC63589325
REMARK  7 active torsions:
REMARK  status: ('A' for Active; 'I' for Inactive)
REMARK    1  A    between atoms: C_1  and  C_2
REMARK    2  A    between atoms: C_5  and  C_8
REMARK    3  A    between atoms: C_8  and  N_10
REMARK    4  A    between atoms: N_12  and  C_13
REMARK    5  A    between atoms: N_20  and  C_21
REMARK    6  A    between atoms: C_21  and  C_22
REMARK    7  A    between atoms: C_22  and  C_23
REMARK                            x       y       z     vdW  Elec       q    Type
REMARK                         _______ _______ _______ _____ _____    ______ ____
ROOT
ATOM      1  N   UNL     1       0.532  -5.308   1.984  0.00  0.00    -0.143 NA
ATOM      2  C   UNL     1       0.752  -6.169   1.003  0.00  0.00    +0.194 C 
ATOM      3  N   UNL     1       0.052  -6.068  -0.164  0.00  0.00    -0.326 N 
ATOM      4  N   UNL     1       1.680  -7.157   1.158  0.00  0.00    -0.357 N 
ATOM      5  H   UNL     1       0.056  -5.235  -0.662  0.00  0.00    +0.169 HD
ATOM      6  H   UNL     1       2.147  -7.256   2.002  0.00  0.00    +0.162 HD
ENDROOT
BRANCH   3   7
ATOM      7  C   UNL     1      -0.673  -7.166  -0.643  0.00  0.00    +0.077 A 
ATOM      8  C   UNL     1      -1.315  -8.017   0.246  0.00  0.00    +0.028 A 
ATOM      9  C   UNL     1      -2.030  -9.099  -0.230  0.00  0.00    +0.002 A 
ATOM     10  C   UNL     1      -2.107  -9.336  -1.590  0.00  0.00    +0.003 A 
ATOM     11  C   UNL     1      -1.469  -8.491  -2.479  0.00  0.00    +0.040 A 
ATOM     12  C   UNL     1      -0.756  -7.403  -2.011  0.00  0.00    +0.147 A 
ATOM     13  F   UNL     1      -0.138  -6.574  -2.880  0.00  0.00    -0.203 F 
ENDBRANCH   3   7
BRANCH   1  14
ATOM     14  C   UNL     1      -0.479  -4.433   1.894  0.00  0.00    +0.270 C 
ATOM     15  O   UNL     1      -1.133  -4.363   0.869  0.00  0.00    -0.268 OA
BRANCH  14  20
ATOM     16  C   UNL     1      -1.731  -1.009   6.349  0.00  0.00    +0.044 C 
ATOM     17  C   UNL     1      -1.403  -1.905   5.183  0.00  0.00    -0.050 A 
ATOM     18  C   UNL     1      -2.148  -1.822   4.019  0.00  0.00    +0.004 A 
ATOM     19  C   UNL     1      -1.853  -2.640   2.948  0.00  0.00    +0.013 A 
ATOM     20  C   UNL     1      -0.801  -3.552   3.040  0.00  0.00    +0.039 A 
ATOM     21  C   UNL     1      -0.053  -3.631   4.215  0.00  0.00    +0.013 A 
ATOM     22  C   UNL     1      -0.355  -2.803   5.277  0.00  0.00    +0.004 A 
ENDBRANCH  14  20
ENDBRANCH   1  14
BRANCH   4  23
ATOM     23  C   UNL     1       1.971  -8.069   0.049  0.00  0.00    +0.120 C 
BRANCH  23  24
ATOM     24  C   UNL     1       3.076  -9.042   0.465  0.00  0.00    +0.054 C 
BRANCH  24  25
ATOM     25  C   UNL     1       3.460  -9.900  -0.713  0.00  0.00    -0.040 C 
ATOM     26  C   UNL     1       4.456  -9.667  -1.598  0.00  0.00    -0.001 A 
ATOM     27  C   UNL     1       5.441  -8.586  -1.725  0.00  0.00    +0.010 A 
ATOM     28  C   UNL     1       6.333  -8.628  -2.740  0.00  0.00    +0.001 A 
ATOM     29  C   UNL     1       6.341  -9.675  -3.672  0.00  0.00    +0.002 A 
ATOM     30  C   UNL     1       5.468 -10.703  -3.621  0.00  0.00    +0.026 A 
ATOM     31  C   UNL     1       4.486 -10.761  -2.595  0.00  0.00    +0.043 A 
ATOM     32  N   UNL     1       3.545 -11.636  -2.336  0.00  0.00    -0.380 N 
ATOM     33  C   UNL     1       2.815 -11.199  -1.140  0.00  0.00    +0.144 C 
ATOM     34  H   UNL     1       3.364 -12.441  -2.846  0.00  0.00    +0.160 HD
ENDBRANCH  24  25
ENDBRANCH  23  24
ENDBRANCH   4  23
TORSDOF 6
