REMARK  Name = ZINC27236970
REMARK  11 active torsions:
REMARK  status: ('A' for Active; 'I' for Inactive)
REMARK    1  A    between atoms: C_1  and  C_2
REMARK    2  A    between atoms: C_5  and  C_8
REMARK    3  A    between atoms: C_8  and  C_9
REMARK    4  A    between atoms: C_8  and  C_17
REMARK    5  A    between atoms: C_8  and  O_34
REMARK    6  A    between atoms: C_14  and  O_15
REMARK    7  A    between atoms: O_15  and  C_16
REMARK    8  A    between atoms: C_17  and  C_19
REMARK    9  A    between atoms: C_17  and  O_25
REMARK   10  A    between atoms: C_19  and  N_20
REMARK   11  A    between atoms: O_25  and  C_26
REMARK                            x       y       z     vdW  Elec       q    Type
REMARK                         _______ _______ _______ _____ _____    ______ ____
ROOT
ATOM      1  C   UNL     1      -2.421   2.247   3.283  0.00  0.00    +0.154 C 
ENDROOT
BRANCH   1   6
ATOM      2  C   UNL     1      -0.945   6.432  -0.419  0.00  0.00    +0.044 C 
ATOM      3  C   UNL     1      -1.330   5.340   0.546  0.00  0.00    -0.050 A 
ATOM      4  C   UNL     1      -1.376   5.602   1.903  0.00  0.00    +0.004 A 
ATOM      5  C   UNL     1      -1.729   4.601   2.789  0.00  0.00    +0.007 A 
ATOM      6  C   UNL     1      -2.036   3.338   2.318  0.00  0.00    -0.008 A 
ATOM      7  C   UNL     1      -1.985   3.075   0.962  0.00  0.00    +0.007 A 
ATOM      8  C   UNL     1      -1.637   4.077   0.076  0.00  0.00    +0.004 A 
ENDBRANCH   1   6
BRANCH   1   9
ATOM      9  C   UNL     1      -1.176   1.595   3.826  0.00  0.00    +0.033 A 
ATOM     10  C   UNL     1      -1.015   1.440   5.190  0.00  0.00    +0.010 A 
ATOM     11  C   UNL     1       0.130   0.847   5.689  0.00  0.00    +0.001 A 
ATOM     12  C   UNL     1       1.114   0.403   4.825  0.00  0.00    +0.004 A 
ATOM     13  C   UNL     1       0.956   0.551   3.461  0.00  0.00    +0.046 A 
ATOM     14  C   UNL     1      -0.192   1.146   2.958  0.00  0.00    +0.126 A 
BRANCH  14  15
ATOM     15  O   UNL     1      -0.349   1.294   1.616  0.00  0.00    -0.495 OA
ATOM     16  C   UNL     1       0.760   0.935   0.789  0.00  0.00    +0.277 C 
ENDBRANCH  14  15
ENDBRANCH   1   9
BRANCH   1  17
ATOM     17  O   UNL     1      -3.174   2.808   4.361  0.00  0.00    -0.376 OA
ATOM     18  H   UNL     1      -3.544   2.160   5.169  0.00  0.00    +0.211 HD
ENDBRANCH   1  17
BRANCH   1  19
ATOM     19  C   UNL     1      -3.270   1.201   2.558  0.00  0.00    +0.198 C 
BRANCH  19  20
ATOM     20  C   UNL     1      -4.444   1.891   1.861  0.00  0.00    -0.030 C 
BRANCH  20  21
ATOM     21  N   UNL     1      -5.337   0.875   1.286  0.00  0.00    +0.382 N 
ATOM     22  C   UNL     1      -5.843  -0.045   2.336  0.00  0.00    -0.079 C 
ATOM     23  C   UNL     1      -7.109  -0.659   1.688  0.00  0.00    -0.020 C 
ATOM     24  C   UNL     1      -7.710   0.531   0.905  0.00  0.00    -0.020 C 
ATOM     25  C   UNL     1      -6.535   1.502   0.686  0.00  0.00    -0.079 C 
ATOM     26  H   UNL     1      -4.739   0.344   0.531  0.00  0.00    -0.082 HD
ENDBRANCH  20  21
ENDBRANCH  19  20
BRANCH  19  27
ATOM     27  O   UNL     1      -2.468   0.527   1.586  0.00  0.00    -0.486 OA
BRANCH  27  28
ATOM     28  C   UNL     1      -2.115  -0.757   1.859  0.00  0.00    +0.139 A 
ATOM     29  C   UNL     1      -2.404  -1.308   3.099  0.00  0.00    +0.048 A 
ATOM     30  C   UNL     1      -2.048  -2.614   3.374  0.00  0.00    +0.023 A 
ATOM     31  C   UNL     1      -1.395  -3.370   2.417  0.00  0.00    +0.043 A 
ATOM     32  C   UNL     1      -1.100  -2.822   1.181  0.00  0.00    +0.043 A 
ATOM     33  C   UNL     1      -1.459  -1.516   0.901  0.00  0.00    +0.084 A 
ATOM     34 CL   UNL     1      -1.089  -0.828  -0.650  0.00  0.00    -0.080 Cl
ATOM     35 CL   UNL     1      -0.944  -5.010   2.767  0.00  0.00    -0.083 Cl
ENDBRANCH  27  28
ENDBRANCH  19  27
ENDBRANCH   1  19
TORSDOF 9
