REMARK  Name = ZINC09245611
REMARK  8 active torsions:
REMARK  status: ('A' for Active; 'I' for Inactive)
REMARK    1  A    between atoms: C_3  and  S_28
REMARK    2  A    between atoms: C_6  and  C_7
REMARK    3  A    between atoms: C_7  and  C_8
REMARK    4  A    between atoms: C_8  and  N_9
REMARK    5  A    between atoms: C_10  and  C_12
REMARK    6  A    between atoms: C_12  and  N_58
REMARK    7  A    between atoms: C_16  and  C_18
REMARK    8  A    between atoms: S_28  and  N_31
REMARK                            x       y       z     vdW  Elec       q    Type
REMARK                         _______ _______ _______ _____ _____    ______ ____
ROOT
ATOM      1  N   UNL     1       1.036  -1.008  -0.788  0.00  0.00    -0.317 N 
ATOM      2  C   UNL     1       0.458  -0.330   0.222  0.00  0.00    +0.196 C 
ATOM      3  O   UNL     1       0.315  -0.859   1.304  0.00  0.00    -0.278 OA
ATOM      4  H   UNL     1       1.150  -0.585  -1.654  0.00  0.00    +0.149 HD
ENDROOT
BRANCH   1   5
ATOM      5  C   UNL     1       1.493  -2.384  -0.580  0.00  0.00    +0.109 C 
BRANCH   5   6
ATOM      6  C   UNL     1       2.108  -2.919  -1.875  0.00  0.00    +0.054 C 
BRANCH   6  12
ATOM      7  C   UNL     1       3.868  -4.576  -1.228  0.00  0.00    +0.005 A 
ATOM      8  C   UNL     1       4.298  -5.875  -1.027  0.00  0.00    +0.029 A 
ATOM      9  C   UNL     1       3.441  -6.932  -1.268  0.00  0.00    +0.105 A 
ATOM     10  C   UNL     1       2.152  -6.690  -1.707  0.00  0.00    +0.029 A 
ATOM     11  C   UNL     1       1.721  -5.392  -1.903  0.00  0.00    +0.005 A 
ATOM     12  C   UNL     1       2.578  -4.335  -1.661  0.00  0.00    -0.046 A 
BRANCH   9  13
ATOM     13  S   UNL     1       3.990  -8.587  -1.017  0.00  0.00    +0.056 S 
ATOM     14  O   UNL     1       5.060  -8.522  -0.083  0.00  0.00    -0.153 OA
ATOM     15  O   UNL     1       2.827  -9.371  -0.790  0.00  0.00    -0.153 OA
BRANCH  13  16
ATOM     16  N   UNL     1       4.642  -9.109  -2.447  0.00  0.00    -0.204 NA
ATOM     17  H   UNL     1       5.358  -9.764  -2.443  0.00  0.00    +0.144 HD
ATOM     18  H   UNL     1       4.307  -8.761  -3.288  0.00  0.00    +0.144 HD
ENDBRANCH  13  16
ENDBRANCH   9  13
ENDBRANCH   6  12
ENDBRANCH   5   6
ENDBRANCH   1   5
BRANCH   2  19
ATOM     19  C   UNL     1      -0.013   1.086   0.008  0.00  0.00    +0.019 C 
BRANCH  19  24
ATOM     20  C   UNL     1      -1.984   0.781   1.395  0.00  0.00    -0.077 C 
ATOM     21  C   UNL     1      -3.021   1.750   1.992  0.00  0.00    -0.020 C 
ATOM     22  C   UNL     1      -2.292   3.110   2.092  0.00  0.00    -0.013 C 
ATOM     23  C   UNL     1      -1.149   2.967   1.056  0.00  0.00    -0.037 C 
ATOM     24  N   UNL     1      -0.755   1.562   1.214  0.00  0.00    +0.390 N 
ATOM     25  H   UNL     1      -0.154   1.462   2.040  0.00  0.00    -0.080 HD
BRANCH  23  26
ATOM     26  C   UNL     1      -0.008   3.892   1.393  0.00  0.00    -0.057 A 
ATOM     27  C   UNL     1       0.823   3.603   2.460  0.00  0.00    +0.006 A 
ATOM     28  C   UNL     1       1.872   4.447   2.770  0.00  0.00    +0.049 A 
ATOM     29  C   UNL     1       2.089   5.591   2.017  0.00  0.00    +0.162 A 
ATOM     30  C   UNL     1       1.253   5.883   0.946  0.00  0.00    +0.162 A 
ATOM     31  C   UNL     1       0.204   5.030   0.638  0.00  0.00    +0.051 A 
ATOM     32  O   UNL     1       1.454   6.996   0.188  0.00  0.00    -0.485 OA
ATOM     33  C   UNL     1       2.283   8.018   0.753  0.00  0.00    +0.270 C 
ATOM     34  C   UNL     1       3.536   7.352   1.337  0.00  0.00    +0.270 C 
ATOM     35  O   UNL     1       3.121   6.418   2.341  0.00  0.00    -0.485 OA
ENDBRANCH  23  26
ENDBRANCH  19  24
ENDBRANCH   2  19
TORSDOF 8
