REMARK  Name = ZINC59170664
REMARK  7 active torsions:
REMARK  status: ('A' for Active; 'I' for Inactive)
REMARK    1  A    between atoms: C_4  and  C_7
REMARK    2  A    between atoms: C_10  and  N_13
REMARK    3  A    between atoms: C_14  and  C_16
REMARK    4  A    between atoms: C_21  and  O_37
REMARK    5  A    between atoms: N_26  and  C_27
REMARK    6  A    between atoms: C_30  and  S_33
REMARK    7  A    between atoms: S_33  and  N_36
REMARK                            x       y       z     vdW  Elec       q    Type
REMARK                         _______ _______ _______ _____ _____    ______ ____
ROOT
ATOM      1  C   UNL     1       8.634  -4.744   0.157  0.00  0.00    +0.098 A 
ATOM      2  C   UNL     1       8.671  -6.132   0.131  0.00  0.00    +0.030 A 
ATOM      3  C   UNL     1       9.936  -6.769   0.194  0.00  0.00    +0.018 A 
ATOM      4  C   UNL     1      10.046  -8.150  -0.029  0.00  0.00    +0.015 A 
ATOM      5  C   UNL     1      11.273  -8.746  -0.007  0.00  0.00    +0.046 A 
ATOM      6  C   UNL     1      12.420  -7.994   0.242  0.00  0.00    +0.120 A 
ATOM      7  C   UNL     1      12.328  -6.631   0.484  0.00  0.00    +0.092 A 
ATOM      8  C   UNL     1      11.090  -6.012   0.473  0.00  0.00    +0.141 A 
ATOM      9  O   UNL     1      10.985  -4.689   0.751  0.00  0.00    -0.438 OA
ATOM     10  C   UNL     1       9.925  -4.032   0.207  0.00  0.00    +0.212 A 
ATOM     11  N   UNL     1      10.045  -2.805  -0.254  0.00  0.00    -0.325 N 
ATOM     12  H   UNL     1       9.311  -2.395  -0.738  0.00  0.00    +0.169 HD
ENDROOT
BRANCH  11  13
ATOM     13  C   UNL     1      11.203  -2.108  -0.049  0.00  0.00    +0.042 A 
ATOM     14  C   UNL     1      11.816  -2.117   1.206  0.00  0.00    +0.027 A 
ATOM     15  C   UNL     1      12.984  -1.411   1.405  0.00  0.00    +0.030 A 
ATOM     16  C   UNL     1      13.549  -0.695   0.364  0.00  0.00    +0.105 A 
ATOM     17  C   UNL     1      12.948  -0.682  -0.882  0.00  0.00    +0.030 A 
ATOM     18  C   UNL     1      11.783  -1.388  -1.097  0.00  0.00    +0.027 A 
BRANCH  16  19
ATOM     19  S   UNL     1      15.042   0.204   0.627  0.00  0.00    +0.056 S 
ATOM     20  O   UNL     1      15.075   1.232  -0.352  0.00  0.00    -0.153 OA
ATOM     21  O   UNL     1      15.112   0.476   2.021  0.00  0.00    -0.153 OA
BRANCH  19  22
ATOM     22  N   UNL     1      16.297  -0.820   0.282  0.00  0.00    -0.204 NA
ATOM     23  H   UNL     1      16.117  -1.728  -0.005  0.00  0.00    +0.144 HD
ATOM     24  H   UNL     1      17.212  -0.510   0.366  0.00  0.00    +0.144 HD
ENDBRANCH  19  22
ENDBRANCH  16  19
ENDBRANCH  11  13
BRANCH   1  26
ATOM     25  N   UNL     1       7.343  -2.676   0.296  0.00  0.00    -0.281 N 
ATOM     26  C   UNL     1       7.357  -4.013   0.128  0.00  0.00    +0.253 C 
ATOM     27  O   UNL     1       6.315  -4.614  -0.049  0.00  0.00    -0.270 OA
ATOM     28  H   UNL     1       8.178  -2.188   0.382  0.00  0.00    +0.155 HD
BRANCH  25  32
ATOM     29  C   UNL     1       3.713  -0.633   0.453  0.00  0.00    -0.018 A 
ATOM     30  C   UNL     1       4.790  -0.203   1.226  0.00  0.00    +0.010 A 
ATOM     31  C   UNL     1       5.990  -0.880   1.173  0.00  0.00    +0.024 A 
ATOM     32  C   UNL     1       6.126  -1.991   0.349  0.00  0.00    +0.034 A 
ATOM     33  C   UNL     1       5.054  -2.422  -0.423  0.00  0.00    +0.024 A 
ATOM     34  C   UNL     1       3.850  -1.751  -0.369  0.00  0.00    +0.010 A 
BRANCH  29  38
ATOM     35  C   UNL     1       0.010   1.450   0.612  0.00  0.00    +0.000 A 
ATOM     36  C   UNL     1       1.078   1.883   1.377  0.00  0.00    +0.001 A 
ATOM     37  C   UNL     1       2.282   1.211   1.329  0.00  0.00    +0.008 A 
ATOM     38  C   UNL     1       2.421   0.093   0.509  0.00  0.00    -0.018 A 
ATOM     39  C   UNL     1       1.342  -0.339  -0.260  0.00  0.00    +0.008 A 
ATOM     40  C   UNL     1       0.142   0.341  -0.204  0.00  0.00    +0.001 A 
ENDBRANCH  29  38
ENDBRANCH  25  32
ENDBRANCH   1  26
BRANCH   6  41
ATOM     41  O   UNL     1      13.634  -8.599   0.248  0.00  0.00    -0.507 OA
ATOM     42  H   UNL     1      14.070  -8.616  -0.615  0.00  0.00    +0.292 HD
ENDBRANCH   6  41
TORSDOF 7
