REMARK  Name = ZINC37004687
REMARK  9 active torsions:
REMARK  status: ('A' for Active; 'I' for Inactive)
REMARK    1  A    between atoms: C_1  and  C_2
REMARK    2  A    between atoms: C_2  and  C_3
REMARK    3  A    between atoms: C_2  and  C_4
REMARK    4  A    between atoms: C_4  and  C_6
REMARK    5  A    between atoms: C_4  and  N_19
REMARK    6  A    between atoms: N_8  and  C_9
REMARK    7  A    between atoms: C_9  and  C_10
REMARK    8  A    between atoms: C_9  and  C_11
REMARK    9  A    between atoms: C_9  and  C_12
REMARK                            x       y       z     vdW  Elec       q    Type
REMARK                         _______ _______ _______ _____ _____    ______ ____
ROOT
ATOM      1  C   UNL     1      -2.100  -0.009  -1.234  0.00  0.00    +0.199 C 
ATOM      2  O   UNL     1      -2.175  -0.706  -2.224  0.00  0.00    -0.278 OA
ATOM      3  N   UNL     1      -2.665   1.215  -1.228  0.00  0.00    -0.308 N 
ATOM      4  H   UNL     1      -2.606   1.773  -0.437  0.00  0.00    +0.149 HD
ENDROOT
BRANCH   3   5
ATOM      5  C   UNL     1      -3.369   1.703  -2.417  0.00  0.00    +0.054 C 
ATOM      6  C   UNL     1      -2.393   1.775  -3.594  0.00  0.00    +0.036 C 
ATOM      7  C   UNL     1      -4.512   0.747  -2.762  0.00  0.00    +0.036 C 
BRANCH   5   8
ATOM      8  C   UNL     1      -3.927   3.076  -2.143  0.00  0.00    -0.025 A 
ATOM      9  C   UNL     1      -4.175   3.943  -3.190  0.00  0.00    +0.007 A 
ATOM     10  C   UNL     1      -4.687   5.202  -2.939  0.00  0.00    +0.015 A 
ATOM     11  C   UNL     1      -4.952   5.594  -1.639  0.00  0.00    +0.018 A 
ATOM     12  C   UNL     1      -4.705   4.725  -0.592  0.00  0.00    +0.015 A 
ATOM     13  C   UNL     1      -4.197   3.465  -0.844  0.00  0.00    +0.007 A 
ATOM     14 BR   UNL     1      -5.653   7.316  -1.295  0.00  0.00    -0.050 Br
ENDBRANCH   5   8
ENDBRANCH   3   5
BRANCH   1  15
ATOM     15  C   UNL     1      -1.377  -0.510  -0.011  0.00  0.00    +0.015 C 
BRANCH  15  16
ATOM     16  N   UNL     1      -1.277  -1.975  -0.068  0.00  0.00    +0.386 N 
ATOM     17  H   UNL     1      -0.766  -2.245  -0.895  0.00  0.00    -0.089 HD
ATOM     18  H   UNL     1      -0.792  -2.311   0.751  0.00  0.00    -0.089 HD
ATOM     19  H   UNL     1      -2.203  -2.374  -0.099  0.00  0.00    -0.089 HD
ENDBRANCH  15  16
BRANCH  15  21
ATOM     20  C   UNL     1      -0.077   1.621   0.094  0.00  0.00    +0.006 C 
ATOM     21  C   UNL     1       0.027   0.096   0.035  0.00  0.00    -0.023 C 
ATOM     22  C   UNL     1       0.762  -0.414   1.277  0.00  0.00    +0.006 C 
ENDBRANCH  15  21
ENDBRANCH   1  15
TORSDOF 5
