REMARK  Name = ZINC14949753
REMARK  8 active torsions:
REMARK  status: ('A' for Active; 'I' for Inactive)
REMARK    1  A    between atoms: C_1  and  N_2
REMARK    2  A    between atoms: C_3  and  C_30
REMARK    3  A    between atoms: C_6  and  C_17
REMARK    4  A    between atoms: C_8  and  C_10
REMARK    5  A    between atoms: C_17  and  N_18
REMARK    6  A    between atoms: N_18  and  C_19
REMARK    7  A    between atoms: C_19  and  C_20
REMARK    8  A    between atoms: C_30  and  O_31
REMARK                            x       y       z     vdW  Elec       q    Type
REMARK                         _______ _______ _______ _____ _____    ______ ____
ROOT
ATOM      1  C   UNL     1      -0.018   1.465   0.010  0.00  0.00    +0.105 C 
ATOM      2  N   UNL     1       0.002  -0.004   0.002  0.00  0.00    -0.293 NA
ATOM      3  C   UNL     1       0.670  -0.518  -1.212  0.00  0.00    +0.083 C 
ATOM      4  C   UNL     1       1.379  -1.817  -0.754  0.00  0.00    +0.024 C 
ATOM      5  C   UNL     1       1.852  -1.430   0.671  0.00  0.00    -0.005 C 
ATOM      6  C   UNL     1       0.709  -0.529   1.185  0.00  0.00    +0.091 C 
ENDROOT
BRANCH   6   7
ATOM      7  C   UNL     1      -0.240  -1.338   2.031  0.00  0.00    +0.005 A 
ATOM      8  C   UNL     1      -1.364  -1.905   1.461  0.00  0.00    +0.008 A 
ATOM      9  C   UNL     1      -2.234  -2.647   2.237  0.00  0.00    +0.000 A 
ATOM     10  C   UNL     1      -1.981  -2.823   3.585  0.00  0.00    +0.003 A 
ATOM     11  C   UNL     1      -0.858  -2.258   4.157  0.00  0.00    +0.038 A 
ATOM     12  C   UNL     1       0.017  -1.519   3.380  0.00  0.00    +0.128 A 
ATOM     13  F   UNL     1       1.119  -0.970   3.937  0.00  0.00    -0.205 F 
ENDBRANCH   6   7
BRANCH   5  14
ATOM     14  C   UNL     1       2.001  -2.674   1.549  0.00  0.00    -0.077 C 
BRANCH  14  15
ATOM     15  N   UNL     1       3.098  -3.506   1.036  0.00  0.00    +0.383 N 
ATOM     16  H   UNL     1       2.894  -3.785   0.088  0.00  0.00    -0.085 HD
ATOM     17  H   UNL     1       3.958  -2.978   1.053  0.00  0.00    -0.085 HD
BRANCH  15  18
ATOM     18  C   UNL     1       3.241  -4.701   1.878  0.00  0.00    -0.028 C 
BRANCH  18  19
ATOM     19  C   UNL     1       4.366  -5.555   1.352  0.00  0.00    -0.000 A 
ATOM     20  C   UNL     1       4.220  -6.588   0.508  0.00  0.00    +0.029 A 
ATOM     21  C   UNL     1       5.558  -7.130   0.259  0.00  0.00    -0.000 A 
ATOM     22  C   UNL     1       6.049  -8.183  -0.515  0.00  0.00    +0.010 A 
ATOM     23  C   UNL     1       7.391  -8.441  -0.536  0.00  0.00    +0.001 A 
ATOM     24  C   UNL     1       8.270  -7.663   0.205  0.00  0.00    +0.002 A 
ATOM     25  C   UNL     1       7.807  -6.619   0.975  0.00  0.00    +0.026 A 
ATOM     26  C   UNL     1       6.444  -6.339   1.012  0.00  0.00    +0.047 A 
ATOM     27  N   UNL     1       5.689  -5.388   1.660  0.00  0.00    -0.360 N 
ATOM     28  H   UNL     1       6.042  -4.703   2.249  0.00  0.00    +0.166 HD
ENDBRANCH  18  19
ENDBRANCH  15  18
ENDBRANCH  14  15
ENDBRANCH   5  14
BRANCH   3  29
ATOM     29  C   UNL     1      -0.363  -0.827  -2.298  0.00  0.00    +0.174 C 
BRANCH  29  30
ATOM     30  O   UNL     1      -0.972   0.390  -2.736  0.00  0.00    -0.393 OA
ATOM     31  H   UNL     1      -1.639   0.270  -3.426  0.00  0.00    +0.209 HD
ENDBRANCH  29  30
ENDBRANCH   3  29
TORSDOF 7
