REMARK  Name = ZINC11977189
REMARK  8 active torsions:
REMARK  status: ('A' for Active; 'I' for Inactive)
REMARK    1  A    between atoms: C_3  and  C_6
REMARK    2  A    between atoms: C_9  and  O_17
REMARK    3  A    between atoms: C_10  and  C_12
REMARK    4  A    between atoms: C_12  and  N_66
REMARK    5  A    between atoms: O_17  and  C_18
REMARK    6  A    between atoms: C_18  and  C_19
REMARK    7  A    between atoms: C_24  and  C_27
REMARK    8  A    between atoms: C_24  and  O_34
REMARK                            x       y       z     vdW  Elec       q    Type
REMARK                         _______ _______ _______ _____ _____    ______ ____
ROOT
ATOM      1  O   UNL     1      -1.089   3.488   0.026  0.00  0.00    -0.483 OA
ENDROOT
BRANCH   1   5
ATOM      2  C   UNL     1      -4.398   5.958   0.055  0.00  0.00    -0.011 A 
ATOM      3  C   UNL     1      -4.560   4.572   0.049  0.00  0.00    +0.012 A 
ATOM      4  C   UNL     1      -3.453   3.751   0.033  0.00  0.00    +0.046 A 
ATOM      5  C   UNL     1      -2.178   4.301   0.036  0.00  0.00    +0.123 A 
ATOM      6  C   UNL     1      -2.013   5.679   0.043  0.00  0.00    -0.022 A 
ATOM      7  C   UNL     1      -3.115   6.508   0.052  0.00  0.00    +0.014 A 
BRANCH   2  10
ATOM      8  C   UNL     1      -7.849   7.517   0.079  0.00  0.00    +0.008 A 
ATOM      9  C   UNL     1      -6.910   6.507   0.070  0.00  0.00    +0.016 A 
ATOM     10  C   UNL     1      -5.583   6.843   0.065  0.00  0.00    +0.019 A 
ATOM     11  S   UNL     1      -5.655   8.627   0.083  0.00  0.00    -0.097 S 
ATOM     12  C   UNL     1      -7.431   8.808   0.084  0.00  0.00    +0.046 A 
ENDBRANCH   2  10
BRANCH   6  13
ATOM     13  C   UNL     1      -0.627   6.271   0.040  0.00  0.00    -0.039 C 
BRANCH  13  18
ATOM     14  C   UNL     1      -1.032   6.885  -2.281  0.00  0.00    -0.078 C 
ATOM     15  C   UNL     1      -0.128   7.245  -3.487  0.00  0.00    -0.020 C 
ATOM     16  C   UNL     1       1.192   7.682  -2.811  0.00  0.00    -0.020 C 
ATOM     17  C   UNL     1       1.164   7.032  -1.415  0.00  0.00    -0.078 C 
ATOM     18  N   UNL     1      -0.079   6.261  -1.350  0.00  0.00    +0.382 N 
ATOM     19  H   UNL     1       0.100   5.291  -1.635  0.00  0.00    -0.081 HD
ENDBRANCH  13  18
ENDBRANCH   6  13
ENDBRANCH   1   5
BRANCH   1  20
ATOM     20  C   UNL     1      -1.331   2.079   0.020  0.00  0.00    +0.324 C 
BRANCH  20  21
ATOM     21  C   UNL     1      -0.016   1.344   0.009  0.00  0.00    +0.253 C 
ATOM     22  O   UNL     1       1.026   1.964   0.003  0.00  0.00    -0.272 OA
ATOM     23  N   UNL     1       0.002  -0.004   0.002  0.00  0.00    -0.298 N 
ATOM     24  C   UNL     1      -1.252  -0.770   0.016  0.00  0.00    +0.111 C 
ATOM     25  C   UNL     1      -1.213  -1.767   1.173  0.00  0.00    +0.058 C 
ATOM     26  C   UNL     1       0.048  -2.627   1.060  0.00  0.00    +0.094 C 
ATOM     27  C   UNL     1       1.287  -1.733   1.148  0.00  0.00    +0.058 C 
ATOM     28  C   UNL     1       1.276  -0.735  -0.014  0.00  0.00    +0.111 C 
BRANCH  26  29
ATOM     29  C   UNL     1       0.072  -3.632   2.182  0.00  0.00    -0.016 A 
ATOM     30  C   UNL     1       0.684  -3.314   3.381  0.00  0.00    +0.008 A 
ATOM     31  C   UNL     1       0.702  -4.233   4.413  0.00  0.00    +0.020 A 
ATOM     32  C   UNL     1       0.117  -5.476   4.243  0.00  0.00    +0.041 A 
ATOM     33  C   UNL     1      -0.490  -5.795   3.041  0.00  0.00    +0.020 A 
ATOM     34  C   UNL     1      -0.512  -4.873   2.012  0.00  0.00    +0.008 A 
ATOM     35 CL   UNL     1       0.145  -6.633   5.536  0.00  0.00    -0.084 Cl
ENDBRANCH  26  29
BRANCH  26  36
ATOM     36  O   UNL     1       0.045  -3.313  -0.194  0.00  0.00    -0.384 OA
ATOM     37  H   UNL     1      -0.713  -3.900  -0.319  0.00  0.00    +0.211 HD
ENDBRANCH  26  36
ENDBRANCH  20  21
ENDBRANCH   1  20
TORSDOF 8
