REMARK  Name = ZINC07041482
REMARK  7 active torsions:
REMARK  status: ('A' for Active; 'I' for Inactive)
REMARK    1  A    between atoms: C_1  and  C_2
REMARK    2  A    between atoms: C_2  and  C_4
REMARK    3  A    between atoms: C_10  and  C_36
REMARK    4  A    between atoms: C_21  and  C_31
REMARK    5  A    between atoms: C_24  and  O_27
REMARK    6  A    between atoms: O_27  and  C_28
REMARK    7  A    between atoms: C_28  and  C_30
REMARK                            x       y       z     vdW  Elec       q    Type
REMARK                         _______ _______ _______ _____ _____    ______ ____
ROOT
ATOM      1  C   UNL     1       1.906 -10.241  -0.183  0.00  0.00    +0.066 C 
ATOM      2  C   UNL     1       2.364  -9.784   1.224  0.00  0.00    +0.012 C 
ATOM      3  C   UNL     1       2.362  -8.231   1.209  0.00  0.00    +0.005 C 
ATOM      4  C   UNL     1       1.499  -7.906  -0.018  0.00  0.00    +0.004 C 
ATOM      5  C   UNL     1       1.978  -8.957  -1.040  0.00  0.00    +0.034 C 
ATOM      6  C   UNL     1       1.069  -8.952  -2.242  0.00  0.00    +0.177 C 
ATOM      7  C   UNL     1       0.756  -7.525  -2.708  0.00  0.00    +0.070 C 
ATOM      8  C   UNL     1       1.654  -6.479  -2.070  0.00  0.00    +0.004 C 
ATOM      9  C   UNL     1       1.550  -6.507  -0.548  0.00  0.00    -0.003 C 
ATOM     10  C   UNL     1       2.643  -5.653   0.086  0.00  0.00    +0.004 C 
ATOM     11  C   UNL     1       2.699  -4.293  -0.628  0.00  0.00    +0.004 C 
ATOM     12  C   UNL     1       1.401  -4.099  -1.397  0.00  0.00    -0.001 C 
ATOM     13  C   UNL     1       1.313  -5.073  -2.571  0.00  0.00    -0.026 C 
ATOM     14  C   UNL     1      -0.083  -4.996  -3.176  0.00  0.00    +0.011 C 
ATOM     15  C   UNL     1      -0.360  -3.565  -3.649  0.00  0.00    +0.045 C 
ATOM     16  C   UNL     1      -0.200  -2.566  -2.507  0.00  0.00    +0.177 C 
ATOM     17  C   UNL     1       1.194  -2.669  -1.878  0.00  0.00    +0.048 C 
ATOM     18  C   UNL     1       2.348  -4.711  -3.640  0.00  0.00    +0.012 C 
ATOM     19  O   UNL     1      -0.180  -9.595  -1.908  0.00  0.00    -0.346 OA
ATOM     20  C   UNL     1      -0.619 -10.190  -3.154  0.00  0.00    +0.191 C 
ATOM     21  C   UNL     1       0.724 -10.690  -3.743  0.00  0.00    +0.191 C 
ATOM     22  O   UNL     1       1.663  -9.677  -3.330  0.00  0.00    -0.346 OA
ATOM     23  C   UNL     1       3.441  -8.779  -1.441  0.00  0.00    +0.017 C 
ENDROOT
BRANCH   1  25
ATOM     24  C   UNL     1       2.343 -12.386  -1.602  0.00  0.00    +0.086 C 
ATOM     25  C   UNL     1       2.858 -11.271  -0.729  0.00  0.00    +0.134 C 
ATOM     26  O   UNL     1       4.035 -11.204  -0.467  0.00  0.00    -0.297 OA
ENDBRANCH   1  25
BRANCH  16  27
ATOM     27  O   UNL     1      -0.395  -1.219  -3.017  0.00  0.00    -0.462 OA
BRANCH  27  28
ATOM     28  C   UNL     1      -1.652  -0.748  -3.026  0.00  0.00    +0.304 C 
ATOM     29  O   UNL     1      -2.559  -1.436  -2.622  0.00  0.00    -0.251 OA
ATOM     30  C   UNL     1      -1.931   0.641  -3.541  0.00  0.00    +0.136 C 
ENDBRANCH  27  28
ENDBRANCH  16  27
TORSDOF 3
