REMARK  Name = ZINC58394271
REMARK  6 active torsions:
REMARK  status: ('A' for Active; 'I' for Inactive)
REMARK    1  A    between atoms: C_1  and  C_2
REMARK    2  A    between atoms: C_8  and  C_12
REMARK    3  A    between atoms: C_12  and  N_13
REMARK    4  A    between atoms: N_13  and  C_14
REMARK    5  A    between atoms: C_14  and  C_15
REMARK    6  A    between atoms: N_19  and  C_20
REMARK                            x       y       z     vdW  Elec       q    Type
REMARK                         _______ _______ _______ _____ _____    ______ ____
ROOT
ATOM      1  N   UNL     1      -0.541  -7.021   0.720  0.00  0.00    +0.384 N 
ATOM      2  H   UNL     1      -1.511  -6.751   0.651  0.00  0.00    -0.085 HD
ATOM      3  H   UNL     1      -0.150  -7.110  -0.206  0.00  0.00    -0.085 HD
ENDROOT
BRANCH   1   4
ATOM      4  C   UNL     1       0.201  -5.998   1.469  0.00  0.00    -0.075 C 
BRANCH   4  12
ATOM      5  C   UNL     1       1.288   1.243   0.182  0.00  0.00    +0.067 C 
ATOM      6  C   UNL     1       1.101  -0.252   0.163  0.00  0.00    +0.062 A 
ATOM      7  C   UNL     1       0.941  -1.044  -0.981  0.00  0.00    +0.067 A 
ATOM      8  C   UNL     1       0.804  -2.325  -0.576  0.00  0.00    +0.117 A 
ATOM      9  N   UNL     1       0.875  -2.345   0.780  0.00  0.00    -0.250 N 
ATOM     10  N   UNL     1       1.068  -1.034   1.215  0.00  0.00    -0.175 NA
ATOM     11  C   UNL     1       0.763  -3.565   1.584  0.00  0.00    +0.148 C 
ATOM     12  C   UNL     1       0.096  -4.657   0.740  0.00  0.00    +0.010 C 
ATOM     13  C   UNL     1       0.793  -4.763  -0.621  0.00  0.00    +0.106 C 
ATOM     14  N   UNL     1       0.622  -3.483  -1.336  0.00  0.00    -0.329 N 
ATOM     15  H   UNL     1       0.395  -3.448  -2.279  0.00  0.00    +0.147 HD
ENDBRANCH   4  12
ENDBRANCH   1   4
BRANCH   1  16
ATOM     16  C   UNL     1      -0.441  -8.309   1.420  0.00  0.00    -0.005 C 
BRANCH  16  17
ATOM     17  C   UNL     1      -1.144  -9.373   0.618  0.00  0.00    +0.121 A 
ATOM     18  N   UNL     1      -2.400  -9.714   0.717  0.00  0.00    -0.136 NA
ATOM     19  N   UNL     1      -2.665 -10.656  -0.117  0.00  0.00    -0.138 NA
ATOM     20  C   UNL     1      -1.592 -10.966  -0.793  0.00  0.00    +0.229 A 
ATOM     21  N   UNL     1      -0.589 -10.155  -0.351  0.00  0.00    -0.287 N 
BRANCH  21  22
ATOM     22  C   UNL     1       0.740 -10.131  -0.799  0.00  0.00    +0.049 A 
ATOM     23  C   UNL     1       1.780 -10.306   0.102  0.00  0.00    +0.026 A 
ATOM     24  C   UNL     1       3.088 -10.283  -0.342  0.00  0.00    +0.002 A 
ATOM     25  C   UNL     1       3.361 -10.086  -1.683  0.00  0.00    +0.000 A 
ATOM     26  C   UNL     1       2.326  -9.912  -2.583  0.00  0.00    +0.002 A 
ATOM     27  C   UNL     1       1.016  -9.940  -2.146  0.00  0.00    +0.026 A 
ENDBRANCH  21  22
ENDBRANCH  16  17
ENDBRANCH   1  16
TORSDOF 5
