REMARK  Name = ZINC16109935
REMARK  4 active torsions:
REMARK  status: ('A' for Active; 'I' for Inactive)
REMARK    1  A    between atoms: C_1  and  C_2
REMARK    2  A    between atoms: C_2  and  C_3
REMARK    3  A    between atoms: C_13  and  C_15
REMARK    4  A    between atoms: C_15  and  N_16
REMARK                            x       y       z     vdW  Elec       q    Type
REMARK                         _______ _______ _______ _____ _____    ______ ____
ROOT
ATOM      1  C   UNL     1      -3.692   1.130   2.629  0.00  0.00    +0.222 C 
ENDROOT
BRANCH   1   2
ATOM      2  N   UNL     1      -4.677   2.192   2.407  0.00  0.00    -0.287 N 
ATOM      3  C   UNL     1      -4.299   3.491   2.499  0.00  0.00    +0.203 A 
ATOM      4  N   UNL     1      -5.143   4.466   2.309  0.00  0.00    -0.233 NA
ATOM      5  C   UNL     1      -6.429   4.224   2.012  0.00  0.00    +0.124 A 
ATOM      6  C   UNL     1      -7.599   5.075   1.746  0.00  0.00    +0.046 A 
ATOM      7  C   UNL     1      -7.807   6.452   1.704  0.00  0.00    +0.014 A 
ATOM      8  C   UNL     1      -9.060   6.945   1.416  0.00  0.00    +0.001 A 
ATOM      9  C   UNL     1     -10.113   6.075   1.171  0.00  0.00    +0.004 A 
ATOM     10  C   UNL     1      -9.921   4.711   1.211  0.00  0.00    +0.047 A 
ATOM     11  C   UNL     1      -8.663   4.193   1.498  0.00  0.00    +0.138 A 
ATOM     12  O   UNL     1      -8.198   2.930   1.600  0.00  0.00    -0.448 OA
ATOM     13  C   UNL     1      -6.883   2.914   1.902  0.00  0.00    +0.219 A 
ATOM     14  C   UNL     1      -5.954   1.869   2.107  0.00  0.00    +0.297 A 
ATOM     15  O   UNL     1      -6.298   0.702   2.018  0.00  0.00    -0.264 OA
ENDBRANCH   1   2
BRANCH   1  25
ATOM     16  C   UNL     1      -1.433  -0.534   0.013  0.00  0.00    +0.107 C 
ATOM     17  C   UNL     1      -1.424  -2.057  -0.101  0.00  0.00    -0.017 A 
ATOM     18  C   UNL     1      -1.124  -2.733  -1.282  0.00  0.00    +0.013 A 
ATOM     19  C   UNL     1      -1.130  -4.085  -1.309  0.00  0.00    +0.046 A 
ATOM     20  S   UNL     1      -1.572  -4.484   0.376  0.00  0.00    -0.101 S 
ATOM     21  C   UNL     1      -1.716  -2.824   0.984  0.00  0.00    -0.004 A 
ATOM     22  C   UNL     1      -2.078  -2.369   2.360  0.00  0.00    +0.061 C 
ATOM     23  C   UNL     1      -1.687  -0.890   2.509  0.00  0.00    +0.113 C 
ATOM     24  N   UNL     1      -2.084  -0.181   1.282  0.00  0.00    -0.293 N 
ATOM     25  C   UNL     1      -3.031   0.777   1.321  0.00  0.00    +0.236 C 
ATOM     26  O   UNL     1      -3.352   1.355   0.304  0.00  0.00    -0.274 OA
BRANCH  16  28
ATOM     27  C   UNL     1      -0.019   1.526   0.010  0.00  0.00    +0.006 C 
ATOM     28  C   UNL     1       0.002  -0.004   0.002  0.00  0.00    +0.024 C 
ENDBRANCH  16  28
ENDBRANCH   1  25
TORSDOF 3
