REMARK  Name = ZINC12325753
REMARK  8 active torsions:
REMARK  status: ('A' for Active; 'I' for Inactive)
REMARK    1  A    between atoms: C_1  and  C_2
REMARK    2  A    between atoms: C_4  and  C_7
REMARK    3  A    between atoms: C_7  and  C_9
REMARK    4  A    between atoms: C_7  and  N_10
REMARK    5  A    between atoms: C_21  and  N_56
REMARK    6  A    between atoms: C_25  and  C_26
REMARK    7  A    between atoms: C_25  and  N_56
REMARK    8  A    between atoms: C_26  and  C_27
REMARK                            x       y       z     vdW  Elec       q    Type
REMARK                         _______ _______ _______ _____ _____    ______ ____
ROOT
ATOM      1  N   UNL     1      -1.120   3.439  -0.558  0.00  0.00    -0.290 N 
ATOM      2  C   UNL     1      -0.235   4.289   0.024  0.00  0.00    +0.203 A 
ATOM      3  N   UNL     1      -0.028   5.484  -0.461  0.00  0.00    -0.230 NA
ATOM      4  C   UNL     1      -0.679   5.906  -1.542  0.00  0.00    +0.116 A 
ATOM      5  C   UNL     1      -1.612   5.099  -2.211  0.00  0.00    +0.076 A 
ATOM      6  C   UNL     1      -1.812   3.792  -1.657  0.00  0.00    +0.263 A 
ATOM      7  O   UNL     1      -2.599   3.015  -2.170  0.00  0.00    -0.267 OA
ATOM      8  C   UNL     1      -2.251   5.696  -3.383  0.00  0.00    -0.023 A 
ATOM      9  C   UNL     1      -1.884   6.954  -3.706  0.00  0.00    -0.006 A 
ATOM     10  S   UNL     1      -0.683   7.410  -2.484  0.00  0.00    -0.073 S 
ATOM     11  C   UNL     1      -2.387   7.781  -4.849  0.00  0.00    +0.027 C 
ATOM     12  C   UNL     1      -3.664   7.127  -5.395  0.00  0.00    -0.067 C 
ATOM     13  C   UNL     1      -3.407   5.628  -5.582  0.00  0.00    -0.011 C 
ATOM     14  C   UNL     1      -3.287   4.948  -4.218  0.00  0.00    +0.035 C 
ENDROOT
BRANCH  12  15
ATOM     15  N   UNL     1      -4.011   7.727  -6.697  0.00  0.00    +0.381 N 
ATOM     16  H   UNL     1      -4.563   7.056  -7.244  0.00  0.00    -0.086 HD
ATOM     17  H   UNL     1      -3.149   7.956  -7.205  0.00  0.00    -0.086 HD
BRANCH  15  18
ATOM     18  C   UNL     1      -4.800   8.958  -6.499  0.00  0.00    -0.078 C 
BRANCH  18  19
ATOM     19  C   UNL     1      -5.145   9.557  -7.864  0.00  0.00    +0.016 C 
BRANCH  19  20
ATOM     20  C   UNL     1      -5.951  10.816  -7.671  0.00  0.00    -0.049 A 
ATOM     21  C   UNL     1      -7.331  10.750  -7.616  0.00  0.00    +0.005 A 
ATOM     22  C   UNL     1      -8.071  11.903  -7.433  0.00  0.00    +0.020 A 
ATOM     23  C   UNL     1      -7.431  13.124  -7.317  0.00  0.00    +0.041 A 
ATOM     24  C   UNL     1      -6.050  13.190  -7.378  0.00  0.00    +0.020 A 
ATOM     25  C   UNL     1      -5.311  12.035  -7.555  0.00  0.00    +0.005 A 
ATOM     26 CL   UNL     1      -8.360  14.574  -7.094  0.00  0.00    -0.084 Cl
ENDBRANCH  19  20
ENDBRANCH  18  19
ENDBRANCH  15  18
ENDBRANCH  12  15
BRANCH   1  27
ATOM     27  C   UNL     1      -1.321   2.107   0.020  0.00  0.00    +0.137 C 
ATOM     28  C   UNL     1      -1.819   2.246   1.460  0.00  0.00    +0.038 C 
BRANCH  27  32
ATOM     29  C   UNL     1       3.678   1.907  -0.023  0.00  0.00    +0.073 C 
ATOM     30  C   UNL     1       2.277   1.350  -0.012  0.00  0.00    +0.076 A 
ATOM     31  N   UNL     1       1.133   1.995   0.002  0.00  0.00    -0.247 NA
ATOM     32  C   UNL     1      -0.016   1.353   0.009  0.00  0.00    +0.071 A 
ATOM     33  C   UNL     1       0.002  -0.004   0.002  0.00  0.00    +0.072 A 
ATOM     34  S   UNL     1       1.763  -0.308  -0.016  0.00  0.00    -0.080 S 
ENDBRANCH  27  32
ENDBRANCH   1  27
TORSDOF 6
