REMARK  Name = ZINC42405958
REMARK  8 active torsions:
REMARK  status: ('A' for Active; 'I' for Inactive)
REMARK    1  A    between atoms: C_1  and  C_2
REMARK    2  A    between atoms: C_2  and  C_3
REMARK    3  A    between atoms: C_3  and  N_4
REMARK    4  A    between atoms: N_4  and  C_5
REMARK    5  A    between atoms: N_4  and  C_10
REMARK    6  A    between atoms: C_5  and  C_6
REMARK    7  A    between atoms: N_8  and  C_9
REMARK    8  A    between atoms: C_19  and  N_20
REMARK                            x       y       z     vdW  Elec       q    Type
REMARK                         _______ _______ _______ _____ _____    ______ ____
ROOT
ATOM      1  C   UNL     1       0.020  -3.560   1.657  0.00  0.00    +0.062 A 
ATOM      2  C   UNL     1      -0.976  -4.021   0.767  0.00  0.00    +0.022 A 
ATOM      3  C   UNL     1      -0.807  -3.937  -0.623  0.00  0.00    +0.027 A 
ATOM      4  C   UNL     1      -1.790  -4.394  -1.450  0.00  0.00    +0.019 A 
ATOM      5  C   UNL     1      -2.961  -4.943  -0.931  0.00  0.00    +0.017 A 
ATOM      6  C   UNL     1      -3.156  -5.039   0.412  0.00  0.00    +0.027 A 
ATOM      7  C   UNL     1      -2.165  -4.579   1.297  0.00  0.00    +0.048 A 
ATOM      8  N   UNL     1      -2.333  -4.664   2.621  0.00  0.00    -0.359 N 
ATOM      9  C   UNL     1      -1.419  -4.240   3.462  0.00  0.00    +0.107 A 
ATOM     10  C   UNL     1      -0.219  -3.683   3.021  0.00  0.00    +0.063 A 
ATOM     11 BR   UNL     1      -1.561  -4.279  -3.324  0.00  0.00    -0.050 Br
ATOM     12  H   UNL     1      -3.153  -5.048   2.969  0.00  0.00    +0.165 HD
ENDROOT
BRANCH  10  13
ATOM     13  N   UNL     1       0.739  -3.247   3.948  0.00  0.00    -0.355 N 
ATOM     14  H   UNL     1       1.446  -2.646   3.667  0.00  0.00    +0.142 HD
ATOM     15  H   UNL     1       0.693  -3.546   4.870  0.00  0.00    +0.142 HD
ENDBRANCH  10  13
BRANCH   1  16
ATOM     16  N   UNL     1       1.204  -3.004   1.183  0.00  0.00    -0.319 N 
BRANCH  16  17
ATOM     17  C   UNL     1       1.345  -1.549   1.090  0.00  0.00    +0.105 C 
BRANCH  17  19
ATOM     18  C   UNL     1       1.019   0.441  -0.385  0.00  0.00    +0.005 C 
ATOM     19  C   UNL     1       0.873  -1.078  -0.288  0.00  0.00    +0.015 C 
ENDBRANCH  17  19
ENDBRANCH  16  17
BRANCH  16  20
ATOM     20  C   UNL     1       2.311  -3.874   0.778  0.00  0.00    +0.200 C 
BRANCH  20  21
ATOM     21  C   UNL     1       3.283  -4.015   1.920  0.00  0.00    +0.230 C 
ATOM     22  O   UNL     1       3.138  -3.352   2.925  0.00  0.00    -0.274 OA
ATOM     23  N   UNL     1       4.315  -4.878   1.825  0.00  0.00    -0.317 N 
ATOM     24  C   UNL     1       5.260  -5.014   2.935  0.00  0.00    +0.128 C 
ATOM     25  H   UNL     1       4.431  -5.408   1.021  0.00  0.00    +0.148 HD
ENDBRANCH  20  21
ENDBRANCH  16  20
ENDBRANCH   1  16
TORSDOF 6
