REMARK  Name = ZINC33331608
REMARK  11 active torsions:
REMARK  status: ('A' for Active; 'I' for Inactive)
REMARK    1  A    between atoms: C_1  and  C_2
REMARK    2  A    between atoms: C_2  and  C_3
REMARK    3  A    between atoms: C_3  and  C_4
REMARK    4  A    between atoms: C_6  and  C_9
REMARK    5  A    between atoms: C_15  and  C_32
REMARK    6  A    between atoms: C_18  and  N_19
REMARK    7  A    between atoms: N_19  and  C_20
REMARK    8  A    between atoms: C_20  and  C_21
REMARK    9  A    between atoms: C_21  and  C_22
REMARK   10  A    between atoms: C_25  and  S_28
REMARK   11  A    between atoms: S_28  and  N_31
REMARK                            x       y       z     vdW  Elec       q    Type
REMARK                         _______ _______ _______ _____ _____    ______ ____
ROOT
ATOM      1  C   UNL     1       3.446   3.623  -0.024  0.00  0.00    +0.061 A 
ATOM      2  C   UNL     1       3.708   2.264  -0.013  0.00  0.00    +0.025 A 
ATOM      3  C   UNL     1       2.615   1.378   0.005  0.00  0.00    -0.001 A 
ATOM      4  C   UNL     1       2.808  -0.013   0.017  0.00  0.00    +0.010 A 
ATOM      5  C   UNL     1       1.729  -0.843   0.033  0.00  0.00    +0.001 A 
ATOM      6  C   UNL     1       0.434  -0.330   0.037  0.00  0.00    +0.005 A 
ATOM      7  C   UNL     1       0.210   1.013   0.025  0.00  0.00    -0.027 A 
ATOM      8  C   UNL     1       1.299   1.902   0.009  0.00  0.00    +0.051 A 
ATOM      9  N   UNL     1       1.101   3.226  -0.003  0.00  0.00    -0.342 N 
ATOM     10  C   UNL     1       2.108   4.073  -0.019  0.00  0.00    +0.108 A 
ATOM     11  C   UNL     1      -1.200   1.545   0.024  0.00  0.00    +0.046 C 
ATOM     12  H   UNL     1       0.078   3.629  -0.000  0.00  0.00    +0.167 HD
ENDROOT
BRANCH   1  15
ATOM     13  C   UNL     1       6.495   5.466  -0.122  0.00  0.00    +0.228 A 
ATOM     14  N   UNL     1       5.880   4.311  -0.150  0.00  0.00    -0.191 NA
ATOM     15  C   UNL     1       4.562   4.599  -0.042  0.00  0.00    +0.205 A 
ATOM     16  N   UNL     1       4.457   5.901   0.040  0.00  0.00    -0.056 NA
ATOM     17  O   UNL     1       5.557   6.410   0.001  0.00  0.00    -0.338 OA
BRANCH  13  18
ATOM     18  C   UNL     1       7.983   5.690  -0.212  0.00  0.00    +0.098 C 
BRANCH  18  20
ATOM     19  C   UNL     1       9.897   6.081  -1.771  0.00  0.00    +0.004 C 
ATOM     20  C   UNL     1       8.386   5.854  -1.679  0.00  0.00    +0.006 C 
ENDBRANCH  18  20
ENDBRANCH  13  18
ENDBRANCH   1  15
BRANCH  10  21
ATOM     21  N   UNL     1       1.849   5.433  -0.031  0.00  0.00    -0.330 N 
ATOM     22  H   UNL     1       2.679   6.151   0.046  0.00  0.00    +0.147 HD
BRANCH  21  23
ATOM     23  C   UNL     1       0.470   5.915  -0.145  0.00  0.00    +0.107 C 
BRANCH  23  24
ATOM     24  C   UNL     1       0.463   7.445  -0.134  0.00  0.00    +0.054 C 
BRANCH  24  25
ATOM     25  C   UNL     1      -0.955   7.942  -0.251  0.00  0.00    -0.046 A 
ATOM     26  C   UNL     1      -1.501   8.184  -1.498  0.00  0.00    +0.005 A 
ATOM     27  C   UNL     1      -2.804   8.635  -1.605  0.00  0.00    +0.029 A 
ATOM     28  C   UNL     1      -3.556   8.853  -0.467  0.00  0.00    +0.105 A 
ATOM     29  C   UNL     1      -3.008   8.616   0.780  0.00  0.00    +0.029 A 
ATOM     30  C   UNL     1      -1.707   8.160   0.888  0.00  0.00    +0.005 A 
BRANCH  28  31
ATOM     31  S   UNL     1      -5.215   9.432  -0.604  0.00  0.00    +0.056 S 
ATOM     32  O   UNL     1      -5.671   9.056  -1.896  0.00  0.00    -0.153 OA
ATOM     33  O   UNL     1      -5.883   9.035   0.586  0.00  0.00    -0.153 OA
BRANCH  31  34
ATOM     34  N   UNL     1      -5.158  11.087  -0.585  0.00  0.00    -0.204 NA
ATOM     35  H   UNL     1      -6.178  11.489  -0.669  0.00  0.00    +0.144 HD
ATOM     36  H   UNL     1      -4.553  11.443  -1.432  0.00  0.00    +0.144 HD
ENDBRANCH  31  34
ENDBRANCH  28  31
ENDBRANCH  24  25
ENDBRANCH  23  24
ENDBRANCH  21  23
ENDBRANCH  10  21
TORSDOF 9
