REMARK  Name = ZINC66202779
REMARK  10 active torsions:
REMARK  status: ('A' for Active; 'I' for Inactive)
REMARK    1  A    between atoms: C_1  and  C_2
REMARK    2  A    between atoms: C_2  and  C_3
REMARK    3  A    between atoms: C_3  and  C_5
REMARK    4  A    between atoms: C_3  and  N_6
REMARK    5  A    between atoms: N_6  and  C_7
REMARK    6  A    between atoms: N_6  and  C_8
REMARK    7  A    between atoms: C_8  and  C_9
REMARK    8  A    between atoms: C_9  and  N_10
REMARK    9  A    between atoms: N_13  and  N_14
REMARK   10  A    between atoms: C_18  and  C_21
REMARK                            x       y       z     vdW  Elec       q    Type
REMARK                         _______ _______ _______ _____ _____    ______ ____
ROOT
ATOM      1  N   UNL     1      -3.218   2.884   3.064  0.00  0.00    -0.300 N 
ATOM      2  C   UNL     1      -3.768   3.367   4.196  0.00  0.00    +0.316 C 
ATOM      3  O   UNL     1      -4.079   2.607   5.093  0.00  0.00    -0.251 OA
ATOM      4  N   UNL     1      -3.974   4.691   4.333  0.00  0.00    -0.219 N 
ATOM      5  H   UNL     1      -2.970   3.490   2.349  0.00  0.00    +0.150 HD
ATOM      6  H   UNL     1      -4.370   5.039   5.148  0.00  0.00    +0.174 HD
ENDROOT
BRANCH   4   7
ATOM      7  N   UNL     1      -3.616   5.567   3.300  0.00  0.00    -0.246 N 
ATOM      8  C   UNL     1      -3.828   6.934   3.442  0.00  0.00    +0.153 A 
ATOM      9  C   UNL     1      -3.475   7.799   2.409  0.00  0.00    +0.083 A 
ATOM     10  C   UNL     1      -3.691   9.156   2.565  0.00  0.00    +0.037 A 
ATOM     11  C   UNL     1      -4.256   9.606   3.752  0.00  0.00    +0.074 A 
ATOM     12  C   UNL     1      -4.581   8.692   4.734  0.00  0.00    +0.125 A 
ATOM     13  N   UNL     1      -4.368   7.402   4.556  0.00  0.00    -0.237 NA
ATOM     14 CL   UNL     1      -2.772   7.181   0.947  0.00  0.00    -0.080 Cl
ATOM     15  H   UNL     1      -3.220   5.220   2.486  0.00  0.00    +0.172 HD
BRANCH  11  16
ATOM     16  C   UNL     1      -4.510  11.076   3.965  0.00  0.00    +0.419 C 
ATOM     17  F   UNL     1      -5.792  11.399   3.509  0.00  0.00    -0.166 F 
ATOM     18  F   UNL     1      -4.411  11.373   5.329  0.00  0.00    -0.166 F 
ATOM     19  F   UNL     1      -3.561  11.820   3.256  0.00  0.00    -0.166 F 
ENDBRANCH  11  16
ENDBRANCH   4   7
BRANCH   1  20
ATOM     20  C   UNL     1      -2.995   1.444   2.914  0.00  0.00    +0.087 C 
BRANCH  20  21
ATOM     21  C   UNL     1      -2.364   1.165   1.548  0.00  0.00    -0.060 C 
BRANCH  21  22
ATOM     22  N   UNL     1      -2.140  -0.279   1.398  0.00  0.00    +0.381 N 
ATOM     23  C   UNL     1      -3.432  -0.977   1.394  0.00  0.00    -0.096 C 
ATOM     24  H   UNL     1      -1.579  -0.614   2.167  0.00  0.00    -0.082 HD
BRANCH  22  25
ATOM     25  C   UNL     1      -1.440  -0.537   0.132  0.00  0.00    -0.072 C 
ATOM     26  C   UNL     1      -2.349  -0.158  -1.039  0.00  0.00    -0.013 C 
BRANCH  25  28
ATOM     27  C   UNL     1      -0.111  -2.382   1.167  0.00  0.00    +0.002 C 
ATOM     28  C   UNL     1      -1.082  -2.021   0.041  0.00  0.00    -0.019 C 
ENDBRANCH  25  28
ENDBRANCH  22  25
ENDBRANCH  21  22
ENDBRANCH  20  21
ENDBRANCH   1  20
TORSDOF 7
