REMARK  Name = ZINC20532174
REMARK  14 active torsions:
REMARK  status: ('A' for Active; 'I' for Inactive)
REMARK    1  A    between atoms: C_1  and  C_2
REMARK    2  A    between atoms: C_2  and  C_3
REMARK    3  A    between atoms: C_2  and  C_4
REMARK    4  A    between atoms: C_4  and  C_5
REMARK    5  A    between atoms: C_5  and  C_6
REMARK    6  A    between atoms: C_6  and  C_8
REMARK    7  A    between atoms: C_6  and  N_23
REMARK    8  A    between atoms: C_12  and  N_13
REMARK    9  A    between atoms: N_19  and  C_22
REMARK   10  A    between atoms: N_26  and  C_27
REMARK   11  A    between atoms: C_29  and  O_35
REMARK   12  A    between atoms: C_31  and  O_33
REMARK   13  A    between atoms: O_33  and  C_34
REMARK   14  A    between atoms: O_35  and  C_36
REMARK                            x       y       z     vdW  Elec       q    Type
REMARK                         _______ _______ _______ _____ _____    ______ ____
ROOT
ATOM      1  C   UNL     1       0.491  -0.459  -3.185  0.00  0.00    +0.108 C 
ENDROOT
BRANCH   1   2
ATOM      2  C   UNL     1       0.983   0.530  -2.160  0.00  0.00    +0.007 A 
ATOM      3  C   UNL     1       0.084   1.138  -1.287  0.00  0.00    -0.034 A 
ATOM      4  C   UNL     1       0.604   2.022  -0.392  0.00  0.00    -0.021 A 
ATOM      5  S   UNL     1       2.339   2.017  -0.747  0.00  0.00    -0.077 S 
ATOM      6  C   UNL     1       2.307   0.832  -2.085  0.00  0.00    +0.090 A 
ATOM      7  C   UNL     1      -0.147   2.801   0.638  0.00  0.00    -0.036 C 
ATOM      8  N   UNL     1      -1.585   2.730   0.311  0.00  0.00    +0.381 N 
ATOM      9  C   UNL     1      -1.989   1.341   0.052  0.00  0.00    -0.074 C 
ATOM     10  C   UNL     1      -1.418   0.864  -1.286  0.00  0.00    +0.018 C 
ATOM     11  C   UNL     1      -2.398   3.325   1.380  0.00  0.00    -0.096 C 
ATOM     12  H   UNL     1      -1.762   3.313  -0.605  0.00  0.00    -0.082 HD
BRANCH   6  13
ATOM     13  N   UNL     1       3.369   0.343  -2.854  0.00  0.00    -0.317 N 
ATOM     14  C   UNL     1       4.109  -0.769  -2.573  0.00  0.00    +0.092 A 
ATOM     15  C   UNL     1       5.033  -0.917  -3.545  0.00  0.00    +0.019 A 
ATOM     16  C   UNL     1       4.864   0.146  -4.455  0.00  0.00    +0.019 A 
ATOM     17  C   UNL     1       3.839   0.901  -4.008  0.00  0.00    +0.092 A 
ENDBRANCH   6  13
ENDBRANCH   1   2
BRANCH   1  18
ATOM     18  N   UNL     1      -0.660   0.105  -3.894  0.00  0.00    -0.292 N 
ATOM     19  C   UNL     1      -0.468   0.886  -4.976  0.00  0.00    +0.304 C 
ATOM     20  O   UNL     1       0.660   1.123  -5.362  0.00  0.00    -0.252 OA
ATOM     21  N   UNL     1      -1.527   1.405  -5.628  0.00  0.00    -0.269 N 
ATOM     22  H   UNL     1      -1.681  -0.109  -3.544  0.00  0.00    +0.151 HD
ATOM     23  H   UNL     1      -2.544   1.251  -5.237  0.00  0.00    +0.156 HD
BRANCH  21  24
ATOM     24  C   UNL     1      -1.333   2.139  -6.804  0.00  0.00    +0.042 A 
ATOM     25  C   UNL     1      -0.156   2.849  -6.993  0.00  0.00    +0.069 A 
ATOM     26  C   UNL     1       0.038   3.571  -8.160  0.00  0.00    +0.125 A 
ATOM     27  C   UNL     1      -0.949   3.594  -9.134  0.00  0.00    +0.091 A 
ATOM     28  C   UNL     1      -2.128   2.890  -8.943  0.00  0.00    +0.125 A 
ATOM     29  C   UNL     1      -2.321   2.162  -7.779  0.00  0.00    +0.069 A 
BRANCH  28  30
ATOM     30  O   UNL     1      -3.095   2.912  -9.898  0.00  0.00    -0.495 OA
ATOM     31  C   UNL     1      -2.829   3.682 -11.072  0.00  0.00    +0.277 C 
ENDBRANCH  28  30
BRANCH  26  32
ATOM     32  O   UNL     1       1.194   4.262  -8.348  0.00  0.00    -0.495 OA
ATOM     33  C   UNL     1       1.323   4.989  -9.572  0.00  0.00    +0.277 C 
ENDBRANCH  26  32
ENDBRANCH  21  24
ENDBRANCH   1  18
BRANCH   1  34
ATOM     34  C   UNL     1       0.074  -1.754  -2.485  0.00  0.00    +0.027 C 
BRANCH  34  35
ATOM     35  C   UNL     1      -0.308  -2.801  -3.533  0.00  0.00    +0.005 C 
BRANCH  35  37
ATOM     36  C   UNL     1      -1.225  -5.100  -3.873  0.00  0.00    +0.007 C 
ATOM     37  C   UNL     1      -0.725  -4.096  -2.833  0.00  0.00    -0.017 C 
ATOM     38  C   UNL     1       0.477  -4.685  -2.092  0.00  0.00    +0.007 C 
ENDBRANCH  35  37
ENDBRANCH  34  35
ENDBRANCH   1  34
TORSDOF 9
