REMARK  Name = ZINC41070142
REMARK  8 active torsions:
REMARK  status: ('A' for Active; 'I' for Inactive)
REMARK    1  A    between atoms: C_1  and  C_2
REMARK    2  A    between atoms: C_2  and  N_3
REMARK    3  A    between atoms: C_6  and  C_9
REMARK    4  A    between atoms: C_9  and  N_10
REMARK    5  A    between atoms: N_10  and  S_11
REMARK    6  A    between atoms: S_11  and  C_14
REMARK    7  A    between atoms: C_19  and  N_20
REMARK    8  A    between atoms: N_20  and  N_21
REMARK                            x       y       z     vdW  Elec       q    Type
REMARK                         _______ _______ _______ _____ _____    ______ ____
ROOT
ATOM      1  S   UNL     1      -4.280  -5.477  -2.572  0.00  0.00    +0.062 S 
ATOM      2  O   UNL     1      -5.613  -5.580  -3.054  0.00  0.00    -0.153 OA
ATOM      3  O   UNL     1      -3.168  -5.305  -3.440  0.00  0.00    -0.153 OA
ENDROOT
BRANCH   1   4
ATOM      4  C   UNL     1      -3.969  -6.938  -1.637  0.00  0.00    +0.147 A 
ATOM      5  C   UNL     1      -2.827  -7.686  -1.865  0.00  0.00    +0.048 A 
ATOM      6  C   UNL     1      -2.622  -8.830  -1.105  0.00  0.00    +0.038 A 
ATOM      7  C   UNL     1      -3.557  -9.185  -0.151  0.00  0.00    +0.128 A 
ATOM      8  N   UNL     1      -4.637  -8.452   0.043  0.00  0.00    -0.236 NA
ATOM      9  C   UNL     1      -4.864  -7.352  -0.657  0.00  0.00    +0.159 A 
ATOM     10 BR   UNL     1      -1.080  -9.891  -1.372  0.00  0.00    -0.049 Br
BRANCH   9  11
ATOM     11  N   UNL     1      -6.013  -6.606  -0.414  0.00  0.00    -0.266 N 
ATOM     12  H   UNL     1      -6.141  -5.754  -0.860  0.00  0.00    +0.167 HD
BRANCH  11  13
ATOM     13  N   UNL     1      -6.960  -7.073   0.452  0.00  0.00    -0.255 NA
ATOM     14  H   UNL     1      -7.732  -6.428   0.527  0.00  0.00    +0.140 HD
ATOM     15  H   UNL     1      -7.280  -7.990   0.178  0.00  0.00    +0.140 HD
ENDBRANCH  11  13
ENDBRANCH   9  11
ENDBRANCH   1   4
BRANCH   1  16
ATOM     16  N   UNL     1      -4.257  -4.204  -1.514  0.00  0.00    -0.190 NA
ATOM     17  H   UNL     1      -5.064  -3.689  -1.356  0.00  0.00    +0.148 HD
BRANCH  16  18
ATOM     18  C   UNL     1      -3.017  -3.855  -0.815  0.00  0.00    +0.107 C 
BRANCH  18  22
ATOM     19  N   UNL     1      -1.893  -0.567   0.511  0.00  0.00    +0.380 N 
ATOM     20  C   UNL     1      -2.408  -0.199  -0.826  0.00  0.00    -0.079 C 
ATOM     21  C   UNL     1      -3.247  -1.388  -1.329  0.00  0.00    -0.016 C 
ATOM     22  C   UNL     1      -3.147  -2.454  -0.215  0.00  0.00    -0.014 C 
ATOM     23  C   UNL     1      -1.852  -2.052   0.534  0.00  0.00    -0.074 C 
ATOM     24  H   UNL     1      -2.512  -0.225   1.230  0.00  0.00    -0.082 HD
BRANCH  19  26
ATOM     25  C   UNL     1      -0.620   1.504   0.800  0.00  0.00    -0.017 C 
ATOM     26  C   UNL     1      -0.543  -0.020   0.702  0.00  0.00    -0.082 C 
ENDBRANCH  19  26
ENDBRANCH  18  22
ENDBRANCH  16  18
ENDBRANCH   1  16
TORSDOF 7
