REMARK  Name = ZINC67145754
REMARK  6 active torsions:
REMARK  status: ('A' for Active; 'I' for Inactive)
REMARK    1  A    between atoms: C_3  and  N_10
REMARK    2  A    between atoms: C_5  and  N_7
REMARK    3  A    between atoms: C_12  and  C_15
REMARK    4  A    between atoms: N_17  and  C_18
REMARK    5  A    between atoms: N_23  and  C_25
REMARK    6  A    between atoms: C_25  and  C_26
REMARK                            x       y       z     vdW  Elec       q    Type
REMARK                         _______ _______ _______ _____ _____    ______ ____
ROOT
ATOM      1  C   UNL     1       5.691   5.059   0.107  0.00  0.00    +0.266 C 
ATOM      2  O   UNL     1       4.996   6.049   0.230  0.00  0.00    -0.268 OA
ATOM      3  N   UNL     1       7.032   5.182   0.042  0.00  0.00    -0.309 N 
ATOM      4  H   UNL     1       7.587   4.393  -0.056  0.00  0.00    +0.149 HD
ENDROOT
BRANCH   3   5
ATOM      5  C   UNL     1       7.651   6.508   0.119  0.00  0.00    +0.057 C 
ATOM      6  C   UNL     1       7.674   7.143  -1.275  0.00  0.00    +0.018 C 
ATOM      7  C   UNL     1       8.392   8.493  -1.198  0.00  0.00    -0.017 C 
ATOM      8  C   UNL     1       9.799   8.285  -0.632  0.00  0.00    -0.078 C 
ATOM      9  N   UNL     1       9.708   7.700   0.711  0.00  0.00    +0.387 N 
ATOM     10  C   UNL     1       9.084   6.373   0.637  0.00  0.00    -0.056 C 
ATOM     11  H   UNL     1       9.150   8.300   1.301  0.00  0.00    -0.081 HD
BRANCH   9  12
ATOM     12  C   UNL     1      11.056   7.575   1.281  0.00  0.00    +0.018 C 
BRANCH  12  13
ATOM     13  C   UNL     1      11.646   8.947   1.482  0.00  0.00    +0.194 C 
ATOM     14  O   UNL     1      11.007   9.932   1.180  0.00  0.00    -0.278 OA
ATOM     15  N   UNL     1      12.885   9.079   1.997  0.00  0.00    -0.331 N 
ATOM     16  H   UNL     1      13.396   8.290   2.239  0.00  0.00    +0.145 HD
ATOM     17  H   UNL     1      13.265   9.962   2.127  0.00  0.00    +0.145 HD
ENDBRANCH  12  13
ENDBRANCH   9  12
ENDBRANCH   3   5
BRANCH   1  20
ATOM     18  N   UNL     1       3.586   2.125  -0.021  0.00  0.00    -0.219 N 
ATOM     19  C   UNL     1       3.728   3.464   0.084  0.00  0.00    +0.149 A 
ATOM     20  C   UNL     1       5.069   3.724   0.030  0.00  0.00    +0.167 A 
ATOM     21  N   UNL     1       5.723   2.558  -0.106  0.00  0.00    -0.124 NA
ATOM     22  N   UNL     1       4.877   1.589  -0.134  0.00  0.00    -0.060 NA
BRANCH  18  25
ATOM     23  C   UNL     1      -0.017   1.378   0.010  0.00  0.00    +0.004 A 
ATOM     24  C   UNL     1       1.169   2.087   0.002  0.00  0.00    +0.028 A 
ATOM     25  C   UNL     1       2.381   1.409  -0.013  0.00  0.00    +0.069 A 
ATOM     26  C   UNL     1       2.396   0.021  -0.021  0.00  0.00    +0.060 A 
ATOM     27  C   UNL     1       1.207  -0.682  -0.013  0.00  0.00    +0.128 A 
ATOM     28  C   UNL     1       0.002  -0.004   0.002  0.00  0.00    +0.033 A 
BRANCH  27  29
ATOM     29  N   UNL     1       1.223  -2.162  -0.021  0.00  0.00    +0.056 N 
ATOM     30  O   UNL     1       2.277  -2.755  -0.035  0.00  0.00    -0.126 OA
ATOM     31  O   UNL     1       0.183  -2.778  -0.015  0.00  0.00    -0.126 OA
ENDBRANCH  27  29
ENDBRANCH  18  25
ENDBRANCH   1  20
TORSDOF 6
