REMARK  Name = ZINC43090600
REMARK  6 active torsions:
REMARK  status: ('A' for Active; 'I' for Inactive)
REMARK    1  A    between atoms: C_1  and  C_2
REMARK    2  A    between atoms: C_2  and  C_3
REMARK    3  A    between atoms: C_3  and  C_5
REMARK    4  A    between atoms: C_3  and  N_21
REMARK    5  A    between atoms: C_5  and  C_7
REMARK    6  A    between atoms: C_5  and  N_14
REMARK                            x       y       z     vdW  Elec       q    Type
REMARK                         _______ _______ _______ _____ _____    ______ ____
ROOT
ATOM      1  C   UNL     1      -1.488  -2.032   0.215  0.00  0.00    +0.074 C 
ENDROOT
BRANCH   1   2
ATOM      2  N   UNL     1      -0.851  -2.708   1.352  0.00  0.00    -0.287 NA
ATOM      3  C   UNL     1      -1.260  -4.120   1.423  0.00  0.00    +0.104 C 
ATOM      4  C   UNL     1      -0.348  -4.847   2.414  0.00  0.00    +0.119 C 
ATOM      5  N   UNL     1      -0.282  -4.105   3.670  0.00  0.00    -0.313 N 
ATOM      6  C   UNL     1      -0.633  -2.819   3.774  0.00  0.00    +0.227 C 
ATOM      7  O   UNL     1      -0.518  -2.271   4.849  0.00  0.00    -0.274 OA
ATOM      8  C   UNL     1      -1.165  -2.025   2.614  0.00  0.00    +0.181 C 
ATOM      9  H   UNL     1       0.031  -4.566   4.464  0.00  0.00    +0.149 HD
ENDBRANCH   1   2
BRANCH   1  10
ATOM     10  C   UNL     1      -1.066  -2.700  -1.068  0.00  0.00    -0.018 A 
ATOM     11  C   UNL     1       0.188  -3.274  -1.168  0.00  0.00    +0.006 A 
ATOM     12  C   UNL     1       0.575  -3.888  -2.345  0.00  0.00    +0.000 A 
ATOM     13  C   UNL     1      -0.291  -3.927  -3.422  0.00  0.00    +0.001 A 
ATOM     14  C   UNL     1      -1.544  -3.353  -3.323  0.00  0.00    +0.015 A 
ATOM     15  C   UNL     1      -1.934  -2.744  -2.144  0.00  0.00    +0.022 A 
ATOM     16 BR   UNL     1      -3.652  -1.965  -2.005  0.00  0.00    -0.050 Br
ENDBRANCH   1  10
BRANCH   1  17
ATOM     17  C   UNL     1      -1.060  -0.563   0.190  0.00  0.00    -0.053 C 
BRANCH  17  18
ATOM     18  N   UNL     1      -1.645   0.098  -0.985  0.00  0.00    +0.381 N 
ATOM     19  H   UNL     1      -1.332  -0.368  -1.824  0.00  0.00    -0.090 HD
ATOM     20  H   UNL     1      -2.652   0.051  -0.931  0.00  0.00    -0.090 HD
ATOM     21  H   UNL     1      -1.354   1.063  -1.008  0.00  0.00    -0.090 HD
ENDBRANCH  17  18
BRANCH  17  23
ATOM     22  C   UNL     1       0.900   0.986   0.216  0.00  0.00    +0.002 C 
ATOM     23  C   UNL     1       0.465  -0.477   0.116  0.00  0.00    -0.018 C 
ENDBRANCH  17  23
ENDBRANCH   1  17
TORSDOF 5
