REMARK  Name = ZINC08326284
REMARK  13 active torsions:
REMARK  status: ('A' for Active; 'I' for Inactive)
REMARK    1  A    between atoms: C_1  and  C_2
REMARK    2  A    between atoms: C_2  and  CA_3
REMARK    3  A    between atoms: CA_3  and  C_5
REMARK    4  A    between atoms: CA_3  and  N_50
REMARK    5  A    between atoms: C_5  and  O_6
REMARK    6  A    between atoms: C_7  and  C_8
REMARK    7  A    between atoms: C_7  and  N_50
REMARK    8  A    between atoms: C_10  and  O_24
REMARK    9  A    between atoms: C_11  and  O_15
REMARK   10  A    between atoms: O_15  and  C_16
REMARK   11  A    between atoms: C_16  and  C_17
REMARK   12  A    between atoms: O_24  and  C_25
REMARK   13  A    between atoms: C_25  and  C_26
REMARK                            x       y       z     vdW  Elec       q    Type
REMARK                         _______ _______ _______ _____ _____    ______ ____
ROOT
ATOM      1  C   UNL     1       3.637   3.350  -0.015  0.00  0.00    -0.059 A 
ATOM      2  C   UNL     1       3.041   3.023   1.188  0.00  0.00    +0.051 A 
ATOM      3  C   UNL     1       1.812   2.382   1.202  0.00  0.00    +0.164 A 
ATOM      4  C   UNL     1       1.186   2.059   0.002  0.00  0.00    +0.181 A 
ATOM      5  C   UNL     1       1.789   2.389  -1.202  0.00  0.00    +0.086 A 
ATOM      6  C   UNL     1       3.014   3.034  -1.208  0.00  0.00    +0.025 A 
ATOM      7 CL   UNL     1       1.009   1.993  -2.701  0.00  0.00    -0.080 Cl
ENDROOT
BRANCH   1   8
ATOM      8  C   UNL     1       4.970   4.052  -0.027  0.00  0.00    -0.046 C 
BRANCH   8   9
ATOM      9  N   UNL     1       4.749   5.510  -0.018  0.00  0.00    +0.385 N 
ATOM     10  H1  UNL     1       4.207   5.776  -0.849  0.00  0.00    -0.085 HD
ATOM     11  H2  UNL     1       4.226   5.768   0.827  0.00  0.00    -0.085 HD
BRANCH   9  12
ATOM     12  CA  UNL     1       6.039   6.225  -0.030  0.00  0.00    -0.046 C 
BRANCH  12  14
ATOM     13  C   UNL     1       5.434   7.484  -2.101  0.00  0.00    +0.002 C 
ATOM     14  C   UNL     1       5.837   7.617  -0.631  0.00  0.00    -0.017 C 
ENDBRANCH  12  14
BRANCH  12  15
ATOM     15  C   UNL     1       6.562   6.358   1.402  0.00  0.00    +0.140 C 
BRANCH  15  16
ATOM     16  O   UNL     1       5.672   7.182   2.159  0.00  0.00    -0.397 OA
ATOM     17  H   UNL     1       5.942   7.311   3.079  0.00  0.00    +0.209 HD
ENDBRANCH  15  16
ENDBRANCH  12  15
ENDBRANCH   9  12
ENDBRANCH   8   9
ENDBRANCH   1   8
BRANCH   4  18
ATOM     18  O   UNL     1      -0.017   1.425   0.010  0.00  0.00    -0.482 OA
BRANCH  18  19
ATOM     19  C   UNL     1       0.002  -0.004   0.002  0.00  0.00    +0.264 C 
BRANCH  19  20
ATOM     20  C   UNL     1      -1.412  -0.526   0.013  0.00  0.00    -0.010 A 
ATOM     21  C   UNL     1      -2.046  -0.777   1.215  0.00  0.00    +0.008 A 
ATOM     22  C   UNL     1      -3.345  -1.250   1.225  0.00  0.00    +0.020 A 
ATOM     23  C   UNL     1      -4.006  -1.483   0.032  0.00  0.00    +0.041 A 
ATOM     24  C   UNL     1      -3.368  -1.237  -1.171  0.00  0.00    +0.020 A 
ATOM     25  C   UNL     1      -2.071  -0.758  -1.180  0.00  0.00    +0.008 A 
ATOM     26 CL   UNL     1      -5.635  -2.083   0.045  0.00  0.00    -0.084 Cl
ENDBRANCH  19  20
ENDBRANCH  18  19
ENDBRANCH   4  18
BRANCH   3  27
ATOM     27  O   UNL     1       1.221   2.066   2.385  0.00  0.00    -0.489 OA
BRANCH  27  28
ATOM     28  C   UNL     1       1.921   2.429   3.577  0.00  0.00    +0.226 C 
ATOM     29  C   UNL     1       1.108   1.995   4.798  0.00  0.00    +0.048 C 
ENDBRANCH  27  28
ENDBRANCH   3  27
TORSDOF 11
