REMARK  Name = ZINC55309489
REMARK  12 active torsions:
REMARK  status: ('A' for Active; 'I' for Inactive)
REMARK    1  A    between atoms: C_1  and  C_2
REMARK    2  A    between atoms: C_2  and  C_3
REMARK    3  A    between atoms: C_2  and  N_4
REMARK    4  A    between atoms: N_4  and  C_5
REMARK    5  A    between atoms: C_5  and  C_6
REMARK    6  A    between atoms: C_5  and  C_7
REMARK    7  A    between atoms: C_5  and  C_19
REMARK    8  A    between atoms: C_7  and  C_8
REMARK    9  A    between atoms: C_8  and  C_9
REMARK   10  A    between atoms: C_9  and  C_10
REMARK   11  A    between atoms: C_10  and  S_11
REMARK   12  A    between atoms: S_11  and  C_12
REMARK                            x       y       z     vdW  Elec       q    Type
REMARK                         _______ _______ _______ _____ _____    ______ ____
ROOT
ATOM      1  C   UNL     1      -0.160  -0.581   2.144  0.00  0.00    +0.007 C 
ATOM      2  C   UNL     1      -0.003   0.862   2.626  0.00  0.00    -0.001 C 
ENDROOT
BRANCH   1   3
ATOM      3  C   UNL     1      -1.616  -0.869   1.886  0.00  0.00    +0.199 C 
ATOM      4  O   UNL     1      -2.471  -0.175   2.395  0.00  0.00    -0.278 OA
ATOM      5  N   UNL     1      -1.969  -1.897   1.089  0.00  0.00    -0.330 N 
ATOM      6  H   UNL     1      -1.286  -2.452   0.682  0.00  0.00    +0.145 HD
ATOM      7  H   UNL     1      -2.907  -2.082   0.923  0.00  0.00    +0.145 HD
ENDBRANCH   1   3
BRANCH   1   8
ATOM      8  N   UNL     1       0.604  -0.769   0.903  0.00  0.00    +0.390 N 
ATOM      9  H   UNL     1       0.405  -1.681   0.521  0.00  0.00    -0.084 HD
ATOM     10  H   UNL     1       1.591  -0.695   1.101  0.00  0.00    -0.084 HD
BRANCH   8  12
ATOM     11  C   UNL     1       1.147   0.189  -1.284  0.00  0.00    -0.014 C 
ATOM     12  C   UNL     1       0.221   0.264  -0.068  0.00  0.00    -0.077 C 
ATOM     13  C   UNL     1      -1.225   0.035  -0.513  0.00  0.00    -0.014 C 
ENDBRANCH   8  12
ENDBRANCH   1   8
BRANCH   1  14
ATOM     14  C   UNL     1       0.366  -1.537   3.217  0.00  0.00    -0.004 C 
BRANCH  14  15
ATOM     15  C   UNL     1      -0.429  -1.342   4.509  0.00  0.00    -0.000 C 
BRANCH  15  16
ATOM     16  C   UNL     1       0.098  -2.298   5.581  0.00  0.00    +0.011 C 
BRANCH  16  17
ATOM     17  C   UNL     1      -0.698  -2.102   6.873  0.00  0.00    +0.074 C 
BRANCH  17  18
ATOM     18  S   UNL     1      -0.074  -3.236   8.145  0.00  0.00    -0.125 S 
BRANCH  18  19
ATOM     19  C   UNL     1      -1.078  -2.893   9.552  0.00  0.00    +0.009 A 
ATOM     20  C   UNL     1      -2.076  -1.928   9.477  0.00  0.00    +0.015 A 
ATOM     21  C   UNL     1      -2.861  -1.662  10.581  0.00  0.00    +0.002 A 
ATOM     22  C   UNL     1      -2.656  -2.354  11.761  0.00  0.00    +0.015 A 
ATOM     23  C   UNL     1      -1.663  -3.314  11.839  0.00  0.00    +0.019 A 
ATOM     24  C   UNL     1      -0.878  -3.590  10.737  0.00  0.00    +0.030 A 
ATOM     25 BR   UNL     1      -1.387  -4.256  13.456  0.00  0.00    -0.050 Br
ENDBRANCH  18  19
ENDBRANCH  17  18
ENDBRANCH  16  17
ENDBRANCH  15  16
ENDBRANCH  14  15
ENDBRANCH   1  14
TORSDOF 9
