REMARK  Name = ZINC52858682
REMARK  11 active torsions:
REMARK  status: ('A' for Active; 'I' for Inactive)
REMARK    1  A    between atoms: C_1  and  C_2
REMARK    2  A    between atoms: C_2  and  C_3
REMARK    3  A    between atoms: C_2  and  C_4
REMARK    4  A    between atoms: C_4  and  C_6
REMARK    5  A    between atoms: C_4  and  N_10
REMARK    6  A    between atoms: C_6  and  N_7
REMARK    7  A    between atoms: N_7  and  C_8
REMARK    8  A    between atoms: N_7  and  C_9
REMARK    9  A    between atoms: N_10  and  C_11
REMARK   10  A    between atoms: C_16  and  C_17
REMARK   11  A    between atoms: C_17  and  N_19
REMARK                            x       y       z     vdW  Elec       q    Type
REMARK                         _______ _______ _______ _____ _____    ______ ____
ROOT
ATOM      1  C   UNL     1      -1.926  -0.903  -2.357  0.00  0.00    +0.037 A 
ATOM      2  C   UNL     1      -1.498  -2.222  -2.275  0.00  0.00    +0.025 A 
ATOM      3  C   UNL     1      -1.485  -3.017  -3.402  0.00  0.00    +0.022 A 
ATOM      4  C   UNL     1      -1.897  -2.508  -4.625  0.00  0.00    +0.042 A 
ATOM      5  C   UNL     1      -2.325  -1.202  -4.727  0.00  0.00    +0.032 A 
ATOM      6  C   UNL     1      -2.349  -0.386  -3.592  0.00  0.00    +0.025 A 
ATOM      7 CL   UNL     1      -1.873  -3.522  -6.034  0.00  0.00    -0.084 Cl
ENDROOT
BRANCH   1   8
ATOM      8  N   UNL     1      -1.940  -0.101  -1.222  0.00  0.00    -0.342 N 
ATOM      9  H   UNL     1      -2.298   0.800  -1.269  0.00  0.00    +0.146 HD
BRANCH   8  10
ATOM     10  C   UNL     1      -1.414  -0.615   0.045  0.00  0.00    +0.056 C 
BRANCH  10  12
ATOM     11  C   UNL     1       0.377   1.126   0.129  0.00  0.00    +0.009 C 
ATOM     12  C   UNL     1       0.097  -0.378   0.103  0.00  0.00    +0.001 C 
ATOM     13  C   UNL     1       0.665  -1.025   1.368  0.00  0.00    +0.009 C 
ENDBRANCH  10  12
BRANCH  10  14
ATOM     14  C   UNL     1      -2.090   0.112   1.210  0.00  0.00    -0.057 C 
BRANCH  14  15
ATOM     15  N   UNL     1      -3.546  -0.057   1.113  0.00  0.00    +0.377 N 
ATOM     16  C   UNL     1      -3.891  -1.468   1.327  0.00  0.00    -0.097 C 
ATOM     17  C   UNL     1      -4.203   0.768   2.136  0.00  0.00    -0.097 C 
ATOM     18  H   UNL     1      -3.857   0.231   0.198  0.00  0.00    -0.083 HD
ENDBRANCH  14  15
ENDBRANCH  10  14
ENDBRANCH   8  10
ENDBRANCH   1   8
BRANCH   6  19
ATOM     19  C   UNL     1      -2.811   1.009  -3.692  0.00  0.00    +0.079 C 
ATOM     20  S   UNL     1      -1.719   2.240  -4.164  0.00  0.00    -0.035 S 
BRANCH  19  21
ATOM     21  N   UNL     1      -4.093   1.316  -3.412  0.00  0.00    -0.352 N 
ATOM     22  H   UNL     1      -4.711   0.619  -3.144  0.00  0.00    +0.143 HD
ATOM     23  H   UNL     1      -4.397   2.235  -3.477  0.00  0.00    +0.143 HD
ENDBRANCH  19  21
ENDBRANCH   6  19
TORSDOF 7
