REMARK  Name = ZINC62788863
REMARK  5 active torsions:
REMARK  status: ('A' for Active; 'I' for Inactive)
REMARK    1  A    between atoms: C_1  and  N_2
REMARK    2  A    between atoms: N_2  and  C_3
REMARK    3  A    between atoms: N_2  and  C_11
REMARK    4  A    between atoms: C_3  and  C_4
REMARK    5  A    between atoms: C_16  and  C_17
REMARK                            x       y       z     vdW  Elec       q    Type
REMARK                         _______ _______ _______ _____ _____    ______ ____
ROOT
ATOM      1  C   UNL     1       0.113  -0.333  -1.110  0.00  0.00    +0.042 A 
ATOM      2  C   UNL     1       1.282  -0.742  -1.737  0.00  0.00    +0.043 A 
ATOM      3  C   UNL     1       1.259  -1.124  -3.064  0.00  0.00    +0.043 A 
ATOM      4  C   UNL     1       0.070  -1.102  -3.779  0.00  0.00    +0.021 A 
ATOM      5  C   UNL     1      -1.099  -0.699  -3.173  0.00  0.00    +0.014 A 
ATOM      6  C   UNL     1      -1.091  -0.315  -1.830  0.00  0.00    +0.033 A 
ATOM      7 CL   UNL     1       2.725  -1.634  -3.841  0.00  0.00    -0.083 Cl
ENDROOT
BRANCH   6   8
ATOM      8  C   UNL     1      -2.342   0.112  -1.174  0.00  0.00    +0.096 C 
ATOM      9  N   UNL     1      -2.424   1.321  -0.618  0.00  0.00    -0.387 N 
ATOM     10  N   UNL     1      -3.390  -0.711  -1.137  0.00  0.00    -0.345 N 
ATOM     11  H   UNL     1      -3.212   1.568  -0.109  0.00  0.00    +0.157 HD
ATOM     12  H   UNL     1      -3.310  -1.614  -1.482  0.00  0.00    +0.144 HD
ATOM     13  H   UNL     1      -4.233  -0.407  -0.765  0.00  0.00    +0.144 HD
ATOM     14  H   UNL     1      -1.696   1.954  -0.724  0.00  0.00    +0.157 HD
ENDBRANCH   6   8
BRANCH   1  16
ATOM     15  C   UNL     1       0.234   1.470   0.577  0.00  0.00    +0.129 C 
ATOM     16  N   UNL     1       0.133   0.051   0.225  0.00  0.00    -0.328 N 
BRANCH  16  17
ATOM     17  C   UNL     1       0.054  -0.962   1.280  0.00  0.00    +0.141 C 
BRANCH  17  18
ATOM     18  C   UNL     1      -1.391  -1.298   1.546  0.00  0.00    -0.016 A 
ATOM     19  C   UNL     1      -2.077  -0.649   2.555  0.00  0.00    +0.006 A 
ATOM     20  C   UNL     1      -3.402  -0.958   2.799  0.00  0.00    +0.000 A 
ATOM     21  C   UNL     1      -4.042  -1.915   2.033  0.00  0.00    +0.001 A 
ATOM     22  C   UNL     1      -3.356  -2.564   1.024  0.00  0.00    +0.015 A 
ATOM     23  C   UNL     1      -2.031  -2.252   0.777  0.00  0.00    +0.023 A 
ATOM     24 BR   UNL     1      -1.095  -3.136  -0.609  0.00  0.00    -0.050 Br
ENDBRANCH  17  18
ENDBRANCH  16  17
ENDBRANCH   1  16
TORSDOF 4
