REMARK  Name = ZINC43677031
REMARK  10 active torsions:
REMARK  status: ('A' for Active; 'I' for Inactive)
REMARK    1  A    between atoms: C_1  and  C_2
REMARK    2  A    between atoms: C_2  and  C_3
REMARK    3  A    between atoms: C_3  and  O_4
REMARK    4  A    between atoms: O_4  and  C_5
REMARK    5  A    between atoms: C_8  and  C_19
REMARK    6  A    between atoms: C_9  and  O_11
REMARK    7  A    between atoms: O_11  and  C_12
REMARK    8  A    between atoms: C_12  and  C_13
REMARK    9  A    between atoms: C_19  and  C_20
REMARK   10  A    between atoms: C_20  and  N_21
REMARK                            x       y       z     vdW  Elec       q    Type
REMARK                         _______ _______ _______ _____ _____    ______ ____
ROOT
ATOM      1  C   UNL     1      -2.616  -2.596   0.013  0.00  0.00    +0.124 A 
ATOM      2  C   UNL     1      -3.791  -1.856   0.023  0.00  0.00    +0.046 A 
ATOM      3  C   UNL     1      -5.013  -2.500   0.031  0.00  0.00    +0.011 A 
ATOM      4  C   UNL     1      -5.070  -3.881   0.030  0.00  0.00    -0.007 A 
ATOM      5  C   UNL     1      -3.899  -4.624   0.021  0.00  0.00    +0.128 A 
ATOM      6  C   UNL     1      -2.671  -3.981   0.006  0.00  0.00    +0.091 A 
ENDROOT
BRANCH   1   7
ATOM      7  O   UNL     1      -1.414  -1.962   0.005  0.00  0.00    -0.492 OA
BRANCH   7   8
ATOM      8  C   UNL     1      -1.433  -0.534   0.013  0.00  0.00    +0.229 C 
BRANCH   8  10
ATOM      9  C   UNL     1      -0.019   1.526   0.010  0.00  0.00    +0.007 C 
ATOM     10  C   UNL     1       0.002  -0.004   0.002  0.00  0.00    +0.038 C 
ENDBRANCH   8  10
ENDBRANCH   7   8
ENDBRANCH   1   7
BRANCH   5  11
ATOM     11  O   UNL     1      -3.955  -5.982   0.020  0.00  0.00    -0.486 OA
BRANCH  11  12
ATOM     12  C   UNL     1      -2.710  -6.683   0.010  0.00  0.00    +0.272 C 
BRANCH  12  13
ATOM     13  C   UNL     1      -2.970  -8.168   0.011  0.00  0.00    +0.041 A 
ATOM     14  C   UNL     1      -3.119  -9.009  -1.042  0.00  0.00    +0.031 A 
ATOM     15  C   UNL     1      -3.353 -10.350  -0.800  0.00  0.00    +0.023 A 
ATOM     16  C   UNL     1      -3.425 -10.784   0.482  0.00  0.00    +0.046 A 
ATOM     17  S   UNL     1      -3.152  -9.276   1.398  0.00  0.00    -0.097 S 
ATOM     18 BR   UNL     1      -3.011  -8.358  -2.814  0.00  0.00    -0.049 Br
ENDBRANCH  12  13
ENDBRANCH  11  12
ENDBRANCH   5  11
BRANCH   4  19
ATOM     19  C   UNL     1      -6.405  -4.579   0.040  0.00  0.00    +0.019 C 
BRANCH  19  20
ATOM     20  C   UNL     1      -6.788  -4.928   1.480  0.00  0.00    -0.082 C 
BRANCH  20  21
ATOM     21  N   UNL     1      -8.089  -5.609   1.490  0.00  0.00    +0.378 N 
ATOM     22  H   UNL     1      -8.341  -5.839   2.439  0.00  0.00    -0.090 HD
ATOM     23  H   UNL     1      -8.790  -5.001   1.094  0.00  0.00    -0.090 HD
ATOM     24  H   UNL     1      -8.030  -6.455   0.943  0.00  0.00    -0.090 HD
ENDBRANCH  20  21
ENDBRANCH  19  20
ENDBRANCH   4  19
TORSDOF 9
