REMARK  Name = ZINC16957850
REMARK  11 active torsions:
REMARK  status: ('A' for Active; 'I' for Inactive)
REMARK    1  A    between atoms: C_4  and  C_7
REMARK    2  A    between atoms: C_10  and  C_11
REMARK    3  A    between atoms: C_14  and  N_17
REMARK    4  A    between atoms: N_17  and  C_18
REMARK    5  A    between atoms: N_17  and  C_22
REMARK    6  A    between atoms: C_18  and  C_19
REMARK    7  A    between atoms: C_19  and  C_20
REMARK    8  A    between atoms: C_22  and  C_23
REMARK    9  A    between atoms: C_23  and  C_24
REMARK   10  A    between atoms: N_27  and  N_28
REMARK   11  A    between atoms: C_29  and  C_31
REMARK                            x       y       z     vdW  Elec       q    Type
REMARK                         _______ _______ _______ _____ _____    ______ ____
ROOT
ATOM      1  C   UNL     1       3.728  -0.623   0.070  0.00  0.00    +0.123 C 
ATOM      2  N   UNL     1       4.813  -0.157  -0.484  0.00  0.00    -0.344 N 
ATOM      3  C   UNL     1       5.832  -1.036  -0.439  0.00  0.00    +0.037 C 
ATOM      4  C   UNL     1       7.080  -0.858  -0.921  0.00  0.00    +0.030 C 
ATOM      5  C   UNL     1       5.293  -2.265   0.265  0.00  0.00    +0.182 C 
ATOM      6  N   UNL     1       3.897  -1.895   0.567  0.00  0.00    -0.229 N 
ATOM      7  H   UNL     1       4.878   0.724  -0.883  0.00  0.00    +0.167 HD
ENDROOT
BRANCH   1  11
ATOM      8  C   UNL     1       0.087   1.547   0.326  0.00  0.00    +0.000 A 
ATOM      9  C   UNL     1       1.294   2.224   0.318  0.00  0.00    +0.001 A 
ATOM     10  C   UNL     1       2.480   1.526   0.235  0.00  0.00    +0.011 A 
ATOM     11  C   UNL     1       2.462   0.131   0.159  0.00  0.00    +0.014 A 
ATOM     12  C   UNL     1       1.240  -0.546   0.168  0.00  0.00    +0.011 A 
ATOM     13  C   UNL     1       0.062   0.165   0.251  0.00  0.00    +0.001 A 
ENDBRANCH   1  11
BRANCH   4  14
ATOM     14  C   UNL     1       7.394   0.333  -1.728  0.00  0.00    -0.023 A 
ATOM     15  C   UNL     1       8.703   0.825  -1.771  0.00  0.00    +0.010 A 
ATOM     16  C   UNL     1       8.993   1.939  -2.527  0.00  0.00    +0.024 A 
ATOM     17  C   UNL     1       7.987   2.575  -3.247  0.00  0.00    +0.030 A 
ATOM     18  C   UNL     1       6.684   2.089  -3.207  0.00  0.00    +0.024 A 
ATOM     19  C   UNL     1       6.386   0.972  -2.457  0.00  0.00    +0.010 A 
BRANCH  17  20
ATOM     20  N   UNL     1       8.285   3.704  -4.011  0.00  0.00    -0.329 N 
BRANCH  20  21
ATOM     21  C   UNL     1       7.227   4.375  -4.770  0.00  0.00    +0.110 C 
BRANCH  21  22
ATOM     22  C   UNL     1       6.578   5.452  -3.898  0.00  0.00    +0.065 C 
BRANCH  22  23
ATOM     23  C   UNL     1       5.490   6.143  -4.679  0.00  0.00    +0.075 C 
ATOM     24  N   UNL     1       4.302   6.199  -4.207  0.00  0.00    -0.312 NA
ATOM     25  H   UNL     1       3.601   6.644  -4.710  0.00  0.00    +0.186 HD
ENDBRANCH  22  23
ENDBRANCH  21  22
ENDBRANCH  20  21
BRANCH  20  26
ATOM     26  C   UNL     1       9.656   4.218  -4.055  0.00  0.00    +0.110 C 
BRANCH  26  27
ATOM     27  C   UNL     1      10.414   3.554  -5.206  0.00  0.00    +0.065 C 
BRANCH  27  28
ATOM     28  C   UNL     1      11.824   4.083  -5.251  0.00  0.00    +0.075 C 
ATOM     29  N   UNL     1      12.813   3.272  -5.212  0.00  0.00    -0.312 NA
ATOM     30  H   UNL     1      13.721   3.612  -5.240  0.00  0.00    +0.186 HD
ENDBRANCH  27  28
ENDBRANCH  26  27
ENDBRANCH  20  26
ENDBRANCH  17  20
ENDBRANCH   4  14
BRANCH   6  31
ATOM     31  N   UNL     1       2.940  -2.680   1.222  0.00  0.00    -0.228 N 
ATOM     32  C   UNL     1       2.356  -3.709   0.577  0.00  0.00    +0.260 C 
ATOM     33  O   UNL     1       2.660  -3.957  -0.573  0.00  0.00    -0.269 OA
ATOM     34  H   UNL     1       2.696  -2.482   2.140  0.00  0.00    +0.173 HD
BRANCH  32  35
ATOM     35  C   UNL     1       1.345  -4.537   1.269  0.00  0.00    +0.038 A 
ATOM     36  C   UNL     1       0.989  -4.251   2.588  0.00  0.00    +0.014 A 
ATOM     37  C   UNL     1       0.046  -5.027   3.228  0.00  0.00    +0.021 A 
ATOM     38  C   UNL     1      -0.548  -6.088   2.565  0.00  0.00    +0.041 A 
ATOM     39  C   UNL     1      -0.199  -6.376   1.256  0.00  0.00    +0.021 A 
ATOM     40  C   UNL     1       0.739  -5.604   0.603  0.00  0.00    +0.014 A 
ATOM     41 CL   UNL     1      -1.735  -7.060   3.377  0.00  0.00    -0.084 Cl
ENDBRANCH  32  35
ENDBRANCH   6  31
TORSDOF 11
