REMARK  Name = ZINC09114348
REMARK  7 active torsions:
REMARK  status: ('A' for Active; 'I' for Inactive)
REMARK    1  A    between atoms: C_1  and  C_2
REMARK    2  A    between atoms: C_4  and  C_27
REMARK    3  A    between atoms: C_14  and  C_17
REMARK    4  A    between atoms: C_19  and  O_26
REMARK    5  A    between atoms: C_20  and  O_25
REMARK    6  A    between atoms: C_21  and  O_23
REMARK    7  A    between atoms: O_23  and  C_24
REMARK                            x       y       z     vdW  Elec       q    Type
REMARK                         _______ _______ _______ _____ _____    ______ ____
ROOT
ATOM      1  C   UNL     1       6.108   3.406  -4.118  0.00  0.00    +0.044 C 
ATOM      2  C   UNL     1       7.525   3.729  -3.719  0.00  0.00    -0.037 A 
ATOM      3  C   UNL     1       8.482   4.102  -4.645  0.00  0.00    +0.027 A 
ATOM      4  C   UNL     1       9.783   4.398  -4.280  0.00  0.00    +0.040 A 
ATOM      5  N   UNL     1      10.194   4.343  -3.019  0.00  0.00    -0.245 NA
ATOM      6  C   UNL     1       9.318   3.995  -2.102  0.00  0.00    +0.111 A 
ATOM      7  C   UNL     1       7.960   3.669  -2.369  0.00  0.00    +0.032 A 
ATOM      8  C   UNL     1       7.156   3.306  -1.219  0.00  0.00    +0.058 A 
ATOM      9  C   UNL     1       7.804   3.331   0.013  0.00  0.00    +0.097 A 
ATOM     10  S   UNL     1       9.465   3.814  -0.349  0.00  0.00    -0.062 S 
ATOM     11  C   UNL     1       7.178   3.032   1.236  0.00  0.00    +0.254 C 
ATOM     12  O   UNL     1       7.804   2.881   2.270  0.00  0.00    -0.270 OA
ATOM     13  N   UNL     1       5.824   2.923   1.180  0.00  0.00    -0.289 N 
ATOM     14  C   UNL     1       5.110   3.328  -0.029  0.00  0.00    +0.190 C 
ATOM     15  N   UNL     1       5.801   2.936  -1.257  0.00  0.00    -0.321 N 
ATOM     16  C   UNL     1      10.767   4.794  -5.349  0.00  0.00    +0.065 C 
ATOM     17  H   UNL     1       5.332   2.578   1.942  0.00  0.00    +0.151 HD
ATOM     18  H   UNL     1       5.701   1.946  -1.428  0.00  0.00    +0.148 HD
ENDROOT
BRANCH  14  19
ATOM     19  C   UNL     1       3.742   2.696  -0.019  0.00  0.00    -0.002 A 
ATOM     20  C   UNL     1       3.104   2.413  -1.213  0.00  0.00    +0.056 A 
ATOM     21  C   UNL     1       1.846   1.832  -1.208  0.00  0.00    +0.162 A 
ATOM     22  C   UNL     1       1.225   1.533  -0.001  0.00  0.00    +0.201 A 
ATOM     23  C   UNL     1       1.866   1.824   1.196  0.00  0.00    +0.165 A 
ATOM     24  C   UNL     1       3.127   2.401   1.183  0.00  0.00    +0.056 A 
BRANCH  23  25
ATOM     25  O   UNL     1       1.260   1.539   2.380  0.00  0.00    -0.491 OA
ATOM     26  C   UNL     1       1.978   1.865   3.572  0.00  0.00    +0.277 C 
ENDBRANCH  23  25
BRANCH  22  27
ATOM     27  O   UNL     1      -0.011   0.963   0.007  0.00  0.00    -0.501 OA
ATOM     28  H   UNL     1       0.002  -0.004   0.002  0.00  0.00    +0.292 HD
ENDBRANCH  22  27
BRANCH  21  29
ATOM     29  O   UNL     1       1.220   1.553  -2.383  0.00  0.00    -0.503 OA
ATOM     30  H   UNL     1       0.668   2.275  -2.716  0.00  0.00    +0.292 HD
ENDBRANCH  21  29
ENDBRANCH  14  19
TORSDOF 4
