REMARK  Name = ZINC57845466
REMARK  8 active torsions:
REMARK  status: ('A' for Active; 'I' for Inactive)
REMARK    1  A    between atoms: C_1  and  C_2
REMARK    2  A    between atoms: C_2  and  C_3
REMARK    3  A    between atoms: C_3  and  C_15
REMARK    4  A    between atoms: N_6  and  C_10
REMARK    5  A    between atoms: C_10  and  C_12
REMARK    6  A    between atoms: C_10  and  C_13
REMARK    7  A    between atoms: C_13  and  N_14
REMARK    8  A    between atoms: C_19  and  C_21
REMARK                            x       y       z     vdW  Elec       q    Type
REMARK                         _______ _______ _______ _____ _____    ______ ____
ROOT
ATOM      1  C   UNL     1      -1.433  -0.534   0.013  0.00  0.00    +0.138 C 
ATOM      2  C   UNL     1      -2.192  -0.043  -1.205  0.00  0.00    +0.251 C 
ATOM      3  O   UNL     1      -1.933  -0.267  -2.368  0.00  0.00    -0.272 OA
ATOM      4  N   UNL     1      -3.214   0.692  -0.725  0.00  0.00    -0.223 N 
ATOM      5  C   UNL     1      -3.207   0.734   0.612  0.00  0.00    +0.310 C 
ATOM      6  O   UNL     1      -4.031   1.335   1.273  0.00  0.00    -0.252 OA
ATOM      7  N   UNL     1      -2.187   0.036   1.143  0.00  0.00    -0.281 N 
ATOM      8  H   UNL     1      -1.987  -0.072   2.086  0.00  0.00    +0.152 HD
ENDROOT
BRANCH   1   9
ATOM      9  C   UNL     1      -1.441  -2.039   0.076  0.00  0.00    -0.015 A 
ATOM     10  C   UNL     1      -0.400  -2.759  -0.481  0.00  0.00    +0.007 A 
ATOM     11  C   UNL     1      -0.406  -4.140  -0.424  0.00  0.00    +0.020 A 
ATOM     12  C   UNL     1      -1.455  -4.802   0.190  0.00  0.00    +0.044 A 
ATOM     13  C   UNL     1      -2.496  -4.081   0.747  0.00  0.00    -0.032 A 
ATOM     14  C   UNL     1      -2.486  -2.700   0.694  0.00  0.00    +0.011 A 
ATOM     15  C   UNL     1      -3.638  -4.801   1.416  0.00  0.00    +0.045 C 
ATOM     16 CL   UNL     1      -1.464  -6.537   0.261  0.00  0.00    -0.083 Cl
ENDBRANCH   1   9
BRANCH   1  18
ATOM     17  C   UNL     1      -0.019   1.526   0.010  0.00  0.00    +0.007 C 
ATOM     18  C   UNL     1       0.002  -0.004   0.002  0.00  0.00    +0.037 C 
ENDBRANCH   1  18
BRANCH   4  19
ATOM     19  C   UNL     1      -4.210   1.363  -1.565  0.00  0.00    +0.065 C 
ATOM     20  C   UNL     1      -5.604   0.826  -1.231  0.00  0.00    +0.026 C 
BRANCH  19  21
ATOM     21  C   UNL     1      -4.167   2.869  -1.301  0.00  0.00    -0.063 C 
BRANCH  21  22
ATOM     22  N   UNL     1      -2.799   3.364  -1.506  0.00  0.00    +0.379 N 
ATOM     23  H   UNL     1      -2.173   2.893  -0.871  0.00  0.00    -0.090 HD
ATOM     24  H   UNL     1      -2.514   3.180  -2.457  0.00  0.00    -0.090 HD
ATOM     25  H   UNL     1      -2.771   4.357  -1.333  0.00  0.00    -0.090 HD
ENDBRANCH  21  22
ENDBRANCH  19  21
ENDBRANCH   4  19
TORSDOF 5
