REMARK  Name = ZINC40661807
REMARK  8 active torsions:
REMARK  status: ('A' for Active; 'I' for Inactive)
REMARK    1  A    between atoms: C_1  and  C_2
REMARK    2  A    between atoms: C_2  and  N_3
REMARK    3  A    between atoms: N_3  and  C_4
REMARK    4  A    between atoms: C_8  and  C_10
REMARK    5  A    between atoms: C_12  and  N_25
REMARK    6  A    between atoms: C_13  and  N_17
REMARK    7  A    between atoms: N_17  and  C_18
REMARK    8  A    between atoms: C_23  and  C_24
REMARK                            x       y       z     vdW  Elec       q    Type
REMARK                         _______ _______ _______ _____ _____    ______ ____
ROOT
ATOM      1  N   UNL     1      -1.442  -0.556  -0.013  0.00  0.00    -0.284 N 
ATOM      2  C   UNL     1      -1.956  -0.761   1.263  0.00  0.00    +0.151 A 
ATOM      3  C   UNL     1      -1.193  -0.454   2.392  0.00  0.00    +0.104 A 
ATOM      4  C   UNL     1      -1.757  -0.679   3.649  0.00  0.00    +0.126 A 
ATOM      5  N   UNL     1      -2.990  -1.174   3.723  0.00  0.00    -0.333 N 
ATOM      6  C   UNL     1      -3.676  -1.450   2.633  0.00  0.00    +0.200 A 
ATOM      7  N   UNL     1      -3.183  -1.248   1.427  0.00  0.00    -0.220 NA
ATOM      8  H   UNL     1      -3.390  -1.333   4.593  0.00  0.00    +0.168 HD
ENDROOT
BRANCH   1   9
ATOM      9  C   UNL     1      -0.823  -1.607  -0.694  0.00  0.00    +0.035 A 
ATOM     10  C   UNL     1      -0.214  -1.378  -1.922  0.00  0.00    +0.023 A 
ATOM     11  C   UNL     1       0.398  -2.419  -2.592  0.00  0.00    +0.002 A 
ATOM     12  C   UNL     1       0.405  -3.688  -2.043  0.00  0.00    +0.003 A 
ATOM     13  C   UNL     1      -0.200  -3.920  -0.821  0.00  0.00    -0.049 A 
ATOM     14  C   UNL     1      -0.809  -2.882  -0.143  0.00  0.00    +0.026 A 
ATOM     15  C   UNL     1      -0.191  -5.304  -0.227  0.00  0.00    +0.044 C 
ENDBRANCH   1   9
BRANCH   3  16
ATOM     16  N   UNL     1       0.104   0.066   2.266  0.00  0.00    -0.353 N 
ATOM     17  H   UNL     1       0.511   0.148   1.389  0.00  0.00    +0.143 HD
ATOM     18  H   UNL     1       0.595   0.344   3.056  0.00  0.00    +0.143 HD
ENDBRANCH   3  16
BRANCH   1  20
ATOM     19  C   UNL     1      -2.789   0.797  -1.542  0.00  0.00    +0.025 C 
ATOM     20  C   UNL     1      -1.551   0.762  -0.643  0.00  0.00    +0.109 C 
ENDBRANCH   1  20
BRANCH   4  21
ATOM     21  N   UNL     1      -1.041  -0.391   4.806  0.00  0.00    -0.299 N 
ATOM     22  H   UNL     1      -0.175   0.042   4.745  0.00  0.00    +0.154 HD
BRANCH  21  23
ATOM     23  C   UNL     1      -1.569  -0.725   6.056  0.00  0.00    +0.035 A 
ATOM     24  C   UNL     1      -2.095   0.266   6.876  0.00  0.00    +0.023 A 
ATOM     25  C   UNL     1      -2.616  -0.068   8.110  0.00  0.00    +0.002 A 
ATOM     26  C   UNL     1      -2.615  -1.385   8.531  0.00  0.00    +0.000 A 
ATOM     27  C   UNL     1      -2.092  -2.373   7.717  0.00  0.00    +0.005 A 
ATOM     28  C   UNL     1      -1.574  -2.048   6.478  0.00  0.00    -0.029 A 
ATOM     29  C   UNL     1      -1.009  -3.126   5.589  0.00  0.00    +0.045 C 
ENDBRANCH  21  23
ENDBRANCH   4  21
TORSDOF 5
