REMARK  Name = ZINC13865104
REMARK  10 active torsions:
REMARK  status: ('A' for Active; 'I' for Inactive)
REMARK    1  A    between atoms: C_1  and  C_2
REMARK    2  A    between atoms: C_2  and  N_9
REMARK    3  A    between atoms: N_9  and  C_10
REMARK    4  A    between atoms: C_10  and  N_12
REMARK    5  A    between atoms: N_12  and  C_13
REMARK    6  A    between atoms: C_16  and  N_19
REMARK    7  A    between atoms: N_19  and  C_20
REMARK    8  A    between atoms: C_20  and  N_21
REMARK    9  A    between atoms: N_21  and  C_22
REMARK   10  A    between atoms: C_22  and  C_29
REMARK                            x       y       z     vdW  Elec       q    Type
REMARK                         _______ _______ _______ _____ _____    ______ ____
ROOT
ATOM      1  C   UNL     1       0.783  -0.448  -4.853  0.00  0.00    +0.033 A 
ATOM      2  C   UNL     1      -0.229   0.502  -4.897  0.00  0.00    +0.025 A 
ATOM      3  C   UNL     1      -0.586   1.076  -6.101  0.00  0.00    +0.025 A 
ATOM      4  C   UNL     1       0.067   0.703  -7.268  0.00  0.00    +0.033 A 
ATOM      5  C   UNL     1       1.079  -0.247  -7.225  0.00  0.00    +0.025 A 
ATOM      6  C   UNL     1       1.439  -0.817  -6.020  0.00  0.00    +0.025 A 
ENDROOT
BRANCH   1   7
ATOM      7  N   UNL     1       1.145  -1.030  -3.632  0.00  0.00    -0.297 N 
ATOM      8  H   UNL     1       1.226  -0.479  -2.837  0.00  0.00    +0.154 HD
BRANCH   7   9
ATOM      9  C   UNL     1       1.380  -2.355  -3.560  0.00  0.00    +0.135 C 
ATOM     10  S   UNL     1       1.105  -3.349  -4.927  0.00  0.00    -0.019 S 
BRANCH   9  11
ATOM     11  N   UNL     1       1.833  -2.898  -2.412  0.00  0.00    -0.319 N 
ATOM     12  H   UNL     1       1.917  -2.350  -1.617  0.00  0.00    +0.148 HD
BRANCH  11  14
ATOM     13  C   UNL     1       3.320  -4.563  -3.377  0.00  0.00    +0.033 C 
ATOM     14  C   UNL     1       2.198  -4.316  -2.367  0.00  0.00    +0.052 C 
ATOM     15  C   UNL     1       2.728  -4.640  -0.952  0.00  0.00    +0.191 C 
ATOM     16  S   UNL     1       1.233  -5.389  -0.170  0.00  0.00    -0.029 S 
ATOM     17  O   UNL     1       0.373  -4.354   0.287  0.00  0.00    -0.174 OA
ATOM     18  O   UNL     1       1.635  -6.418   0.724  0.00  0.00    -0.174 OA
ATOM     19  C   UNL     1       0.521  -6.145  -1.696  0.00  0.00    +0.168 C 
ATOM     20  C   UNL     1       0.987  -5.142  -2.775  0.00  0.00    +0.049 C 
ENDBRANCH  11  14
ENDBRANCH   9  11
ENDBRANCH   7   9
ENDBRANCH   1   7
BRANCH   4  21
ATOM     21  N   UNL     1      -0.296   1.284  -8.490  0.00  0.00    -0.297 N 
ATOM     22  H   UNL     1      -1.233   1.377  -8.723  0.00  0.00    +0.154 HD
BRANCH  21  23
ATOM     23  C   UNL     1       0.656   1.714  -9.341  0.00  0.00    +0.135 C 
ATOM     24  S   UNL     1       2.309   1.446  -8.982  0.00  0.00    -0.019 S 
BRANCH  23  25
ATOM     25  N   UNL     1       0.308   2.354 -10.475  0.00  0.00    -0.319 N 
ATOM     26  H   UNL     1      -0.622   2.572 -10.642  0.00  0.00    +0.148 HD
BRANCH  25  27
ATOM     27  C   UNL     1       1.334   2.722 -11.453  0.00  0.00    +0.052 C 
ATOM     28  C   UNL     1       2.355   3.679 -10.792  0.00  0.00    +0.191 C 
ATOM     29  S   UNL     1       1.665   5.338 -11.184  0.00  0.00    -0.029 S 
ATOM     30  O   UNL     1       1.195   5.938  -9.984  0.00  0.00    -0.174 OA
ATOM     31  O   UNL     1       2.590   6.042 -12.001  0.00  0.00    -0.174 OA
ATOM     32  C   UNL     1       0.220   4.834 -12.209  0.00  0.00    +0.168 C 
ATOM     33  C   UNL     1       0.669   3.413 -12.655  0.00  0.00    +0.049 C 
ATOM     34  C   UNL     1       2.057   1.460 -11.929  0.00  0.00    +0.033 C 
ENDBRANCH  25  27
ENDBRANCH  23  25
ENDBRANCH  21  23
ENDBRANCH   4  21
TORSDOF 8
