REMARK  Name = ZINC49122122
REMARK  7 active torsions:
REMARK  status: ('A' for Active; 'I' for Inactive)
REMARK    1  A    between atoms: C_1  and  C_2
REMARK    2  A    between atoms: C_5  and  C_7
REMARK    3  A    between atoms: C_7  and  C_8
REMARK    4  A    between atoms: N_10  and  C_11
REMARK    5  A    between atoms: C_11  and  C_12
REMARK    6  A    between atoms: C_15  and  S_17
REMARK    7  A    between atoms: S_17  and  N_20
REMARK                            x       y       z     vdW  Elec       q    Type
REMARK                         _______ _______ _______ _____ _____    ______ ____
ROOT
ATOM      1  C   UNL     1       1.852  -6.208  -3.092  0.00  0.00    +0.146 C 
ENDROOT
BRANCH   1   2
ATOM      2  C   UNL     1       2.388  -7.617  -3.103  0.00  0.00    +0.009 A 
ATOM      3  C   UNL     1       1.707  -8.789  -3.112  0.00  0.00    +0.015 A 
ATOM      4  C   UNL     1       2.416  -9.976  -3.122  0.00  0.00    +0.036 A 
ATOM      5  C   UNL     1       3.770  -9.932  -3.122  0.00  0.00    +0.142 A 
ATOM      6  S   UNL     1       4.083  -8.175  -3.114  0.00  0.00    -0.072 S 
BRANCH   5   7
ATOM      7  S   UNL     1       4.923 -11.265  -3.133  0.00  0.00    +0.062 S 
ATOM      8  O   UNL     1       6.131 -10.761  -2.578  0.00  0.00    -0.153 OA
ATOM      9  O   UNL     1       4.247 -12.391  -2.591  0.00  0.00    -0.153 OA
BRANCH   7  10
ATOM     10  N   UNL     1       5.243 -11.622  -4.718  0.00  0.00    -0.203 NA
ATOM     11  H   UNL     1       4.812 -11.118  -5.425  0.00  0.00    +0.144 HD
ATOM     12  H   UNL     1       5.862 -12.335  -4.939  0.00  0.00    +0.144 HD
ENDBRANCH   7  10
ENDBRANCH   5   7
ENDBRANCH   1   2
BRANCH   1  15
ATOM     13  C   UNL     1       1.215  -4.523  -1.451  0.00  0.00    +0.218 C 
ATOM     14  O   UNL     1       0.930  -3.781  -2.367  0.00  0.00    -0.275 OA
ATOM     15  N   UNL     1       1.685  -5.760  -1.707  0.00  0.00    -0.310 N 
ATOM     16  H   UNL     1       1.912  -6.353  -0.974  0.00  0.00    +0.149 HD
BRANCH  13  17
ATOM     17  C   UNL     1       1.043  -4.062  -0.027  0.00  0.00    +0.138 C 
BRANCH  17  22
ATOM     18  C   UNL     1      -0.018   1.503   0.010  0.00  0.00    +0.051 C 
ATOM     19  C   UNL     1       0.002  -0.004   0.002  0.00  0.00    -0.013 A 
ATOM     20  C   UNL     1      -1.039  -0.872   0.002  0.00  0.00    +0.011 A 
ATOM     21  C   UNL     1      -0.780  -2.230  -0.007  0.00  0.00    +0.012 A 
ATOM     22  C   UNL     1       0.507  -2.653  -0.016  0.00  0.00    -0.001 A 
ATOM     23  S   UNL     1       1.404  -1.109  -0.018  0.00  0.00    -0.098 S 
ENDBRANCH  17  22
ENDBRANCH  13  17
ENDBRANCH   1  15
TORSDOF 6
