REMARK  Name = ZINC66697006
REMARK  8 active torsions:
REMARK  status: ('A' for Active; 'I' for Inactive)
REMARK    1  A    between atoms: C_1  and  C_2
REMARK    2  A    between atoms: C_2  and  C_3
REMARK    3  A    between atoms: C_3  and  C_22
REMARK    4  A    between atoms: N_6  and  N_10
REMARK    5  A    between atoms: C_11  and  C_13
REMARK    6  A    between atoms: C_13  and  N_14
REMARK    7  A    between atoms: N_17  and  C_20
REMARK    8  A    between atoms: C_20  and  C_21
REMARK                            x       y       z     vdW  Elec       q    Type
REMARK                         _______ _______ _______ _____ _____    ______ ____
ROOT
ATOM      1  N   UNL     1       2.729  -3.545  -1.236  0.00  0.00    -0.223 N 
ATOM      2  C   UNL     1       3.264  -4.058  -2.362  0.00  0.00    +0.244 C 
ATOM      3  O   UNL     1       3.263  -3.407  -3.385  0.00  0.00    -0.273 OA
ATOM      4  H   UNL     1       2.730  -4.066  -0.418  0.00  0.00    +0.174 HD
ENDROOT
BRANCH   1   8
ATOM      5  C   UNL     1       0.718  -0.497  -1.257  0.00  0.00    +0.111 C 
ATOM      6  C   UNL     1       0.848  -2.008  -1.239  0.00  0.00    +0.263 C 
ATOM      7  O   UNL     1      -0.051  -2.820  -1.221  0.00  0.00    -0.271 OA
ATOM      8  N   UNL     1       2.172  -2.259  -1.248  0.00  0.00    -0.137 N 
ATOM      9  C   UNL     1       2.889  -1.130  -1.269  0.00  0.00    +0.326 C 
ATOM     10  O   UNL     1       4.104  -1.101  -1.280  0.00  0.00    -0.251 OA
ATOM     11  N   UNL     1       2.115  -0.030  -1.275  0.00  0.00    -0.284 N 
ATOM     12  C   UNL     1      -0.022  -0.032  -2.513  0.00  0.00    +0.041 C 
ATOM     13  H   UNL     1       2.418   0.892  -1.290  0.00  0.00    +0.151 HD
BRANCH   5  15
ATOM     14  C   UNL     1      -0.019   1.526   0.010  0.00  0.00    +0.006 C 
ATOM     15  C   UNL     1       0.002  -0.004   0.002  0.00  0.00    +0.032 C 
ENDBRANCH   5  15
ENDBRANCH   1   8
BRANCH   2  16
ATOM     16  C   UNL     1       3.862  -5.441  -2.349  0.00  0.00    +0.182 C 
BRANCH  16  17
ATOM     17  N   UNL     1       4.373  -5.766  -3.688  0.00  0.00    -0.298 NA
ATOM     18  C   UNL     1       3.276  -5.875  -4.659  0.00  0.00    +0.066 C 
ATOM     19  C   UNL     1       3.853  -6.154  -6.048  0.00  0.00    -0.063 C 
ATOM     20  N   UNL     1       4.626  -7.402  -6.015  0.00  0.00    +0.381 N 
ATOM     21  C   UNL     1       5.734  -7.269  -5.059  0.00  0.00    -0.063 C 
ATOM     22  C   UNL     1       5.172  -6.999  -3.662  0.00  0.00    +0.066 C 
ATOM     23  H   UNL     1       4.026  -8.162  -5.731  0.00  0.00    -0.082 HD
BRANCH  20  24
ATOM     24  C   UNL     1       5.166  -7.679  -7.353  0.00  0.00    -0.082 C 
ATOM     25  C   UNL     1       5.865  -9.040  -7.350  0.00  0.00    -0.017 C 
ENDBRANCH  20  24
ENDBRANCH  16  17
ENDBRANCH   2  16
TORSDOF 5
