REMARK  Name = ZINC66244843
REMARK  8 active torsions:
REMARK  status: ('A' for Active; 'I' for Inactive)
REMARK    1  A    between atoms: C_1  and  O_2
REMARK    2  A    between atoms: O_2  and  C_3
REMARK    3  A    between atoms: C_6  and  C_9
REMARK    4  A    between atoms: C_9  and  C_10
REMARK    5  A    between atoms: C_10  and  N_11
REMARK    6  A    between atoms: N_14  and  C_15
REMARK    7  A    between atoms: C_15  and  C_16
REMARK    8  A    between atoms: N_19  and  C_21
REMARK                            x       y       z     vdW  Elec       q    Type
REMARK                         _______ _______ _______ _____ _____    ______ ____
ROOT
ATOM      1  N   UNL     1      -6.739  -3.548  -1.396  0.00  0.00    -0.357 N 
ATOM      2  C   UNL     1      -7.356  -3.867  -2.582  0.00  0.00    +0.169 C 
ATOM      3  N   UNL     1      -6.787  -3.562  -3.715  0.00  0.00    -0.371 N 
ATOM      4  N   UNL     1      -8.572  -4.508  -2.574  0.00  0.00    -0.352 N 
ATOM      5  H   UNL     1      -7.162  -3.775  -0.553  0.00  0.00    +0.162 HD
ATOM      6  H   UNL     1      -7.223  -3.787  -4.552  0.00  0.00    +0.159 HD
ATOM      7  H   UNL     1      -8.995  -4.735  -1.731  0.00  0.00    +0.163 HD
ATOM      8  H   UNL     1      -5.929  -3.110  -3.721  0.00  0.00    +0.159 HD
ENDROOT
BRANCH   1   9
ATOM      9  C   UNL     1      -5.443  -2.865  -1.405  0.00  0.00    +0.120 C 
BRANCH   9  10
ATOM     10  C   UNL     1      -4.981  -2.629   0.035  0.00  0.00    +0.056 C 
BRANCH  10  14
ATOM     11  C   UNL     1      -1.200  -0.637   0.010  0.00  0.00    +0.120 A 
ATOM     12  C   UNL     1      -2.375   0.101   0.019  0.00  0.00    +0.046 A 
ATOM     13  C   UNL     1      -3.596  -0.545   0.027  0.00  0.00    +0.007 A 
ATOM     14  C   UNL     1      -3.648  -1.927   0.026  0.00  0.00    -0.045 A 
ATOM     15  C   UNL     1      -2.479  -2.665   0.017  0.00  0.00    +0.007 A 
ATOM     16  C   UNL     1      -1.255  -2.024   0.003  0.00  0.00    +0.046 A 
BRANCH  11  18
ATOM     17  C   UNL     1      -0.017   1.425   0.010  0.00  0.00    +0.277 C 
ATOM     18  O   UNL     1       0.002  -0.004   0.002  0.00  0.00    -0.495 OA
ENDBRANCH  11  18
ENDBRANCH  10  14
ENDBRANCH   9  10
ENDBRANCH   1   9
BRANCH   4  19
ATOM     19  C   UNL     1      -9.229  -4.848  -3.838  0.00  0.00    +0.173 C 
BRANCH  19  20
ATOM     20  C   UNL     1     -10.538  -5.539  -3.554  0.00  0.00    +0.086 A 
ATOM     21  C   UNL     1     -10.721  -6.920  -3.399  0.00  0.00    -0.001 A 
ATOM     22  C   UNL     1     -12.032  -7.140  -3.156  0.00  0.00    +0.048 A 
ATOM     23  N   UNL     1     -12.659  -5.939  -3.157  0.00  0.00    -0.236 N 
ATOM     24  N   UNL     1     -11.697  -4.952  -3.405  0.00  0.00    -0.169 NA
ATOM     25  C   UNL     1     -12.292  -8.620  -2.979  0.00  0.00    +0.056 C 
ATOM     26  C   UNL     1     -11.048  -9.318  -3.571  0.00  0.00    +0.011 C 
ATOM     27  C   UNL     1      -9.963  -8.230  -3.410  0.00  0.00    +0.039 C 
BRANCH  23  28
ATOM     28  C   UNL     1     -14.027  -5.723  -2.944  0.00  0.00    +0.066 A 
ATOM     29  C   UNL     1     -14.957  -6.647  -3.400  0.00  0.00    +0.028 A 
ATOM     30  C   UNL     1     -16.305  -6.431  -3.188  0.00  0.00    +0.002 A 
ATOM     31  C   UNL     1     -16.728  -5.295  -2.523  0.00  0.00    +0.000 A 
ATOM     32  C   UNL     1     -15.805  -4.372  -2.068  0.00  0.00    +0.002 A 
ATOM     33  C   UNL     1     -14.455  -4.586  -2.272  0.00  0.00    +0.028 A 
ENDBRANCH  23  28
ENDBRANCH  19  20
ENDBRANCH   4  19
TORSDOF 7
