REMARK  Name = ZINC12049857
REMARK  11 active torsions:
REMARK  status: ('A' for Active; 'I' for Inactive)
REMARK    1  A    between atoms: C_4  and  O_16
REMARK    2  A    between atoms: C_5  and  C_7
REMARK    3  A    between atoms: C_7  and  N_56
REMARK    4  A    between atoms: C_8  and  C_9
REMARK    5  A    between atoms: C_8  and  N_56
REMARK    6  A    between atoms: C_9  and  N_10
REMARK    7  A    between atoms: O_16  and  C_17
REMARK    8  A    between atoms: C_17  and  C_18
REMARK    9  A    between atoms: C_18  and  C_20
REMARK   10  A    between atoms: C_18  and  O_26
REMARK   11  A    between atoms: C_20  and  N_59
REMARK                            x       y       z     vdW  Elec       q    Type
REMARK                         _______ _______ _______ _____ _____    ______ ____
ROOT
ATOM      1  C   UNL     1      -3.303   8.852  -7.260  0.00  0.00    +0.000 A 
ATOM      2  C   UNL     1      -3.071   7.489  -7.253  0.00  0.00    +0.004 A 
ATOM      3  C   UNL     1      -2.659   6.863  -6.093  0.00  0.00    +0.046 A 
ATOM      4  C   UNL     1      -2.490   7.601  -4.930  0.00  0.00    +0.122 A 
ATOM      5  C   UNL     1      -2.723   8.969  -4.940  0.00  0.00    -0.023 A 
ATOM      6  C   UNL     1      -3.129   9.591  -6.105  0.00  0.00    +0.005 A 
ENDROOT
BRANCH   5   7
ATOM      7  C   UNL     1      -2.533   9.775  -3.681  0.00  0.00    -0.043 C 
BRANCH   7   8
ATOM      8  N   UNL     1      -1.096  10.054  -3.498  0.00  0.00    +0.383 N 
ATOM      9  H   UNL     1      -0.748  10.583  -4.306  0.00  0.00    -0.085 HD
ATOM     10  H   UNL     1      -0.586   9.166  -3.424  0.00  0.00    -0.085 HD
BRANCH   8  11
ATOM     11  C   UNL     1      -0.880  10.844  -2.270  0.00  0.00    -0.063 C 
BRANCH  11  12
ATOM     12  C   UNL     1       0.616  11.117  -2.107  0.00  0.00    +0.089 C 
BRANCH  12  13
ATOM     13  N   UNL     1       0.839  11.901  -0.890  0.00  0.00    -0.303 N 
ATOM     14  C   UNL     1       0.853  13.368  -0.840  0.00  0.00    +0.108 C 
ATOM     15  C   UNL     1       0.678  13.730   0.653  0.00  0.00    +0.028 C 
ATOM     16  C   UNL     1       1.240  12.469   1.349  0.00  0.00    +0.097 C 
ATOM     17  C   UNL     1       1.063  11.370   0.325  0.00  0.00    +0.216 C 
ATOM     18  O   UNL     1       1.115  10.182   0.564  0.00  0.00    -0.276 OA
ENDBRANCH  12  13
ENDBRANCH  11  12
ENDBRANCH   8  11
ENDBRANCH   7   8
ENDBRANCH   5   7
BRANCH   4  19
ATOM     19  O   UNL     1      -2.090   6.987  -3.786  0.00  0.00    -0.489 OA
BRANCH  19  20
ATOM     20  C   UNL     1      -1.869   5.577  -3.850  0.00  0.00    +0.258 C 
BRANCH  20  21
ATOM     21  C   UNL     1      -1.428   5.067  -2.476  0.00  0.00    +0.135 C 
BRANCH  21  22
ATOM     22  O   UNL     1      -2.493   5.240  -1.539  0.00  0.00    -0.390 OA
ATOM     23  H   UNL     1      -3.303   4.767  -1.773  0.00  0.00    +0.210 HD
ENDBRANCH  21  22
BRANCH  21  24
ATOM     24  C   UNL     1      -1.071   3.582  -2.574  0.00  0.00    -0.044 C 
BRANCH  24  30
ATOM     25  C   UNL     1      -1.580   2.962  -0.293  0.00  0.00    -0.068 C 
ATOM     26  C   UNL     1      -1.082   2.073   0.853  0.00  0.00    +0.050 C 
ATOM     27  S   UNL     1       0.339   2.894   1.640  0.00  0.00    -0.164 S 
ATOM     28  C   UNL     1       1.404   3.299   0.221  0.00  0.00    +0.050 C 
ATOM     29  C   UNL     1       0.552   4.013  -0.835  0.00  0.00    -0.068 C 
ATOM     30  N   UNL     1      -0.505   3.091  -1.305  0.00  0.00    +0.382 N 
ATOM     31  H   UNL     1      -0.089   2.166  -1.463  0.00  0.00    -0.082 HD
ENDBRANCH  24  30
ENDBRANCH  21  24
ENDBRANCH  20  21
ENDBRANCH  19  20
ENDBRANCH   4  19
TORSDOF 11
