REMARK  Name = ZINC42184608
REMARK  13 active torsions:
REMARK  status: ('A' for Active; 'I' for Inactive)
REMARK    1  A    between atoms: C_1  and  C_2
REMARK    2  A    between atoms: C_5  and  N_9
REMARK    3  A    between atoms: C_6  and  C_8
REMARK    4  A    between atoms: C_13  and  C_15
REMARK    5  A    between atoms: C_15  and  C_17
REMARK    6  A    between atoms: C_15  and  N_18
REMARK    7  A    between atoms: N_18  and  C_19
REMARK    8  A    between atoms: C_19  and  C_21
REMARK    9  A    between atoms: C_19  and  C_22
REMARK   10  A    between atoms: C_25  and  O_30
REMARK   11  A    between atoms: C_27  and  O_28
REMARK   12  A    between atoms: O_28  and  C_29
REMARK   13  A    between atoms: O_30  and  C_31
REMARK                            x       y       z     vdW  Elec       q    Type
REMARK                         _______ _______ _______ _____ _____    ______ ____
ROOT
ATOM      1  C   UNL     1      -0.317  -8.357  -2.353  0.00  0.00    +0.014 C 
ATOM      2  C   UNL     1      -1.558  -8.791  -1.572  0.00  0.00    -0.004 C 
ENDROOT
BRANCH   1   7
ATOM      3  N   UNL     1       0.059  -4.170  -0.021  0.00  0.00    -0.269 N 
ATOM      4  C   UNL     1      -0.040  -4.839  -1.187  0.00  0.00    +0.310 C 
ATOM      5  O   UNL     1      -0.054  -4.229  -2.238  0.00  0.00    -0.252 OA
ATOM      6  N   UNL     1      -0.124  -6.184  -1.187  0.00  0.00    -0.241 N 
ATOM      7  C   UNL     1      -0.223  -6.853  -2.353  0.00  0.00    +0.206 C 
ATOM      8  O   UNL     1      -0.237  -6.244  -3.401  0.00  0.00    -0.277 OA
ATOM      9  H   UNL     1       0.135  -4.658   0.814  0.00  0.00    +0.156 HD
ATOM     10  H   UNL     1      -0.113  -6.671  -0.348  0.00  0.00    +0.159 HD
BRANCH   3  15
ATOM     11  C   UNL     1       0.025   1.503   0.005  0.00  0.00    +0.044 C 
ATOM     12  C   UNL     1       0.034  -0.004  -0.002  0.00  0.00    -0.050 A 
ATOM     13  C   UNL     1       0.632  -0.685  -1.046  0.00  0.00    +0.005 A 
ATOM     14  C   UNL     1       0.641  -2.066  -1.055  0.00  0.00    +0.024 A 
ATOM     15  C   UNL     1       0.051  -2.771  -0.014  0.00  0.00    +0.038 A 
ATOM     16  C   UNL     1      -0.548  -2.083   1.033  0.00  0.00    -0.029 A 
ATOM     17  C   UNL     1      -0.551  -0.702   1.039  0.00  0.00    +0.008 A 
ATOM     18  C   UNL     1      -1.191  -2.843   2.165  0.00  0.00    +0.045 C 
ENDBRANCH   3  15
ENDBRANCH   1   7
BRANCH   1  19
ATOM     19  N   UNL     1      -0.415  -8.841  -3.737  0.00  0.00    +0.391 N 
ATOM     20  H   UNL     1      -1.280  -8.520  -4.145  0.00  0.00    -0.084 HD
ATOM     21  H   UNL     1       0.362  -8.486  -4.273  0.00  0.00    -0.084 HD
BRANCH  19  22
ATOM     22  C   UNL     1      -0.386 -10.310  -3.744  0.00  0.00    -0.039 C 
ATOM     23  C   UNL     1       0.975 -10.795  -3.241  0.00  0.00    -0.009 C 
BRANCH  22  24
ATOM     24  C   UNL     1      -0.609 -10.809  -5.149  0.00  0.00    -0.020 A 
ATOM     25  C   UNL     1      -0.287 -10.006  -6.226  0.00  0.00    +0.009 A 
ATOM     26  C   UNL     1      -0.491 -10.461  -7.515  0.00  0.00    +0.046 A 
ATOM     27  C   UNL     1      -1.020 -11.726  -7.730  0.00  0.00    +0.124 A 
ATOM     28  C   UNL     1      -1.344 -12.533  -6.650  0.00  0.00    +0.091 A 
ATOM     29  C   UNL     1      -1.133 -12.077  -5.358  0.00  0.00    +0.125 A 
BRANCH  29  30
ATOM     30  O   UNL     1      -1.444 -12.868  -4.298  0.00  0.00    -0.495 OA
ATOM     31  C   UNL     1      -1.979 -14.161  -4.588  0.00  0.00    +0.277 C 
ENDBRANCH  29  30
BRANCH  27  32
ATOM     32  O   UNL     1      -1.221 -12.173  -8.997  0.00  0.00    -0.495 OA
ATOM     33  C   UNL     1      -0.865 -11.288 -10.061  0.00  0.00    +0.277 C 
ENDBRANCH  27  32
ENDBRANCH  22  24
ENDBRANCH  19  22
ENDBRANCH   1  19
TORSDOF 7
