REMARK  Name = ZINC06405579
REMARK  10 active torsions:
REMARK  status: ('A' for Active; 'I' for Inactive)
REMARK    1  A    between atoms: C_1  and  C_2
REMARK    2  A    between atoms: C_5  and  C_40
REMARK    3  A    between atoms: C_9  and  C_14
REMARK    4  A    between atoms: C_14  and  C_16
REMARK    5  A    between atoms: C_14  and  N_74
REMARK    6  A    between atoms: N_20  and  C_21
REMARK    7  A    between atoms: C_27  and  C_28
REMARK    8  A    between atoms: C_27  and  N_74
REMARK    9  A    between atoms: C_33  and  C_34
REMARK   10  A    between atoms: C_33  and  N_74
REMARK                            x       y       z     vdW  Elec       q    Type
REMARK                         _______ _______ _______ _____ _____    ______ ____
ROOT
ATOM      1  C   UNL     1       1.515   4.838   0.672  0.00  0.00    +0.039 C 
ENDROOT
BRANCH   1  10
ATOM      2  C   UNL     1      -3.484   3.950   1.825  0.00  0.00    +0.044 C 
ATOM      3  C   UNL     1      -3.034   2.845   0.904  0.00  0.00    -0.041 A 
ATOM      4  C   UNL     1      -3.908   1.862   0.534  0.00  0.00    +0.004 A 
ATOM      5  C   UNL     1      -3.503   0.840  -0.314  0.00  0.00    +0.005 A 
ATOM      6  C   UNL     1      -2.213   0.797  -0.798  0.00  0.00    -0.026 A 
ATOM      7  C   UNL     1      -1.307   1.787  -0.435  0.00  0.00    +0.052 A 
ATOM      8  C   UNL     1      -1.721   2.822   0.425  0.00  0.00    +0.002 A 
ATOM      9  C   UNL     1      -0.759   3.860   0.801  0.00  0.00    +0.018 A 
ATOM     10  C   UNL     1       0.501   3.785   0.305  0.00  0.00    +0.011 A 
ATOM     11  C   UNL     1       0.865   2.727  -0.555  0.00  0.00    +0.251 A 
ATOM     12  O   UNL     1       2.003   2.680  -0.990  0.00  0.00    -0.268 OA
ATOM     13  N   UNL     1      -0.011   1.770  -0.906  0.00  0.00    -0.322 N 
ATOM     14  H   UNL     1       0.273   1.056  -1.498  0.00  0.00    +0.169 HD
ATOM     15  C   UNL     1      -1.788  -0.319  -1.718  0.00  0.00    +0.046 C 
ENDBRANCH   1  10
BRANCH   1  16
ATOM     16  C   UNL     1       2.243   5.289  -0.568  0.00  0.00    +0.143 A 
ATOM     17  N   UNL     1       3.228   4.666  -1.168  0.00  0.00    -0.115 NA
ATOM     18  N   UNL     1       3.578   5.366  -2.191  0.00  0.00    -0.023 NA
ATOM     19  N   UNL     1       2.846   6.424  -2.255  0.00  0.00    -0.044 NA
ATOM     20  N   UNL     1       2.011   6.412  -1.272  0.00  0.00    -0.227 N 
BRANCH  20  21
ATOM     21  C   UNL     1       1.000   7.431  -0.977  0.00  0.00    +0.111 C 
ATOM     22  C   UNL     1       0.036   7.549  -2.159  0.00  0.00    +0.027 C 
ATOM     23  C   UNL     1      -1.020   8.613  -1.851  0.00  0.00    +0.002 C 
ATOM     24  C   UNL     1      -0.333   9.960  -1.616  0.00  0.00    +0.000 C 
ATOM     25  C   UNL     1       0.631   9.841  -0.434  0.00  0.00    +0.002 C 
ATOM     26  C   UNL     1       1.687   8.778  -0.742  0.00  0.00    +0.027 C 
ENDBRANCH  20  21
ENDBRANCH   1  16
BRANCH   1  27
ATOM     27  N   UNL     1       2.497   4.259   1.614  0.00  0.00    +0.394 N 
ATOM     28  H   UNL     1       3.151   3.666   1.090  0.00  0.00    -0.080 HD
BRANCH  27  29
ATOM     29  C   UNL     1       1.803   3.434   2.624  0.00  0.00    -0.034 C 
BRANCH  29  30
ATOM     30  C   UNL     1       2.100   1.984   2.341  0.00  0.00    -0.027 A 
ATOM     31  C   UNL     1       3.192   1.255   2.678  0.00  0.00    +0.009 A 
ATOM     32  C   UNL     1       3.248  -0.077   2.312  0.00  0.00    +0.008 A 
ATOM     33  C   UNL     1       2.214  -0.612   1.617  0.00  0.00    +0.045 A 
ATOM     34  S   UNL     1       1.109   0.783   1.467  0.00  0.00    -0.103 S 
ENDBRANCH  29  30
ENDBRANCH  27  29
BRANCH  27  35
ATOM     35  C   UNL     1       3.256   5.339   2.279  0.00  0.00    -0.045 C 
BRANCH  35  36
ATOM     36  C   UNL     1       4.432   5.733   1.382  0.00  0.00    +0.102 C 
ATOM     37  C   UNL     1       5.393   6.676   2.139  0.00  0.00    +0.032 C 
ATOM     38  C   UNL     1       5.863   7.678   1.061  0.00  0.00    +0.030 C 
ATOM     39  C   UNL     1       5.129   7.222  -0.220  0.00  0.00    +0.160 C 
ATOM     40  O   UNL     1       3.968   6.507   0.255  0.00  0.00    -0.378 OA
ENDBRANCH  35  36
ENDBRANCH  27  35
ENDBRANCH   1  27
TORSDOF 8
