REMARK  Name = ZINC59312166
REMARK  14 active torsions:
REMARK  status: ('A' for Active; 'I' for Inactive)
REMARK    1  A    between atoms: C_1  and  C_2
REMARK    2  A    between atoms: C_2  and  O_3
REMARK    3  A    between atoms: O_3  and  C_4
REMARK    4  A    between atoms: C_4  and  C_6
REMARK    5  A    between atoms: C_10  and  N_11
REMARK    6  A    between atoms: C_12  and  C_14
REMARK    7  A    between atoms: C_14  and  S_15
REMARK    8  A    between atoms: S_15  and  C_16
REMARK    9  A    between atoms: C_19  and  C_22
REMARK   10  A    between atoms: N_20  and  N_21
REMARK   11  A    between atoms: C_22  and  N_23
REMARK   12  A    between atoms: N_23  and  C_24
REMARK   13  A    between atoms: C_27  and  O_30
REMARK   14  A    between atoms: O_30  and  C_31
REMARK                            x       y       z     vdW  Elec       q    Type
REMARK                         _______ _______ _______ _____ _____    ______ ____
ROOT
ATOM      1  S   UNL     1       7.674  -3.025   0.908  0.00  0.00    -0.075 S 
ENDROOT
BRANCH   1   2
ATOM      2  C   UNL     1       8.668  -2.709  -0.512  0.00  0.00    +0.209 A 
ATOM      3  N   UNL     1       8.259  -2.210  -1.655  0.00  0.00    -0.121 NA
ATOM      4  N   UNL     1       9.249  -2.114  -2.469  0.00  0.00    -0.130 NA
ATOM      5  C   UNL     1      10.340  -2.542  -1.898  0.00  0.00    +0.168 A 
ATOM      6  N   UNL     1      10.010  -2.931  -0.629  0.00  0.00    -0.226 N 
BRANCH   6   7
ATOM      7  N   UNL     1      10.848  -3.439   0.322  0.00  0.00    -0.295 N 
ATOM      8  H   UNL     1      10.899  -4.445   0.260  0.00  0.00    +0.163 HD
ATOM      9  H   UNL     1      11.766  -3.026   0.253  0.00  0.00    +0.163 HD
ENDBRANCH   6   7
BRANCH   5  10
ATOM     10  C   UNL     1      11.712  -2.593  -2.519  0.00  0.00    +0.179 C 
BRANCH  10  11
ATOM     11  N   UNL     1      12.414  -1.335  -2.256  0.00  0.00    -0.337 N 
ATOM     12  H   UNL     1      11.978  -0.633  -1.748  0.00  0.00    +0.147 HD
BRANCH  11  13
ATOM     13  C   UNL     1      13.714  -1.145  -2.737  0.00  0.00    +0.028 A 
ATOM     14  C   UNL     1      14.337  -2.147  -3.469  0.00  0.00    +0.026 A 
ATOM     15  C   UNL     1      15.620  -1.959  -3.944  0.00  0.00    +0.047 A 
ATOM     16  C   UNL     1      16.287  -0.770  -3.690  0.00  0.00    +0.120 A 
ATOM     17  C   UNL     1      15.666   0.232  -2.958  0.00  0.00    +0.047 A 
ATOM     18  C   UNL     1      14.381   0.047  -2.488  0.00  0.00    +0.026 A 
BRANCH  16  19
ATOM     19  O   UNL     1      17.551  -0.586  -4.158  0.00  0.00    -0.495 OA
ATOM     20  C   UNL     1      18.177   0.663  -3.859  0.00  0.00    +0.277 C 
ENDBRANCH  16  19
ENDBRANCH  11  13
ENDBRANCH  10  11
ENDBRANCH   5  10
ENDBRANCH   1   2
BRANCH   1  21
ATOM     21  C   UNL     1       6.009  -2.515   0.401  0.00  0.00    +0.173 C 
BRANCH  21  23
ATOM     22  N   UNL     1       3.744  -2.426   1.392  0.00  0.00    -0.279 N 
ATOM     23  C   UNL     1       5.047  -2.736   1.540  0.00  0.00    +0.228 C 
ATOM     24  O   UNL     1       5.445  -3.193   2.591  0.00  0.00    -0.275 OA
ATOM     25  H   UNL     1       3.425  -2.060   0.551  0.00  0.00    +0.155 HD
BRANCH  22  30
ATOM     26  C   UNL     1       1.496  -2.371   2.467  0.00  0.00    +0.091 A 
ATOM     27  C   UNL     1       0.787  -2.682   3.696  0.00  0.00    -0.021 A 
ATOM     28  C   UNL     1       1.570  -3.187   4.673  0.00  0.00    -0.004 A 
ATOM     29  S   UNL     1       3.191  -3.243   3.966  0.00  0.00    -0.077 S 
ATOM     30  C   UNL     1       2.859  -2.629   2.439  0.00  0.00    +0.086 A 
ATOM     31  C   UNL     1       1.140  -3.603   6.046  0.00  0.00    +0.043 C 
ATOM     32  C   UNL     1      -0.255  -3.018   6.312  0.00  0.00    +0.005 C 
ATOM     33  C   UNL     1      -1.153  -3.312   5.107  0.00  0.00    +0.005 C 
ATOM     34  C   UNL     1      -0.705  -2.473   3.907  0.00  0.00    +0.037 C 
BRANCH  26  35
ATOM     35  C   UNL     1       0.801  -1.814   1.305  0.00  0.00    +0.342 C 
ATOM     36  O   UNL     1       0.321  -2.557   0.470  0.00  0.00    -0.245 OA
BRANCH  35  37
ATOM     37  O   UNL     1       0.693  -0.477   1.160  0.00  0.00    -0.461 OA
BRANCH  37  39
ATOM     38  C   UNL     1      -0.019   1.526   0.010  0.00  0.00    +0.048 C 
ATOM     39  C   UNL     1       0.002  -0.004   0.002  0.00  0.00    +0.229 C 
ENDBRANCH  37  39
ENDBRANCH  35  37
ENDBRANCH  26  35
ENDBRANCH  22  30
ENDBRANCH  21  23
ENDBRANCH   1  21
TORSDOF 12
