REMARK  Name = ZINC62211910
REMARK  3 active torsions:
REMARK  status: ('A' for Active; 'I' for Inactive)
REMARK    1  A    between atoms: C_5  and  C_6
REMARK    2  A    between atoms: C_8  and  N_18
REMARK    3  A    between atoms: N_14  and  C_15
REMARK                            x       y       z     vdW  Elec       q    Type
REMARK                         _______ _______ _______ _____ _____    ______ ____
ROOT
ATOM      1  C   UNL     1      -1.433  -0.983   0.022  0.00  0.00    +0.128 C 
ATOM      2  C   UNL     1      -1.625  -1.555   1.427  0.00  0.00    -0.046 C 
ATOM      3  C   UNL     1      -0.356  -2.320   1.823  0.00  0.00    -0.005 C 
ATOM      4  C   UNL     1      -0.240  -3.559   0.931  0.00  0.00    +0.094 C 
ATOM      5  C   UNL     1      -0.427  -3.172  -0.507  0.00  0.00    +0.216 C 
ATOM      6  O   UNL     1      -0.054  -3.946  -1.363  0.00  0.00    -0.276 OA
ATOM      7  N   UNL     1      -0.980  -2.025  -0.891  0.00  0.00    -0.290 N 
ENDROOT
BRANCH   1  12
ATOM      8  C   UNL     1      -0.669   1.438   0.099  0.00  0.00    +0.048 A 
ATOM      9  C   UNL     1       0.578   2.103   0.138  0.00  0.00    +0.057 A 
ATOM     10  C   UNL     1       1.529   1.151   0.128  0.00  0.00    +0.170 A 
ATOM     11  O   UNL     1       0.926  -0.049   0.086  0.00  0.00    -0.451 OA
ATOM     12  C   UNL     1      -0.406   0.119   0.068  0.00  0.00    +0.125 A 
ATOM     13 BR   UNL     1       3.395   1.451   0.166  0.00  0.00    -0.008 Br
ENDBRANCH   1  12
BRANCH   2  14
ATOM     14  N   UNL     1      -1.860  -0.459   2.377  0.00  0.00    +0.381 N 
ATOM     15  H   UNL     1      -2.688   0.049   2.106  0.00  0.00    -0.090 HD
ATOM     16  H   UNL     1      -1.986  -0.838   3.304  0.00  0.00    -0.090 HD
ATOM     17  H   UNL     1      -1.067   0.165   2.374  0.00  0.00    -0.090 HD
ENDBRANCH   2  14
BRANCH   7  18
ATOM     18  C   UNL     1      -1.144  -1.797  -2.329  0.00  0.00    +0.077 C 
ATOM     19  C   UNL     1      -1.844  -0.508  -2.764  0.00  0.00    +0.024 C 
ATOM     20  C   UNL     1      -0.334  -0.663  -2.961  0.00  0.00    +0.024 C 
ENDBRANCH   7  18
TORSDOF 3
