REMARK  Name = ZINC31296965
REMARK  8 active torsions:
REMARK  status: ('A' for Active; 'I' for Inactive)
REMARK    1  A    between atoms: C_1  and  N_2
REMARK    2  A    between atoms: N_2  and  C_3
REMARK    3  A    between atoms: N_2  and  C_15
REMARK    4  A    between atoms: C_3  and  C_4
REMARK    5  A    between atoms: N_6  and  C_7
REMARK    6  A    between atoms: C_15  and  C_16
REMARK    7  A    between atoms: C_19  and  C_29
REMARK    8  A    between atoms: C_22  and  C_24
REMARK                            x       y       z     vdW  Elec       q    Type
REMARK                         _______ _______ _______ _____ _____    ______ ____
ROOT
ATOM      1  C   UNL     1      -0.027  -6.408  -2.736  0.00  0.00    +0.021 C 
ENDROOT
BRANCH   1   2
ATOM      2  C   UNL     1      -0.354  -6.181  -4.190  0.00  0.00    +0.219 C 
ATOM      3  O   UNL     1      -0.746  -7.103  -4.874  0.00  0.00    -0.276 OA
ATOM      4  N   UNL     1      -0.212  -4.955  -4.729  0.00  0.00    -0.186 N 
ATOM      5  C   UNL     1      -0.495  -4.597  -6.128  0.00  0.00    +0.143 C 
ATOM      6  C   UNL     1      -0.169  -3.092  -6.191  0.00  0.00    +0.090 C 
ATOM      7  C   UNL     1       0.282  -2.757  -4.787  0.00  0.00    +0.104 C 
ATOM      8  N   UNL     1       0.228  -3.818  -4.053  0.00  0.00    -0.178 NA
BRANCH   7   9
ATOM      9  C   UNL     1       0.708  -1.432  -4.329  0.00  0.00    +0.150 A 
ATOM     10  C   UNL     1       1.112  -1.112  -3.065  0.00  0.00    +0.051 A 
ATOM     11  C   UNL     1       1.427   0.259  -3.075  0.00  0.00    +0.042 A 
ATOM     12  C   UNL     1       1.204   0.708  -4.327  0.00  0.00    +0.196 A 
ATOM     13  O   UNL     1       0.770  -0.315  -5.081  0.00  0.00    -0.462 OA
ENDBRANCH   7   9
BRANCH   5  14
ATOM     14  C   UNL     1      -1.947  -4.834  -6.453  0.00  0.00    +0.013 A 
ATOM     15  C   UNL     1      -2.499  -5.319  -7.592  0.00  0.00    +0.013 A 
ATOM     16  C   UNL     1      -3.873  -5.454  -7.666  0.00  0.00    +0.008 A 
ATOM     17  C   UNL     1      -4.627  -5.097  -6.598  0.00  0.00    +0.045 A 
ATOM     18  S   UNL     1      -3.386  -4.556  -5.434  0.00  0.00    -0.100 S 
ENDBRANCH   5  14
ENDBRANCH   1   2
BRANCH   1  20
ATOM     19  C   UNL     1       0.675  -8.696  -3.106  0.00  0.00    -0.095 C 
ATOM     20  N   UNL     1      -0.264  -7.817  -2.395  0.00  0.00    +0.389 N 
ATOM     21  H   UNL     1      -1.282  -8.077  -2.720  0.00  0.00    -0.081 HD
BRANCH  20  22
ATOM     22  C   UNL     1      -0.185  -8.028  -0.943  0.00  0.00    +0.019 C 
BRANCH  22  23
ATOM     23  C   UNL     1      -0.670  -9.415  -0.610  0.00  0.00    +0.201 C 
ATOM     24  O   UNL     1      -1.044 -10.156  -1.494  0.00  0.00    -0.278 OA
ATOM     25  N   UNL     1      -0.688  -9.833   0.671  0.00  0.00    -0.285 N 
ATOM     26  H   UNL     1      -0.273  -9.193   1.464  0.00  0.00    +0.155 HD
BRANCH  25  27
ATOM     27  C   UNL     1      -1.236 -11.081   0.993  0.00  0.00    +0.070 A 
ATOM     28  C   UNL     1      -2.589 -11.192   1.287  0.00  0.00    +0.064 A 
ATOM     29  C   UNL     1      -3.127 -12.426   1.600  0.00  0.00    +0.022 A 
ATOM     30  C   UNL     1      -2.319 -13.547   1.631  0.00  0.00    +0.003 A 
ATOM     31  C   UNL     1      -0.970 -13.439   1.344  0.00  0.00    +0.022 A 
ATOM     32  C   UNL     1      -0.426 -12.209   1.025  0.00  0.00    +0.064 A 
ATOM     33 CL   UNL     1       1.267 -12.074   0.666  0.00  0.00    -0.082 Cl
ATOM     34 CL   UNL     1      -3.604  -9.784   1.255  0.00  0.00    -0.082 Cl
ENDBRANCH  25  27
ENDBRANCH  22  23
ENDBRANCH  20  22
ENDBRANCH   1  20
TORSDOF 7
