REMARK  Name = ZINC44163559
REMARK  7 active torsions:
REMARK  status: ('A' for Active; 'I' for Inactive)
REMARK    1  A    between atoms: C_1  and  C_2
REMARK    2  A    between atoms: C_4  and  C_23
REMARK    3  A    between atoms: C_7  and  C_11
REMARK    4  A    between atoms: N_13  and  C_14
REMARK    5  A    between atoms: C_14  and  C_15
REMARK    6  A    between atoms: C_20  and  O_21
REMARK    7  A    between atoms: O_21  and  C_22
REMARK                            x       y       z     vdW  Elec       q    Type
REMARK                         _______ _______ _______ _____ _____    ______ ____
ROOT
ATOM      1  C   UNL     1       0.541   1.456   0.420  0.00  0.00    +0.017 C 
ATOM      2  C   UNL     1       0.386  -0.060   0.289  0.00  0.00    +0.034 C 
ATOM      3  C   UNL     1      -1.099  -0.420   0.171  0.00  0.00    -0.027 C 
ATOM      4  N   UNL     1      -1.249  -1.867   0.001  0.00  0.00    +0.392 N 
ATOM      5  C   UNL     1      -1.009  -2.576   1.259  0.00  0.00    +0.027 C 
ATOM      6  C   UNL     1       0.492  -2.595   1.569  0.00  0.00    +0.063 C 
ATOM      7  S   UNL     1       1.056  -0.876   1.772  0.00  0.00    -0.160 S 
ATOM      8  H   UNL     1      -2.184  -2.067  -0.319  0.00  0.00    -0.084 HD
ATOM      9  H   UNL     1      -0.588  -2.188  -0.691  0.00  0.00    -0.084 HD
ENDROOT
BRANCH   3  10
ATOM     10  C   UNL     1      -1.692   0.286  -1.021  0.00  0.00    -0.060 A 
ATOM     11  C   UNL     1      -1.507  -0.227  -2.291  0.00  0.00    +0.002 A 
ATOM     12  C   UNL     1      -2.051   0.422  -3.384  0.00  0.00    +0.000 A 
ATOM     13  C   UNL     1      -2.781   1.582  -3.207  0.00  0.00    +0.000 A 
ATOM     14  C   UNL     1      -2.967   2.095  -1.937  0.00  0.00    +0.000 A 
ATOM     15  C   UNL     1      -2.426   1.444  -0.843  0.00  0.00    +0.002 A 
ENDBRANCH   3  10
BRANCH   5  16
ATOM     16  C   UNL     1      -1.740  -1.875   2.376  0.00  0.00    +0.200 C 
ATOM     17  O   UNL     1      -1.261  -1.846   3.489  0.00  0.00    -0.278 OA
ATOM     18  N   UNL     1      -2.926  -1.282   2.136  0.00  0.00    -0.312 N 
ATOM     19  H   UNL     1      -3.309  -1.305   1.245  0.00  0.00    +0.149 HD
BRANCH  18  20
ATOM     20  C   UNL     1      -3.637  -0.601   3.221  0.00  0.00    +0.143 C 
BRANCH  20  21
ATOM     21  C   UNL     1      -4.926  -0.025   2.694  0.00  0.00    +0.011 A 
ATOM     22  C   UNL     1      -5.004   1.315   2.370  0.00  0.00    +0.009 A 
ATOM     23  C   UNL     1      -6.186   1.844   1.887  0.00  0.00    +0.001 A 
ATOM     24  C   UNL     1      -7.294   1.032   1.727  0.00  0.00    +0.004 A 
ATOM     25  C   UNL     1      -7.222  -0.309   2.049  0.00  0.00    +0.046 A 
ATOM     26  C   UNL     1      -6.034  -0.843   2.529  0.00  0.00    +0.125 A 
BRANCH  26  27
ATOM     27  O   UNL     1      -5.959  -2.163   2.841  0.00  0.00    -0.495 OA
ATOM     28  C   UNL     1      -7.139  -2.945   2.645  0.00  0.00    +0.277 C 
ENDBRANCH  26  27
ENDBRANCH  20  21
ENDBRANCH  18  20
ENDBRANCH   5  16
TORSDOF 5
