REMARK  Name = ZINC43606740
REMARK  8 active torsions:
REMARK  status: ('A' for Active; 'I' for Inactive)
REMARK    1  A    between atoms: C_1  and  C_2
REMARK    2  A    between atoms: C_2  and  C_4
REMARK    3  A    between atoms: C_2  and  N_16
REMARK    4  A    between atoms: N_9  and  C_10
REMARK    5  A    between atoms: C_10  and  C_11
REMARK    6  A    between atoms: N_16  and  C_17
REMARK    7  A    between atoms: C_17  and  C_19
REMARK    8  A    between atoms: C_17  and  C_25
REMARK                            x       y       z     vdW  Elec       q    Type
REMARK                         _______ _______ _______ _____ _____    ______ ____
ROOT
ATOM      1  C   UNL     1      -0.019   1.526   0.010  0.00  0.00    -0.004 C 
ATOM      2  C   UNL     1       0.002  -0.004   0.002  0.00  0.00    +0.015 C 
ENDROOT
BRANCH   2   3
ATOM      3  C   UNL     1      -1.412  -0.526   0.013  0.00  0.00    +0.206 C 
ATOM      4  O   UNL     1      -1.790  -1.233   0.922  0.00  0.00    -0.277 OA
ATOM      5  N   UNL     1      -2.256  -0.206  -0.988  0.00  0.00    -0.242 N 
ATOM      6  C   UNL     1      -3.520  -0.672  -0.979  0.00  0.00    +0.306 C 
ATOM      7  O   UNL     1      -3.899  -1.381  -0.067  0.00  0.00    -0.252 OA
ATOM      8  N   UNL     1      -4.364  -0.353  -1.980  0.00  0.00    -0.294 N 
ATOM      9  H   UNL     1      -1.953   0.360  -1.716  0.00  0.00    +0.159 HD
ATOM     10  H   UNL     1      -4.061   0.213  -2.707  0.00  0.00    +0.151 HD
BRANCH   8  11
ATOM     11  C   UNL     1      -5.738  -0.860  -1.970  0.00  0.00    +0.148 C 
BRANCH  11  12
ATOM     12  C   UNL     1      -6.467  -0.361  -3.190  0.00  0.00    +0.007 A 
ATOM     13  C   UNL     1      -6.574  -0.933  -4.414  0.00  0.00    +0.013 A 
ATOM     14  C   UNL     1      -7.303  -0.287  -5.395  0.00  0.00    +0.008 A 
ATOM     15  C   UNL     1      -7.889   0.900  -5.104  0.00  0.00    +0.045 A 
ATOM     16  S   UNL     1      -7.420   1.135  -3.398  0.00  0.00    -0.100 S 
ENDBRANCH  11  12
ENDBRANCH   8  11
ENDBRANCH   2   3
BRANCH   2  17
ATOM     17  N   UNL     1       0.713  -0.491   1.192  0.00  0.00    +0.396 N 
ATOM     18  H   UNL     1       0.290  -0.099   2.020  0.00  0.00    -0.083 HD
ATOM     19  H   UNL     1       0.655  -1.497   1.230  0.00  0.00    -0.083 HD
BRANCH  17  20
ATOM     20  C   UNL     1       2.122  -0.083   1.122  0.00  0.00    +0.028 C 
BRANCH  20  21
ATOM     21  C   UNL     1       2.822  -0.474   2.398  0.00  0.00    -0.054 A 
ATOM     22  C   UNL     1       2.547  -1.692   2.991  0.00  0.00    +0.002 A 
ATOM     23  C   UNL     1       3.190  -2.051   4.162  0.00  0.00    +0.000 A 
ATOM     24  C   UNL     1       4.108  -1.193   4.737  0.00  0.00    +0.000 A 
ATOM     25  C   UNL     1       4.384   0.024   4.143  0.00  0.00    +0.000 A 
ATOM     26  C   UNL     1       3.744   0.382   2.971  0.00  0.00    +0.002 A 
ENDBRANCH  20  21
BRANCH  20  27
ATOM     27  C   UNL     1       2.785  -0.766  -0.046  0.00  0.00    +0.095 A 
ATOM     28  C   UNL     1       3.680  -0.207  -0.880  0.00  0.00    +0.043 A 
ATOM     29  C   UNL     1       4.038  -1.199  -1.822  0.00  0.00    +0.041 A 
ATOM     30  C   UNL     1       3.341  -2.305  -1.506  0.00  0.00    +0.195 A 
ATOM     31  O   UNL     1       2.588  -2.039  -0.426  0.00  0.00    -0.469 OA
ENDBRANCH  20  27
ENDBRANCH  17  20
ENDBRANCH   2  17
TORSDOF 7
