REMARK  Name = ZINC65305958
REMARK  14 active torsions:
REMARK  status: ('A' for Active; 'I' for Inactive)
REMARK    1  A    between atoms: C_1  and  C_2
REMARK    2  A    between atoms: C_2  and  C_3
REMARK    3  A    between atoms: C_3  and  C_5
REMARK    4  A    between atoms: C_3  and  C_6
REMARK    5  A    between atoms: C_6  and  C_8
REMARK    6  A    between atoms: C_6  and  N_20
REMARK    7  A    between atoms: N_10  and  C_11
REMARK    8  A    between atoms: C_21  and  C_23
REMARK    9  A    between atoms: C_25  and  O_33
REMARK   10  A    between atoms: C_26  and  O_31
REMARK   11  A    between atoms: C_27  and  O_29
REMARK   12  A    between atoms: O_29  and  C_30
REMARK   13  A    between atoms: O_31  and  C_32
REMARK   14  A    between atoms: O_33  and  C_34
REMARK                            x       y       z     vdW  Elec       q    Type
REMARK                         _______ _______ _______ _____ _____    ______ ____
ROOT
ATOM      1  C   UNL     1       0.848  -1.956  -1.228  0.00  0.00    +0.162 C 
ENDROOT
BRANCH   1   2
ATOM      2  C   UNL     1      -0.538  -2.508  -1.438  0.00  0.00    +0.236 C 
ATOM      3  O   UNL     1      -1.081  -3.137  -0.553  0.00  0.00    -0.274 OA
ATOM      4  N   UNL     1      -1.176  -2.305  -2.608  0.00  0.00    -0.277 N 
ATOM      5  H   UNL     1      -0.773  -1.742  -3.288  0.00  0.00    +0.152 HD
BRANCH   4   6
ATOM      6  C   UNL     1      -2.476  -2.933  -2.853  0.00  0.00    +0.269 C 
ATOM      7  N   UNL     1      -2.294  -4.347  -3.203  0.00  0.00    -0.348 N 
ATOM      8  C   UNL     1      -2.779  -4.519  -4.399  0.00  0.00    +0.061 A 
ATOM      9  C   UNL     1      -2.885  -5.693  -5.276  0.00  0.00    +0.027 A 
ATOM     10  C   UNL     1      -3.449  -5.566  -6.493  0.00  0.00    +0.002 A 
ATOM     11  C   UNL     1      -3.950  -4.343  -6.973  0.00  0.00    +0.002 A 
ATOM     12  C   UNL     1      -3.903  -3.205  -6.251  0.00  0.00    +0.027 A 
ATOM     13  C   UNL     1      -3.309  -3.224  -4.907  0.00  0.00    +0.061 A 
ATOM     14  N   UNL     1      -3.132  -2.302  -4.005  0.00  0.00    -0.348 N 
ATOM     15  H   UNL     1      -1.887  -5.029  -2.646  0.00  0.00    +0.163 HD
ATOM     16  H   UNL     1      -3.387  -1.369  -4.080  0.00  0.00    +0.163 HD
ENDBRANCH   4   6
ENDBRANCH   1   2
BRANCH   1  17
ATOM     17  N   UNL     1       1.549  -2.762  -0.227  0.00  0.00    -0.300 N 
ATOM     18  C   UNL     1       2.896  -2.810  -0.223  0.00  0.00    +0.245 C 
ATOM     19  O   UNL     1       3.529  -2.183  -1.050  0.00  0.00    -0.270 OA
ATOM     20  H   UNL     1       1.044  -3.262   0.434  0.00  0.00    +0.150 HD
BRANCH  18  21
ATOM     21  C   UNL     1       3.603  -3.623   0.787  0.00  0.00    +0.044 A 
ATOM     22  C   UNL     1       2.877  -4.347   1.735  0.00  0.00    +0.062 A 
ATOM     23  C   UNL     1       3.541  -5.108   2.679  0.00  0.00    +0.166 A 
ATOM     24  C   UNL     1       4.932  -5.152   2.686  0.00  0.00    +0.204 A 
ATOM     25  C   UNL     1       5.658  -4.430   1.742  0.00  0.00    +0.166 A 
ATOM     26  C   UNL     1       4.999  -3.673   0.792  0.00  0.00    +0.062 A 
BRANCH  25  27
ATOM     27  O   UNL     1       7.018  -4.475   1.751  0.00  0.00    -0.491 OA
ATOM     28  C   UNL     1       7.699  -3.710   0.755  0.00  0.00    +0.277 C 
ENDBRANCH  25  27
BRANCH  24  29
ATOM     29  O   UNL     1       5.583  -5.900   3.615  0.00  0.00    -0.488 OA
ATOM     30  C   UNL     1       5.866  -7.258   3.272  0.00  0.00    +0.277 C 
ENDBRANCH  24  29
BRANCH  23  31
ATOM     31  O   UNL     1       2.834  -5.814   3.602  0.00  0.00    -0.491 OA
ATOM     32  C   UNL     1       1.410  -5.723   3.538  0.00  0.00    +0.277 C 
ENDBRANCH  23  31
ENDBRANCH  18  21
ENDBRANCH   1  17
BRANCH   1  33
ATOM     33  C   UNL     1       0.751  -0.508  -0.742  0.00  0.00    +0.015 C 
ATOM     34  C   UNL     1       0.104  -0.478   0.645  0.00  0.00    +0.010 C 
BRANCH  33  36
ATOM     35  C   UNL     1       2.049   1.580  -0.297  0.00  0.00    +0.004 C 
ATOM     36  C   UNL     1       2.154   0.098  -0.663  0.00  0.00    +0.002 C 
ENDBRANCH  33  36
ENDBRANCH   1  33
TORSDOF 9
