REMARK  Name = ZINC66701229
REMARK  11 active torsions:
REMARK  status: ('A' for Active; 'I' for Inactive)
REMARK    1  A    between atoms: C_1  and  C_2
REMARK    2  A    between atoms: C_2  and  O_3
REMARK    3  A    between atoms: O_3  and  C_4
REMARK    4  A    between atoms: C_4  and  C_5
REMARK    5  A    between atoms: N_7  and  N_8
REMARK    6  A    between atoms: N_11  and  C_12
REMARK    7  A    between atoms: C_12  and  C_13
REMARK    8  A    between atoms: C_13  and  C_14
REMARK    9  A    between atoms: C_13  and  C_15
REMARK   10  A    between atoms: C_13  and  N_16
REMARK   11  A    between atoms: C_20  and  C_23
REMARK                            x       y       z     vdW  Elec       q    Type
REMARK                         _______ _______ _______ _____ _____    ______ ____
ROOT
ATOM      1  N   UNL     1       2.327  -3.903  -4.042  0.00  0.00    -0.218 N 
ATOM      2  C   UNL     1       2.517  -5.200  -4.354  0.00  0.00    +0.316 C 
ATOM      3  O   UNL     1       3.099  -5.500  -5.379  0.00  0.00    -0.251 OA
ATOM      4  N   UNL     1       2.062  -6.165  -3.531  0.00  0.00    -0.300 N 
ATOM      5  H   UNL     1       2.655  -3.208  -4.635  0.00  0.00    +0.174 HD
ATOM      6  H   UNL     1       1.598  -5.926  -2.713  0.00  0.00    +0.150 HD
ENDROOT
BRANCH   1   9
ATOM      7  C   UNL     1       1.467  -2.260  -2.550  0.00  0.00    +0.255 C 
ATOM      8  O   UNL     1       1.877  -1.392  -3.291  0.00  0.00    -0.272 OA
ATOM      9  N   UNL     1       1.657  -3.557  -2.862  0.00  0.00    -0.231 N 
ATOM     10  H   UNL     1       1.329  -4.252  -2.269  0.00  0.00    +0.173 HD
BRANCH   7  11
ATOM     11  C   UNL     1       0.746  -1.888  -1.280  0.00  0.00    +0.256 C 
BRANCH  11  12
ATOM     12  O   UNL     1       0.671  -0.465  -1.174  0.00  0.00    -0.371 OA
BRANCH  12  14
ATOM     13  C   UNL     1      -0.019   1.526   0.010  0.00  0.00    +0.034 C 
ATOM     14  C   UNL     1       0.002  -0.004   0.002  0.00  0.00    +0.157 C 
ENDBRANCH  12  14
ENDBRANCH  11  12
ENDBRANCH   7  11
ENDBRANCH   1   9
BRANCH   4  15
ATOM     15  C   UNL     1       2.268  -7.575  -3.870  0.00  0.00    +0.093 C 
BRANCH  15  16
ATOM     16  C   UNL     1       1.660  -8.457  -2.777  0.00  0.00    -0.055 C 
ATOM     17  C   UNL     1       1.875  -9.930  -3.131  0.00  0.00    -0.008 C 
ATOM     18  C   UNL     1       2.336  -8.150  -1.439  0.00  0.00    -0.008 C 
BRANCH  16  19
ATOM     19  N   UNL     1       0.221  -8.184  -2.672  0.00  0.00    +0.384 N 
ATOM     20  C   UNL     1      -0.425  -8.470  -3.959  0.00  0.00    -0.078 C 
ATOM     21  C   UNL     1      -1.911  -8.111  -3.880  0.00  0.00    -0.018 C 
ATOM     22  C   UNL     1      -2.573  -8.943  -2.778  0.00  0.00    -0.001 C 
ATOM     23  C   UNL     1      -1.844  -8.693  -1.455  0.00  0.00    -0.031 C 
ATOM     24  C   UNL     1      -0.361  -9.030  -1.624  0.00  0.00    -0.075 C 
ATOM     25  C   UNL     1      -2.449  -9.577  -0.363  0.00  0.00    +0.005 C 
ATOM     26  H   UNL     1       0.080  -7.213  -2.436  0.00  0.00    -0.081 HD
ENDBRANCH  16  19
ENDBRANCH  15  16
ENDBRANCH   4  15
TORSDOF 7
