REMARK  Name = ZINC37290568
REMARK  7 active torsions:
REMARK  status: ('A' for Active; 'I' for Inactive)
REMARK    1  A    between atoms: C_1  and  O_2
REMARK    2  A    between atoms: O_2  and  C_3
REMARK    3  A    between atoms: C_6  and  N_10
REMARK    4  A    between atoms: N_10  and  C_11
REMARK    5  A    between atoms: C_14  and  S_18
REMARK    6  A    between atoms: C_16  and  N_17
REMARK    7  A    between atoms: S_18  and  N_21
REMARK                            x       y       z     vdW  Elec       q    Type
REMARK                         _______ _______ _______ _____ _____    ______ ____
ROOT
ATOM      1  C   UNL     1       2.602  -3.849  -4.328  0.00  0.00    +0.052 A 
ATOM      2  C   UNL     1       2.033  -4.624  -3.329  0.00  0.00    +0.027 A 
ATOM      3  C   UNL     1       2.176  -5.999  -3.356  0.00  0.00    +0.030 A 
ATOM      4  C   UNL     1       2.884  -6.605  -4.377  0.00  0.00    +0.107 A 
ATOM      5  C   UNL     1       3.454  -5.840  -5.377  0.00  0.00    +0.053 A 
ATOM      6  C   UNL     1       3.311  -4.460  -5.361  0.00  0.00    +0.048 A 
ENDROOT
BRANCH   6   7
ATOM      7  N   UNL     1       3.883  -3.684  -6.377  0.00  0.00    -0.356 N 
ATOM      8  H   UNL     1       3.785  -2.719  -6.362  0.00  0.00    +0.142 HD
ATOM      9  H   UNL     1       4.376  -4.111  -7.094  0.00  0.00    +0.142 HD
ENDBRANCH   6   7
BRANCH   4  10
ATOM     10  S   UNL     1       3.061  -8.358  -4.403  0.00  0.00    +0.056 S 
ATOM     11  O   UNL     1       4.229  -8.637  -5.163  0.00  0.00    -0.153 OA
ATOM     12  O   UNL     1       2.901  -8.803  -3.063  0.00  0.00    -0.153 OA
BRANCH  10  13
ATOM     13  N   UNL     1       1.782  -8.967  -5.260  0.00  0.00    -0.204 NA
ATOM     14  H   UNL     1       1.882  -9.792  -5.760  0.00  0.00    +0.144 HD
ATOM     15  H   UNL     1       0.933  -8.498  -5.262  0.00  0.00    +0.144 HD
ENDBRANCH  10  13
ENDBRANCH   4  10
BRANCH   1  16
ATOM     16  N   UNL     1       2.458  -2.456  -4.303  0.00  0.00    -0.313 N 
ATOM     17  H   UNL     1       2.759  -1.924  -5.056  0.00  0.00    +0.152 HD
BRANCH  16  21
ATOM     18  C   UNL     1       0.743  -0.597  -0.989  0.00  0.00    +0.155 A 
ATOM     19  C   UNL     1       1.648  -1.632  -0.812  0.00  0.00    +0.050 A 
ATOM     20  C   UNL     1       2.216  -2.249  -1.909  0.00  0.00    +0.027 A 
ATOM     21  C   UNL     1       1.882  -1.832  -3.192  0.00  0.00    +0.034 A 
ATOM     22  C   UNL     1       0.975  -0.796  -3.370  0.00  0.00    +0.065 A 
ATOM     23  C   UNL     1       0.402  -0.183  -2.270  0.00  0.00    +0.167 A 
ATOM     24  F   UNL     1      -0.484   0.823  -2.442  0.00  0.00    -0.202 F 
BRANCH  18  26
ATOM     25  C   UNL     1       0.579  -0.467   1.380  0.00  0.00    +0.277 C 
ATOM     26  O   UNL     1       0.183   0.010   0.093  0.00  0.00    -0.492 OA
ENDBRANCH  18  26
ENDBRANCH  16  21
ENDBRANCH   1  16
TORSDOF 6
