REMARK  Name = ZINC37673227
REMARK  1 active torsions:
REMARK  status: ('A' for Active; 'I' for Inactive)
REMARK    1  A    between atoms: C_3  and  N_23
REMARK                            x       y       z     vdW  Elec       q    Type
REMARK                         _______ _______ _______ _____ _____    ______ ____
ROOT
ATOM      1  C   UNL     1      -0.013   1.382   0.039  0.00  0.00    +0.019 A 
ATOM      2  C   UNL     1       0.535   1.062  -1.196  0.00  0.00    +0.027 A 
ATOM      3  C   UNL     1       1.698   0.305  -1.228  0.00  0.00    +0.063 A 
ATOM      4  C   UNL     1       2.272  -0.104  -0.021  0.00  0.00    +0.120 A 
ATOM      5  N   UNL     1       1.716   0.224   1.133  0.00  0.00    -0.348 N 
ATOM      6  C   UNL     1       0.609   0.943   1.190  0.00  0.00    +0.084 A 
ATOM      7  N   UNL     1       3.439  -0.864  -0.034  0.00  0.00    -0.312 N 
ATOM      8  C   UNL     1       4.756  -0.215   0.036  0.00  0.00    +0.125 C 
ATOM      9  C   UNL     1       5.532  -0.807   1.220  0.00  0.00    +0.125 C 
ATOM     10  N   UNL     1       5.469  -2.273   1.137  0.00  0.00    -0.307 N 
ATOM     11  C   UNL     1       4.152  -2.922   1.067  0.00  0.00    +0.125 C 
ATOM     12  C   UNL     1       3.376  -2.331  -0.111  0.00  0.00    +0.125 C 
ATOM     13  C   UNL     1       6.638  -3.034   1.124  0.00  0.00    +0.207 A 
ATOM     14  C   UNL     1       7.946  -2.401   1.359  0.00  0.00    +0.294 A 
ATOM     15  O   UNL     1       8.023  -1.204   1.567  0.00  0.00    -0.264 OA
ATOM     16  N   UNL     1       9.057  -3.165   1.341  0.00  0.00    -0.271 N 
ATOM     17  H   UNL     1       9.926  -2.761   1.494  0.00  0.00    +0.174 HD
ATOM     18  C   UNL     1       8.963  -4.487   1.110  0.00  0.00    +0.343 A 
ATOM     19  O   UNL     1       9.972  -5.166   1.097  0.00  0.00    -0.245 OA
ATOM     20  N   UNL     1       7.771  -5.072   0.895  0.00  0.00    -0.226 N 
ATOM     21  H   UNL     1       7.730  -6.027   0.732  0.00  0.00    +0.194 HD
ATOM     22  N   UNL     1       6.589  -4.323   0.908  0.00  0.00    -0.149 NA
ATOM     23  H   UNL     1       2.131  -0.071   1.958  0.00  0.00    +0.167 HD
ENDROOT
BRANCH   3  24
ATOM     24  N   UNL     1       2.288  -0.043  -2.449  0.00  0.00    -0.355 N 
ATOM     25  H   UNL     1       1.838   0.169  -3.282  0.00  0.00    +0.142 HD
ATOM     26  H   UNL     1       3.145  -0.495  -2.462  0.00  0.00    +0.142 HD
ENDBRANCH   3  24
TORSDOF 1
