REMARK  Name = ZINC39636063
REMARK  9 active torsions:
REMARK  status: ('A' for Active; 'I' for Inactive)
REMARK    1  A    between atoms: C_1  and  C_2
REMARK    2  A    between atoms: C_2  and  C_3
REMARK    3  A    between atoms: C_3  and  C_4
REMARK    4  A    between atoms: C_4  and  C_5
REMARK    5  A    between atoms: C_5  and  C_7
REMARK    6  A    between atoms: C_5  and  C_8
REMARK    7  A    between atoms: C_12  and  C_21
REMARK    8  A    between atoms: N_23  and  C_24
REMARK    9  A    between atoms: C_30  and  C_32
REMARK                            x       y       z     vdW  Elec       q    Type
REMARK                         _______ _______ _______ _____ _____    ______ ____
ROOT
ATOM      1  C   UNL     1       1.419  -4.122   2.509  0.00  0.00    +0.218 C 
ATOM      2  O   UNL     1       0.808  -4.738   1.662  0.00  0.00    -0.275 OA
ATOM      3  N   UNL     1       1.995  -4.777   3.536  0.00  0.00    -0.300 N 
ATOM      4  C   UNL     1       2.770  -4.202   4.661  0.00  0.00    +0.121 C 
ATOM      5  C   UNL     1       2.333  -5.022   5.896  0.00  0.00    +0.100 C 
ATOM      6  C   UNL     1       1.827  -6.356   5.322  0.00  0.00    -0.004 C 
ATOM      7  C   UNL     1       1.990  -6.236   3.800  0.00  0.00    +0.115 C 
ATOM      8  C   UNL     1       0.357  -6.560   5.675  0.00  0.00    -0.010 C 
ATOM      9  C   UNL     1      -0.107  -7.919   5.144  0.00  0.00    -0.082 C 
ATOM     10  N   UNL     1       0.711  -8.983   5.736  0.00  0.00    +0.379 N 
ATOM     11  C   UNL     1       2.110  -8.833   5.316  0.00  0.00    -0.082 C 
ATOM     12  C   UNL     1       2.668  -7.513   5.855  0.00  0.00    -0.010 C 
ATOM     13  H   UNL     1       0.656  -8.928   6.742  0.00  0.00    -0.086 HD
ATOM     14  H   UNL     1       0.365  -9.881   5.432  0.00  0.00    -0.086 HD
ENDROOT
BRANCH   5  15
ATOM     15  C   UNL     1       3.506  -5.253   6.814  0.00  0.00    +0.218 C 
ATOM     16  O   UNL     1       4.620  -5.383   6.353  0.00  0.00    -0.275 OA
ATOM     17  N   UNL     1       3.316  -5.315   8.146  0.00  0.00    -0.312 N 
ATOM     18  H   UNL     1       2.425  -5.211   8.515  0.00  0.00    +0.149 HD
BRANCH  17  19
ATOM     19  C   UNL     1       4.456  -5.540   9.039  0.00  0.00    +0.076 C 
ATOM     20  C   UNL     1       4.724  -7.042   9.155  0.00  0.00    +0.022 C 
ATOM     21  C   UNL     1       3.486  -7.738   9.723  0.00  0.00    +0.002 C 
ATOM     22  C   UNL     1       3.170  -7.168  11.107  0.00  0.00    +0.000 C 
ATOM     23  C   UNL     1       2.902  -5.666  10.991  0.00  0.00    +0.005 C 
ATOM     24  C   UNL     1       4.140  -4.970  10.423  0.00  0.00    +0.006 C 
ATOM     25  C   UNL     1       3.872  -3.468  10.307  0.00  0.00    +0.009 C 
ENDBRANCH  17  19
ENDBRANCH   5  15
BRANCH   1  26
ATOM     26  C   UNL     1       1.535  -2.622   2.412  0.00  0.00    +0.072 C 
ATOM     27  C   UNL     1       3.011  -2.230   2.321  0.00  0.00    +0.017 C 
BRANCH  26  28
ATOM     28  C   UNL     1       0.799  -2.133   1.163  0.00  0.00    +0.012 C 
BRANCH  28  29
ATOM     29  C   UNL     1       0.810  -0.604   1.131  0.00  0.00    +0.000 C 
BRANCH  29  31
ATOM     30  C   UNL     1       0.085   1.415  -0.150  0.00  0.00    +0.004 C 
ATOM     31  C   UNL     1       0.074  -0.114  -0.118  0.00  0.00    -0.003 C 
ENDBRANCH  29  31
ENDBRANCH  28  29
ENDBRANCH  26  28
ENDBRANCH   1  26
TORSDOF 6
