REMARK  Name = ZINC35929099
REMARK  8 active torsions:
REMARK  status: ('A' for Active; 'I' for Inactive)
REMARK    1  A    between atoms: C_1  and  O_2
REMARK    2  A    between atoms: O_2  and  C_3
REMARK    3  A    between atoms: C_6  and  C_10
REMARK    4  A    between atoms: C_12  and  N_35
REMARK    5  A    between atoms: N_13  and  C_28
REMARK    6  A    between atoms: N_19  and  C_20
REMARK    7  A    between atoms: C_20  and  C_21
REMARK    8  A    between atoms: C_21  and  N_22
REMARK                            x       y       z     vdW  Elec       q    Type
REMARK                         _______ _______ _______ _____ _____    ______ ____
ROOT
ATOM      1  C   UNL     1       2.788  -2.560   4.158  0.00  0.00    +0.091 A 
ATOM      2  C   UNL     1       2.659  -3.953   4.359  0.00  0.00    +0.086 A 
ATOM      3  C   UNL     1       2.033  -5.001   3.696  0.00  0.00    +0.131 A 
ATOM      4  N   UNL     1       2.277  -6.127   4.394  0.00  0.00    -0.216 N 
ATOM      5  N   UNL     1       3.060  -5.831   5.516  0.00  0.00    -0.144 NA
ATOM      6  C   UNL     1       3.316  -4.542   5.541  0.00  0.00    +0.189 A 
ATOM      7  N   UNL     1       3.999  -3.716   6.358  0.00  0.00    -0.193 NA
ATOM      8  C   UNL     1       4.068  -2.427   6.095  0.00  0.00    +0.218 A 
ATOM      9  N   UNL     1       3.495  -1.860   5.038  0.00  0.00    -0.214 NA
ATOM     10  N   UNL     1       4.781  -1.620   6.964  0.00  0.00    -0.315 N 
ATOM     11  H   UNL     1       4.848  -0.667   6.795  0.00  0.00    +0.149 HD
ENDROOT
BRANCH   1  15
ATOM     12  C   UNL     1       0.972  -0.661   0.818  0.00  0.00    +0.123 A 
ATOM     13  C   UNL     1       0.193  -1.385   1.713  0.00  0.00    +0.046 A 
ATOM     14  C   UNL     1       0.778  -2.002   2.797  0.00  0.00    +0.016 A 
ATOM     15  C   UNL     1       2.156  -1.900   2.996  0.00  0.00    +0.037 A 
ATOM     16  C   UNL     1       2.938  -1.171   2.094  0.00  0.00    +0.136 A 
ATOM     17  C   UNL     1       2.343  -0.560   1.007  0.00  0.00    +0.084 A 
ATOM     18  F   UNL     1       4.271  -1.069   2.282  0.00  0.00    -0.205 F 
BRANCH  12  20
ATOM     19  C   UNL     1      -1.026  -0.199  -0.384  0.00  0.00    +0.277 C 
ATOM     20  O   UNL     1       0.390  -0.055  -0.249  0.00  0.00    -0.495 OA
ENDBRANCH  12  20
ENDBRANCH   1  15
BRANCH   4  21
ATOM     21  C   UNL     1       1.816  -7.404   4.049  0.00  0.00    +0.068 A 
ATOM     22  C   UNL     1       0.572  -7.555   3.449  0.00  0.00    +0.030 A 
ATOM     23  C   UNL     1       0.119  -8.815   3.109  0.00  0.00    +0.040 A 
ATOM     24  C   UNL     1       0.904  -9.926   3.366  0.00  0.00    +0.124 A 
ATOM     25  C   UNL     1       2.144  -9.778   3.964  0.00  0.00    +0.040 A 
ATOM     26  C   UNL     1       2.603  -8.519   4.301  0.00  0.00    +0.030 A 
ATOM     27  F   UNL     1       0.459 -11.158   3.034  0.00  0.00    -0.205 F 
ENDBRANCH   4  21
BRANCH   3  28
ATOM     28  N   UNL     1       1.295  -4.905   2.531  0.00  0.00    -0.342 N 
ATOM     29  H   UNL     1       1.167  -4.042   2.107  0.00  0.00    +0.144 HD
ATOM     30  H   UNL     1       0.904  -5.701   2.137  0.00  0.00    +0.144 HD
ENDBRANCH   3  28
BRANCH  10  31
ATOM     31  C   UNL     1       5.434  -2.205   8.138  0.00  0.00    +0.086 C 
BRANCH  31  32
ATOM     32  C   UNL     1       6.148  -1.104   8.925  0.00  0.00    -0.060 C 
BRANCH  32  33
ATOM     33  N   UNL     1       6.802  -1.690  10.102  0.00  0.00    +0.381 N 
ATOM     34  C   UNL     1       5.782  -2.229  11.010  0.00  0.00    -0.079 C 
ATOM     35  C   UNL     1       6.461  -2.912  12.199  0.00  0.00    -0.019 C 
ATOM     36  C   UNL     1       7.322  -1.889  12.945  0.00  0.00    -0.004 C 
ATOM     37  C   UNL     1       8.334  -1.280  11.970  0.00  0.00    -0.019 C 
ATOM     38  C   UNL     1       7.585  -0.657  10.790  0.00  0.00    -0.079 C 
ATOM     39  H   UNL     1       7.415  -2.436   9.809  0.00  0.00    -0.082 HD
ENDBRANCH  32  33
ENDBRANCH  31  32
ENDBRANCH  10  31
TORSDOF 7
