REMARK  Name = ZINC58078259
REMARK  13 active torsions:
REMARK  status: ('A' for Active; 'I' for Inactive)
REMARK    1  A    between atoms: C_1  and  C_2
REMARK    2  A    between atoms: C_2  and  N_3
REMARK    3  A    between atoms: N_3  and  C_4
REMARK    4  A    between atoms: N_3  and  C_20
REMARK    5  A    between atoms: C_4  and  C_5
REMARK    6  A    between atoms: N_7  and  C_8
REMARK    7  A    between atoms: C_8  and  C_9
REMARK    8  A    between atoms: C_9  and  C_10
REMARK    9  A    between atoms: C_13  and  O_16
REMARK   10  A    between atoms: O_16  and  C_17
REMARK   11  A    between atoms: N_24  and  C_26
REMARK   12  A    between atoms: C_26  and  C_28
REMARK   13  A    between atoms: C_26  and  C_29
REMARK                            x       y       z     vdW  Elec       q    Type
REMARK                         _______ _______ _______ _____ _____    ______ ____
ROOT
ATOM      1  N   UNL     1      -1.341  -0.596  -0.067  0.00  0.00    -0.293 NA
ENDROOT
BRANCH   1   2
ATOM      2  C   UNL     1      -2.125  -0.264   1.130  0.00  0.00    +0.039 C 
ATOM      3  C   UNL     1      -3.571  -0.815   1.017  0.00  0.00    -0.002 C 
ATOM      4  C   UNL     1      -4.378   0.140   1.921  0.00  0.00    -0.076 C 
ATOM      5  N   UNL     1      -3.607   1.392   2.033  0.00  0.00    +0.385 N 
ATOM      6  C   UNL     1      -2.377   1.261   1.223  0.00  0.00    -0.059 C 
ATOM      7  H   UNL     1      -3.362   1.555   2.998  0.00  0.00    -0.081 HD
BRANCH   5   8
ATOM      8  C   UNL     1      -4.412   2.514   1.533  0.00  0.00    -0.041 C 
ATOM      9  C   UNL     1      -5.676   2.654   2.383  0.00  0.00    -0.008 C 
BRANCH   8  10
ATOM     10  C   UNL     1      -3.607   3.786   1.616  0.00  0.00    -0.061 A 
ATOM     11  C   UNL     1      -2.797   4.020   2.711  0.00  0.00    +0.002 A 
ATOM     12  C   UNL     1      -2.059   5.187   2.788  0.00  0.00    +0.000 A 
ATOM     13  C   UNL     1      -2.131   6.118   1.769  0.00  0.00    +0.000 A 
ATOM     14  C   UNL     1      -2.941   5.883   0.673  0.00  0.00    +0.000 A 
ATOM     15  C   UNL     1      -3.676   4.715   0.595  0.00  0.00    +0.002 A 
ENDBRANCH   8  10
ENDBRANCH   5   8
ENDBRANCH   1   2
BRANCH   1  17
ATOM     16  C   UNL     1       0.747  -0.259   1.167  0.00  0.00    +0.020 C 
ATOM     17  C   UNL     1      -0.060   0.124  -0.074  0.00  0.00    +0.082 C 
ENDBRANCH   1  17
BRANCH   1  18
ATOM     18  C   UNL     1      -1.129  -2.046  -0.173  0.00  0.00    +0.180 C 
BRANCH  18  19
ATOM     19  C   UNL     1      -0.543  -2.371  -1.522  0.00  0.00    +0.227 C 
ATOM     20  O   UNL     1      -0.322  -1.482  -2.318  0.00  0.00    -0.274 OA
ATOM     21  N   UNL     1      -0.263  -3.649  -1.845  0.00  0.00    -0.314 N 
ATOM     22  H   UNL     1      -0.439  -4.360  -1.209  0.00  0.00    +0.149 HD
BRANCH  21  23
ATOM     23  C   UNL     1       0.307  -3.965  -3.157  0.00  0.00    +0.109 C 
BRANCH  23  24
ATOM     24  C   UNL     1       0.527  -5.476  -3.268  0.00  0.00    +0.054 C 
BRANCH  24  25
ATOM     25  C   UNL     1       1.114  -5.801  -4.617  0.00  0.00    -0.046 A 
ATOM     26  C   UNL     1       0.279  -6.072  -5.685  0.00  0.00    +0.007 A 
ATOM     27  C   UNL     1       0.815  -6.371  -6.923  0.00  0.00    +0.046 A 
ATOM     28  C   UNL     1       2.191  -6.398  -7.094  0.00  0.00    +0.127 A 
ATOM     29  C   UNL     1       3.027  -6.125  -6.021  0.00  0.00    +0.046 A 
ATOM     30  C   UNL     1       2.486  -5.822  -4.786  0.00  0.00    +0.007 A 
BRANCH  28  31
ATOM     31  O   UNL     1       2.720  -6.692  -8.311  0.00  0.00    -0.434 OA
BRANCH  31  32
ATOM     32  C   UNL     1       4.146  -6.702  -8.413  0.00  0.00    +0.541 C 
ATOM     33  F   UNL     1       4.646  -5.438  -8.081  0.00  0.00    -0.166 F 
ATOM     34  F   UNL     1       4.670  -7.656  -7.535  0.00  0.00    -0.166 F 
ENDBRANCH  31  32
ENDBRANCH  28  31
ENDBRANCH  24  25
ENDBRANCH  23  24
ENDBRANCH  21  23
ENDBRANCH  18  19
ENDBRANCH   1  18
TORSDOF 11
