REMARK  Name = ZINC46737227
REMARK  9 active torsions:
REMARK  status: ('A' for Active; 'I' for Inactive)
REMARK    1  A    between atoms: C_1  and  C_2
REMARK    2  A    between atoms: N_5  and  C_8
REMARK    3  A    between atoms: C_8  and  C_9
REMARK    4  A    between atoms: C_9  and  C_10
REMARK    5  A    between atoms: C_10  and  C_11
REMARK    6  A    between atoms: C_11  and  N_12
REMARK    7  A    between atoms: N_15  and  N_16
REMARK    8  A    between atoms: N_16  and  C_17
REMARK    9  A    between atoms: C_17  and  C_24
REMARK                            x       y       z     vdW  Elec       q    Type
REMARK                         _______ _______ _______ _____ _____    ______ ____
ROOT
ATOM      1  N   UNL     1       3.762  -7.752   2.306  0.00  0.00    -0.298 N 
ATOM      2  C   UNL     1       4.499  -8.360   3.256  0.00  0.00    +0.313 C 
ATOM      3  O   UNL     1       5.041  -7.699   4.121  0.00  0.00    -0.252 OA
ATOM      4  N   UNL     1       4.635  -9.701   3.248  0.00  0.00    -0.234 N 
ATOM      5  H   UNL     1       3.329  -8.279   1.616  0.00  0.00    +0.150 HD
ATOM      6  H   UNL     1       5.165 -10.139   3.932  0.00  0.00    +0.171 HD
ENDROOT
BRANCH   4   7
ATOM      7  N   UNL     1       4.026 -10.443   2.277  0.00  0.00    -0.232 NA
ATOM      8  H   UNL     1       3.032 -10.268   2.257  0.00  0.00    +0.145 HD
BRANCH   7   9
ATOM      9  C   UNL     1       4.304 -11.874   2.456  0.00  0.00    +0.054 C 
ATOM     10  C   UNL     1       5.818 -12.080   2.479  0.00  0.00    +0.047 C 
ATOM     11  C   UNL     1       6.176 -13.502   1.964  0.00  0.00    +0.168 C 
ATOM     12  S   UNL     1       4.955 -13.647   0.586  0.00  0.00    -0.029 S 
ATOM     13  O   UNL     1       5.455 -12.964  -0.555  0.00  0.00    -0.174 OA
ATOM     14  O   UNL     1       4.541 -15.002   0.469  0.00  0.00    -0.174 OA
ATOM     15  C   UNL     1       3.594 -12.660   1.335  0.00  0.00    +0.189 C 
ATOM     16  C   UNL     1       3.732 -12.319   3.804  0.00  0.00    +0.031 C 
ENDBRANCH   7   9
ENDBRANCH   4   7
BRANCH   1  17
ATOM     17  C   UNL     1       3.614  -6.294   2.315  0.00  0.00    +0.105 C 
BRANCH  17  18
ATOM     18  C   UNL     1       2.736  -5.863   1.138  0.00  0.00    +0.017 C 
BRANCH  18  19
ATOM     19  C   UNL     1       2.582  -4.341   1.147  0.00  0.00    -0.017 C 
BRANCH  19  20
ATOM     20  C   UNL     1       1.704  -3.911  -0.029  0.00  0.00    -0.079 C 
BRANCH  20  25
ATOM     21  C   UNL     1      -0.019   1.526   0.010  0.00  0.00    +0.007 C 
ATOM     22  C   UNL     1       0.002  -0.004   0.002  0.00  0.00    -0.018 C 
ATOM     23  C   UNL     1       0.727  -0.499  -1.252  0.00  0.00    -0.016 C 
ATOM     24  C   UNL     1       0.814  -2.027  -1.215  0.00  0.00    -0.079 C 
ATOM     25  N   UNL     1       1.556  -2.449  -0.021  0.00  0.00    +0.380 N 
ATOM     26  C   UNL     1       0.829  -2.040   1.187  0.00  0.00    -0.079 C 
ATOM     27  C   UNL     1       0.743  -0.513   1.242  0.00  0.00    -0.016 C 
ATOM     28  H   UNL     1       2.469  -2.020  -0.024  0.00  0.00    -0.082 HD
ENDBRANCH  20  25
ENDBRANCH  19  20
ENDBRANCH  18  19
ENDBRANCH  17  18
ENDBRANCH   1  17
TORSDOF 7
