REMARK  Name = ZINC06647904
REMARK  8 active torsions:
REMARK  status: ('A' for Active; 'I' for Inactive)
REMARK    1  A    between atoms: C_1  and  C_2
REMARK    2  A    between atoms: C_2  and  C_4
REMARK    3  A    between atoms: C_2  and  N_16
REMARK    4  A    between atoms: N_9  and  C_10
REMARK    5  A    between atoms: N_16  and  C_17
REMARK    6  A    between atoms: N_16  and  C_18
REMARK    7  A    between atoms: C_18  and  C_19
REMARK    8  A    between atoms: N_21  and  C_22
REMARK                            x       y       z     vdW  Elec       q    Type
REMARK                         _______ _______ _______ _____ _____    ______ ____
ROOT
ATOM      1  N   UNL     1      -1.191  -0.473  -0.306  0.00  0.00    +0.391 N 
ATOM      2  C   UNL     1      -1.117  -1.939  -0.374  0.00  0.00    -0.094 C 
ATOM      3  H   UNL     1      -1.824  -0.201   0.431  0.00  0.00    -0.080 HD
ENDROOT
BRANCH   1   5
ATOM      4  C   UNL     1       0.097   1.600  -0.100  0.00  0.00    -0.004 C 
ATOM      5  C   UNL     1       0.145   0.072  -0.030  0.00  0.00    +0.017 C 
BRANCH   5   6
ATOM      6  C   UNL     1       0.587  -0.355   1.346  0.00  0.00    +0.207 C 
ATOM      7  O   UNL     1      -0.216  -0.828   2.121  0.00  0.00    -0.277 OA
ATOM      8  N   UNL     1       1.875  -0.210   1.715  0.00  0.00    -0.242 N 
ATOM      9  C   UNL     1       2.271  -0.592   2.945  0.00  0.00    +0.306 C 
ATOM     10  O   UNL     1       1.466  -1.066   3.722  0.00  0.00    -0.252 OA
ATOM     11  N   UNL     1       3.559  -0.447   3.314  0.00  0.00    -0.296 N 
ATOM     12  H   UNL     1       2.518   0.169   1.094  0.00  0.00    +0.159 HD
ATOM     13  H   UNL     1       4.202  -0.068   2.694  0.00  0.00    +0.151 HD
BRANCH  11  14
ATOM     14  C   UNL     1       3.989  -0.862   4.652  0.00  0.00    +0.074 C 
ATOM     15  C   UNL     1       3.730   0.272   5.645  0.00  0.00    +0.022 C 
ATOM     16  C   UNL     1       4.179  -0.161   7.043  0.00  0.00    +0.002 C 
ATOM     17  C   UNL     1       5.673  -0.488   7.019  0.00  0.00    +0.000 C 
ATOM     18  C   UNL     1       5.932  -1.622   6.026  0.00  0.00    +0.002 C 
ATOM     19  C   UNL     1       5.484  -1.189   4.629  0.00  0.00    +0.022 C 
ENDBRANCH  11  14
ENDBRANCH   5   6
ENDBRANCH   1   5
BRANCH   1  20
ATOM     20  C   UNL     1      -1.678   0.052  -1.589  0.00  0.00    +0.020 C 
BRANCH  20  21
ATOM     21  C   UNL     1      -3.095  -0.408  -1.814  0.00  0.00    +0.201 C 
ATOM     22  O   UNL     1      -3.645  -1.105  -0.987  0.00  0.00    -0.278 OA
ATOM     23  N   UNL     1      -3.752  -0.045  -2.934  0.00  0.00    -0.285 N 
ATOM     24  H   UNL     1      -3.340   0.571  -3.559  0.00  0.00    +0.155 HD
BRANCH  23  25
ATOM     25  C   UNL     1      -5.030  -0.559  -3.194  0.00  0.00    +0.072 A 
ATOM     26  C   UNL     1      -5.900  -0.823  -2.145  0.00  0.00    +0.029 A 
ATOM     27  C   UNL     1      -7.159  -1.330  -2.403  0.00  0.00    +0.043 A 
ATOM     28  C   UNL     1      -7.556  -1.575  -3.706  0.00  0.00    +0.161 A 
ATOM     29  C   UNL     1      -6.690  -1.313  -4.757  0.00  0.00    +0.195 A 
ATOM     30  C   UNL     1      -5.429  -0.799  -4.503  0.00  0.00    +0.182 A 
ATOM     31  F   UNL     1      -4.587  -0.538  -5.527  0.00  0.00    -0.200 F 
ATOM     32  F   UNL     1      -7.079  -1.554  -6.029  0.00  0.00    -0.199 F 
ATOM     33  F   UNL     1      -8.788  -2.071  -3.955  0.00  0.00    -0.202 F 
ENDBRANCH  23  25
ENDBRANCH  20  21
ENDBRANCH   1  20
TORSDOF 6
