REMARK  Name = ZINC21795399
REMARK  9 active torsions:
REMARK  status: ('A' for Active; 'I' for Inactive)
REMARK    1  A    between atoms: C_1  and  C_2
REMARK    2  A    between atoms: C_5  and  C_29
REMARK    3  A    between atoms: C_6  and  N_8
REMARK    4  A    between atoms: N_11  and  C_12
REMARK    5  A    between atoms: C_15  and  N_18
REMARK    6  A    between atoms: C_21  and  N_26
REMARK    7  A    between atoms: C_23  and  C_25
REMARK    8  A    between atoms: N_26  and  C_27
REMARK    9  A    between atoms: N_26  and  C_28
REMARK                            x       y       z     vdW  Elec       q    Type
REMARK                         _______ _______ _______ _____ _____    ______ ____
ROOT
ATOM      1  C   UNL     1      -0.443  -2.755  -0.276  0.00  0.00    +0.035 A 
ATOM      2  C   UNL     1       0.670  -3.353  -0.852  0.00  0.00    +0.025 A 
ATOM      3  C   UNL     1       0.574  -4.625  -1.380  0.00  0.00    +0.025 A 
ATOM      4  C   UNL     1      -0.638  -5.302  -1.346  0.00  0.00    +0.032 A 
ATOM      5  C   UNL     1      -1.753  -4.701  -0.775  0.00  0.00    +0.025 A 
ATOM      6  C   UNL     1      -1.655  -3.431  -0.241  0.00  0.00    +0.025 A 
ENDROOT
BRANCH   4   7
ATOM      7  N   UNL     1      -0.737  -6.590  -1.886  0.00  0.00    -0.301 N 
ATOM      8  C   UNL     1      -0.104  -6.890  -3.083  0.00  0.00    +0.105 A 
ATOM      9  C   UNL     1       0.495  -5.885  -3.836  0.00  0.00    +0.085 A 
ATOM     10  C   UNL     1       1.122  -6.239  -5.027  0.00  0.00    +0.126 A 
ATOM     11  N   UNL     1       1.117  -7.516  -5.406  0.00  0.00    -0.219 NA
ATOM     12  C   UNL     1       0.533  -8.437  -4.667  0.00  0.00    +0.107 A 
ATOM     13  N   UNL     1      -0.066  -8.143  -3.531  0.00  0.00    -0.332 N 
ATOM     14  C   UNL     1       0.552  -9.870  -5.135  0.00  0.00    +0.086 C 
ATOM     15  H   UNL     1      -1.317  -7.363  -1.361  0.00  0.00    +0.154 HD
ATOM     16  H   UNL     1      -0.538  -8.950  -2.951  0.00  0.00    +0.168 HD
BRANCH  10  17
ATOM     17  N   UNL     1       1.738  -5.275  -5.811  0.00  0.00    -0.321 N 
ATOM     18  C   UNL     1       1.834  -3.894  -5.333  0.00  0.00    +0.130 C 
ATOM     19  C   UNL     1       2.293  -5.639  -7.117  0.00  0.00    +0.130 C 
ENDBRANCH  10  17
ENDBRANCH   4   7
BRANCH   1  23
ATOM     20  N   UNL     1      -0.997   0.109   1.859  0.00  0.00    -0.269 N 
ATOM     21  C   UNL     1      -1.011  -1.156   1.394  0.00  0.00    +0.308 C 
ATOM     22  O   UNL     1      -1.625  -2.018   1.993  0.00  0.00    -0.252 OA
ATOM     23  N   UNL     1      -0.344  -1.466   0.265  0.00  0.00    -0.269 N 
ATOM     24  H   UNL     1      -0.365   0.867   1.373  0.00  0.00    +0.156 HD
ATOM     25  H   UNL     1       0.278  -0.707  -0.232  0.00  0.00    +0.156 HD
BRANCH  20  31
ATOM     26  C   UNL     1      -4.830  -0.839   4.789  0.00  0.00    +0.044 C 
ATOM     27  C   UNL     1      -3.651   0.017   4.403  0.00  0.00    -0.049 A 
ATOM     28  C   UNL     1      -3.347   1.147   5.139  0.00  0.00    +0.004 A 
ATOM     29  C   UNL     1      -2.266   1.935   4.788  0.00  0.00    +0.005 A 
ATOM     30  C   UNL     1      -1.482   1.590   3.705  0.00  0.00    -0.029 A 
ATOM     31  C   UNL     1      -1.787   0.458   2.961  0.00  0.00    +0.038 A 
ATOM     32  C   UNL     1      -2.874  -0.330   3.315  0.00  0.00    +0.027 A 
ATOM     33  C   UNL     1      -0.299   2.445   3.327  0.00  0.00    +0.045 C 
ENDBRANCH  20  31
ENDBRANCH   1  23
TORSDOF 4
