REMARK  Name = ZINC21582012
REMARK  12 active torsions:
REMARK  status: ('A' for Active; 'I' for Inactive)
REMARK    1  A    between atoms: C_1  and  C_2
REMARK    2  A    between atoms: C_4  and  C_31
REMARK    3  A    between atoms: C_5  and  N_9
REMARK    4  A    between atoms: C_6  and  C_8
REMARK    5  A    between atoms: C_10  and  C_12
REMARK    6  A    between atoms: C_12  and  N_13
REMARK    7  A    between atoms: N_13  and  C_14
REMARK    8  A    between atoms: N_13  and  C_15
REMARK    9  A    between atoms: C_15  and  C_16
REMARK   10  A    between atoms: N_18  and  C_19
REMARK   11  A    between atoms: C_19  and  C_20
REMARK   12  A    between atoms: N_22  and  C_23
REMARK                            x       y       z     vdW  Elec       q    Type
REMARK                         _______ _______ _______ _____ _____    ______ ____
ROOT
ATOM      1  C   UNL     1       5.349  -1.233   0.851  0.00  0.00    +0.019 C 
ENDROOT
BRANCH   1   2
ATOM      2  C   UNL     1       4.282  -1.270   1.914  0.00  0.00    +0.197 C 
ATOM      3  O   UNL     1       4.352  -0.526   2.870  0.00  0.00    -0.278 OA
ATOM      4  N   UNL     1       3.249  -2.128   1.802  0.00  0.00    -0.308 N 
ATOM      5  H   UNL     1       3.185  -2.803   0.935  0.00  0.00    +0.149 HD
BRANCH   4   6
ATOM      6  C   UNL     1       2.211  -2.164   2.836  0.00  0.00    +0.200 C 
BRANCH   6   7
ATOM      7  C   UNL     1       1.179  -3.201   2.475  0.00  0.00    +0.234 C 
ATOM      8  O   UNL     1       1.299  -3.848   1.456  0.00  0.00    -0.274 OA
ATOM      9  N   UNL     1       0.120  -3.408   3.283  0.00  0.00    -0.284 N 
ATOM     10  H   UNL     1       0.051  -2.878   4.245  0.00  0.00    +0.155 HD
BRANCH   9  11
ATOM     11  C   UNL     1      -0.891  -4.296   2.899  0.00  0.00    +0.036 A 
ATOM     12  C   UNL     1      -2.213  -4.033   3.236  0.00  0.00    +0.026 A 
ATOM     13  C   UNL     1      -3.211  -4.907   2.851  0.00  0.00    +0.043 A 
ATOM     14  C   UNL     1      -2.894  -6.051   2.140  0.00  0.00    +0.159 A 
ATOM     15  C   UNL     1      -1.575  -6.320   1.806  0.00  0.00    +0.160 A 
ATOM     16  C   UNL     1      -0.574  -5.444   2.185  0.00  0.00    +0.064 A 
ATOM     17  F   UNL     1      -1.268  -7.437   1.112  0.00  0.00    -0.202 F 
ATOM     18  F   UNL     1      -3.871  -6.908   1.769  0.00  0.00    -0.202 F 
ENDBRANCH   9  11
ENDBRANCH   6   7
ENDBRANCH   4   6
ENDBRANCH   1   2
BRANCH   1  19
ATOM     19  N   UNL     1       6.356  -0.222   1.202  0.00  0.00    +0.389 N 
ATOM     20  C   UNL     1       5.779   1.129   1.165  0.00  0.00    -0.095 C 
ATOM     21  H   UNL     1       6.688  -0.419   2.232  0.00  0.00    -0.081 HD
BRANCH  19  22
ATOM     22  C   UNL     1       7.528  -0.318   0.323  0.00  0.00    +0.019 C 
BRANCH  22  24
ATOM     23  N   UNL     1       9.811   0.628   0.210  0.00  0.00    -0.287 N 
ATOM     24  C   UNL     1       8.631   0.557   0.859  0.00  0.00    +0.201 C 
ATOM     25  O   UNL     1       8.458   1.198   1.874  0.00  0.00    -0.278 OA
ATOM     26  H   UNL     1       9.949   0.090  -0.739  0.00  0.00    +0.155 HD
BRANCH  23  31
ATOM     27  C   UNL     1      14.061   3.697   2.377  0.00  0.00    +0.044 C 
ATOM     28  C   UNL     1      12.932   2.882   1.802  0.00  0.00    -0.050 A 
ATOM     29  C   UNL     1      13.055   1.508   1.700  0.00  0.00    +0.008 A 
ATOM     30  C   UNL     1      12.022   0.758   1.173  0.00  0.00    -0.029 A 
ATOM     31  C   UNL     1      10.859   1.385   0.745  0.00  0.00    +0.039 A 
ATOM     32  C   UNL     1      10.741   2.765   0.844  0.00  0.00    -0.029 A 
ATOM     33  C   UNL     1      11.775   3.509   1.377  0.00  0.00    +0.008 A 
ATOM     34  C   UNL     1       9.482   3.450   0.376  0.00  0.00    +0.045 C 
ATOM     35  C   UNL     1      12.157  -0.739   1.062  0.00  0.00    +0.045 C 
ENDBRANCH  23  31
ENDBRANCH  22  24
ENDBRANCH  19  22
ENDBRANCH   1  19
TORSDOF 8
