REMARK  Name = ZINC24215454
REMARK  7 active torsions:
REMARK  status: ('A' for Active; 'I' for Inactive)
REMARK    1  A    between atoms: C_1  and  C_2
REMARK    2  A    between atoms: C_3  and  C_14
REMARK    3  A    between atoms: C_4  and  C_13
REMARK    4  A    between atoms: N_5  and  C_7
REMARK    5  A    between atoms: N_21  and  C_22
REMARK    6  A    between atoms: C_22  and  C_23
REMARK    7  A    between atoms: N_28  and  C_29
REMARK                            x       y       z     vdW  Elec       q    Type
REMARK                         _______ _______ _______ _____ _____    ______ ____
ROOT
ATOM      1  C   UNL     1      -1.591   2.233  -0.026  0.00  0.00    +0.054 C 
ATOM      2  C   UNL     1      -0.324   1.427  -0.064  0.00  0.00    +0.204 C 
ATOM      3  O   UNL     1      -0.406   0.217  -0.082  0.00  0.00    -0.277 OA
ATOM      4  N   UNL     1       0.890   1.987  -0.083  0.00  0.00    -0.318 N 
ATOM      5  C   UNL     1       1.098   3.432  -0.100  0.00  0.00    +0.085 C 
ATOM      6  C   UNL     1      -0.174   4.149   0.356  0.00  0.00    -0.058 C 
ATOM      7  N   UNL     1      -1.315   3.622  -0.411  0.00  0.00    +0.397 N 
ATOM      8  H   UNL     1       1.755   1.307  -0.086  0.00  0.00    +0.149 HD
ATOM      9  H   UNL     1      -1.054   3.637  -1.480  0.00  0.00    -0.079 HD
ENDROOT
BRANCH   1  12
ATOM     10  C   UNL     1      -1.524   2.470  -3.185  0.00  0.00    +0.068 C 
ATOM     11  C   UNL     1      -2.564   1.740  -2.375  0.00  0.00    +0.063 A 
ATOM     12  C   UNL     1      -2.593   1.636  -0.980  0.00  0.00    -0.009 A 
ATOM     13  C   UNL     1      -3.676   0.900  -0.639  0.00  0.00    +0.044 A 
ATOM     14  N   UNL     1      -4.315   0.556  -1.780  0.00  0.00    -0.237 N 
ATOM     15  N   UNL     1      -3.596   1.093  -2.855  0.00  0.00    -0.171 NA
ATOM     16  C   UNL     1      -4.095   0.532   0.761  0.00  0.00    +0.066 C 
BRANCH  14  17
ATOM     17  C   UNL     1      -5.488  -0.206  -1.870  0.00  0.00    +0.066 A 
ATOM     18  C   UNL     1      -5.668  -1.082  -2.932  0.00  0.00    +0.028 A 
ATOM     19  C   UNL     1      -6.822  -1.836  -3.017  0.00  0.00    +0.002 A 
ATOM     20  C   UNL     1      -7.803  -1.711  -2.050  0.00  0.00    +0.000 A 
ATOM     21  C   UNL     1      -7.629  -0.836  -0.993  0.00  0.00    +0.002 A 
ATOM     22  C   UNL     1      -6.474  -0.084  -0.901  0.00  0.00    +0.028 A 
ENDBRANCH  14  17
ENDBRANCH   1  12
BRANCH   7  23
ATOM     23  C   UNL     1      -2.504   4.465  -0.233  0.00  0.00    +0.021 C 
BRANCH  23  24
ATOM     24  C   UNL     1      -2.256   5.820  -0.844  0.00  0.00    +0.204 C 
ATOM     25  O   UNL     1      -1.193   6.060  -1.376  0.00  0.00    -0.277 OA
ATOM     26  N   UNL     1      -3.216   6.766  -0.800  0.00  0.00    -0.241 N 
ATOM     27  C   UNL     1      -2.994   7.977  -1.347  0.00  0.00    +0.310 C 
ATOM     28  O   UNL     1      -1.928   8.217  -1.880  0.00  0.00    -0.252 OA
ATOM     29  N   UNL     1      -3.953   8.923  -1.302  0.00  0.00    -0.267 N 
ATOM     30  H   UNL     1      -4.180   6.548  -0.317  0.00  0.00    +0.159 HD
ATOM     31  H   UNL     1      -4.880   8.740  -0.738  0.00  0.00    +0.156 HD
BRANCH  29  32
ATOM     32  C   UNL     1      -3.770  10.138  -1.974  0.00  0.00    +0.070 A 
ATOM     33  C   UNL     1      -2.913  10.209  -3.063  0.00  0.00    +0.026 A 
ATOM     34  C   UNL     1      -2.739  11.408  -3.727  0.00  0.00    +0.002 A 
ATOM     35  C   UNL     1      -3.409  12.540  -3.302  0.00  0.00    +0.003 A 
ATOM     36  C   UNL     1      -4.260  12.476  -2.214  0.00  0.00    +0.040 A 
ATOM     37  C   UNL     1      -4.443  11.278  -1.548  0.00  0.00    +0.145 A 
ATOM     38  F   UNL     1      -5.275  11.215  -0.485  0.00  0.00    -0.204 F 
ENDBRANCH  29  32
ENDBRANCH  23  24
ENDBRANCH   7  23
TORSDOF 5
