REMARK  Name = ZINC19085720
REMARK  9 active torsions:
REMARK  status: ('A' for Active; 'I' for Inactive)
REMARK    1  A    between atoms: C_1  and  C_2
REMARK    2  A    between atoms: C_2  and  C_3
REMARK    3  A    between atoms: C_2  and  C_4
REMARK    4  A    between atoms: C_14  and  C_16
REMARK    5  A    between atoms: C_16  and  C_18
REMARK    6  A    between atoms: C_16  and  O_32
REMARK    7  A    between atoms: C_18  and  N_65
REMARK    8  A    between atoms: C_21  and  C_24
REMARK    9  A    between atoms: C_21  and  O_31
REMARK                            x       y       z     vdW  Elec       q    Type
REMARK                         _______ _______ _______ _____ _____    ______ ____
ROOT
ATOM      1  C   UNL     1       0.940   2.373   1.405  0.00  0.00    +0.128 C 
ENDROOT
BRANCH   1  12
ATOM      2  C   UNL     1      -1.350   8.332   0.477  0.00  0.00    +0.222 C 
ATOM      3  O   UNL     1      -2.070   7.529  -0.077  0.00  0.00    -0.275 OA
ATOM      4  N   UNL     1      -0.222   7.918   1.087  0.00  0.00    -0.271 N 
ATOM      5  C   UNL     1       0.714   8.891   1.668  0.00  0.00    +0.114 C 
ATOM      6  C   UNL     1       2.134   8.477   1.260  0.00  0.00    +0.024 C 
ATOM      7  C   UNL     1       2.443   7.108   1.866  0.00  0.00    +0.038 C 
ATOM      8  C   UNL     1       1.349   6.127   1.539  0.00  0.00    -0.026 A 
ATOM      9  C   UNL     1       0.080   6.552   1.176  0.00  0.00    +0.039 A 
ATOM     10  C   UNL     1      -0.911   5.620   0.890  0.00  0.00    +0.024 A 
ATOM     11  C   UNL     1      -0.631   4.270   0.966  0.00  0.00    +0.008 A 
ATOM     12  C   UNL     1       0.635   3.846   1.325  0.00  0.00    -0.021 A 
ATOM     13  C   UNL     1       1.619   4.771   1.615  0.00  0.00    +0.011 A 
BRANCH   2  15
ATOM     14  C   UNL     1      -2.877  10.033  -0.484  0.00  0.00    +0.017 C 
ATOM     15  C   UNL     1      -1.718   9.794   0.485  0.00  0.00    +0.069 C 
ATOM     16  C   UNL     1      -2.139  10.206   1.897  0.00  0.00    +0.017 C 
ENDBRANCH   2  15
ENDBRANCH   1  12
BRANCH   1  17
ATOM     17  O   UNL     1      -0.212   1.673   1.877  0.00  0.00    -0.389 OA
ATOM     18  H   UNL     1      -0.991   1.772   1.313  0.00  0.00    +0.210 HD
ENDBRANCH   1  17
BRANCH   1  19
ATOM     19  C   UNL     1       1.319   1.854   0.017  0.00  0.00    -0.042 C 
BRANCH  19  25
ATOM     20  C   UNL     1       2.817   0.173   0.906  0.00  0.00    -0.076 C 
ATOM     21  C   UNL     1       3.013  -1.334   1.087  0.00  0.00    +0.021 C 
ATOM     22  C   UNL     1       3.159  -1.994  -0.288  0.00  0.00    +0.090 C 
ATOM     23  C   UNL     1       1.918  -1.683  -1.129  0.00  0.00    +0.021 C 
ATOM     24  C   UNL     1       1.753  -0.166  -1.245  0.00  0.00    -0.076 C 
ATOM     25  N   UNL     1       1.594   0.405   0.109  0.00  0.00    +0.382 N 
ATOM     26  H   UNL     1       0.802  -0.055   0.573  0.00  0.00    -0.082 HD
BRANCH  22  27
ATOM     27  C   UNL     1       3.292  -3.485  -0.119  0.00  0.00    +0.019 A 
ATOM     28  C   UNL     1       4.422  -4.135  -0.580  0.00  0.00    +0.009 A 
ATOM     29  C   UNL     1       4.545  -5.503  -0.425  0.00  0.00    +0.001 A 
ATOM     30  C   UNL     1       3.538  -6.223   0.192  0.00  0.00    +0.003 A 
ATOM     31  C   UNL     1       2.408  -5.576   0.653  0.00  0.00    +0.039 A 
ATOM     32  C   UNL     1       2.286  -4.205   0.502  0.00  0.00    +0.129 A 
ATOM     33  F   UNL     1       1.184  -3.570   0.958  0.00  0.00    -0.205 F 
ENDBRANCH  22  27
BRANCH  22  34
ATOM     34  O   UNL     1       4.321  -1.480  -0.943  0.00  0.00    -0.384 OA
ATOM     35  H   UNL     1       5.146  -1.642  -0.465  0.00  0.00    +0.211 HD
ENDBRANCH  22  34
ENDBRANCH  19  25
ENDBRANCH   1  19
TORSDOF 7
