REMARK  Name = ZINC39655238
REMARK  7 active torsions:
REMARK  status: ('A' for Active; 'I' for Inactive)
REMARK    1  A    between atoms: C_4  and  N_7
REMARK    2  A    between atoms: N_7  and  C_8
REMARK    3  A    between atoms: C_8  and  C_9
REMARK    4  A    between atoms: C_9  and  N_10
REMARK    5  A    between atoms: C_11  and  C_13
REMARK    6  A    between atoms: C_24  and  C_26
REMARK    7  A    between atoms: C_29  and  C_32
REMARK                            x       y       z     vdW  Elec       q    Type
REMARK                         _______ _______ _______ _____ _____    ______ ____
ROOT
ATOM      1  C   UNL     1       6.452  -5.883   0.502  0.00  0.00    +0.100 C 
ATOM      2  C   UNL     1       5.778  -6.691   1.633  0.00  0.00    +0.121 C 
ATOM      3  N   UNL     1       6.639  -7.885   1.806  0.00  0.00    -0.296 N 
ATOM      4  C   UNL     1       8.021  -7.366   1.658  0.00  0.00    +0.115 C 
ATOM      5  C   UNL     1       7.924  -6.328   0.522  0.00  0.00    -0.004 C 
ATOM      6  C   UNL     1       8.832  -5.138   0.817  0.00  0.00    -0.010 C 
ATOM      7  C   UNL     1      10.293  -5.594   0.774  0.00  0.00    -0.082 C 
ATOM      8  N   UNL     1      10.595  -6.149  -0.551  0.00  0.00    +0.379 N 
ATOM      9  C   UNL     1       9.783  -7.348  -0.788  0.00  0.00    -0.082 C 
ATOM     10  C   UNL     1       8.300  -6.967  -0.811  0.00  0.00    -0.010 C 
ATOM     11  C   UNL     1       6.255  -9.154   2.043  0.00  0.00    +0.247 C 
ATOM     12  O   UNL     1       5.075  -9.448   2.011  0.00  0.00    -0.270 OA
ATOM     13  H   UNL     1      10.389  -5.459  -1.258  0.00  0.00    -0.086 HD
ATOM     14  H   UNL     1      11.574  -6.392  -0.597  0.00  0.00    -0.086 HD
ENDROOT
BRANCH  11  15
ATOM     15  C   UNL     1       7.266 -10.190   2.343  0.00  0.00    +0.037 A 
ATOM     16  C   UNL     1       8.532  -9.821   2.802  0.00  0.00    +0.013 A 
ATOM     17  C   UNL     1       9.471 -10.792   3.080  0.00  0.00    +0.013 A 
ATOM     18  C   UNL     1       9.162 -12.129   2.904  0.00  0.00    +0.055 A 
ATOM     19  C   UNL     1       7.909 -12.501   2.448  0.00  0.00    +0.013 A 
ATOM     20  C   UNL     1       6.959 -11.540   2.172  0.00  0.00    +0.013 A 
BRANCH  18  21
ATOM     21  C   UNL     1      10.193 -13.185   3.209  0.00  0.00    +0.417 C 
ATOM     22  F   UNL     1      10.079 -13.575   4.548  0.00  0.00    -0.166 F 
ATOM     23  F   UNL     1       9.985 -14.293   2.381  0.00  0.00    -0.166 F 
ATOM     24  F   UNL     1      11.472 -12.666   2.982  0.00  0.00    -0.166 F 
ENDBRANCH  18  21
ENDBRANCH  11  15
BRANCH   1  26
ATOM     25  N   UNL     1       6.290  -3.530  -0.244  0.00  0.00    -0.314 N 
ATOM     26  C   UNL     1       6.347  -4.405   0.779  0.00  0.00    +0.218 C 
ATOM     27  O   UNL     1       6.314  -4.003   1.923  0.00  0.00    -0.275 OA
ATOM     28  H   UNL     1       6.316  -3.852  -1.159  0.00  0.00    +0.149 HD
BRANCH  25  29
ATOM     29  C   UNL     1       6.188  -2.094   0.025  0.00  0.00    +0.123 C 
BRANCH  29  30
ATOM     30  C   UNL     1       6.139  -1.329  -1.300  0.00  0.00    +0.120 C 
BRANCH  30  31
ATOM     31  N   UNL     1       6.037   0.107  -1.031  0.00  0.00    -0.342 N 
ATOM     32  H   UNL     1       6.011   0.429  -0.116  0.00  0.00    +0.146 HD
BRANCH  31  36
ATOM     33  C   UNL     1       5.861   2.810  -4.193  0.00  0.00    +0.000 A 
ATOM     34  C   UNL     1       5.823   3.270  -2.889  0.00  0.00    +0.002 A 
ATOM     35  C   UNL     1       5.881   2.376  -1.838  0.00  0.00    +0.023 A 
ATOM     36  C   UNL     1       5.978   1.014  -2.092  0.00  0.00    +0.027 A 
ATOM     37  C   UNL     1       6.016   0.555  -3.402  0.00  0.00    +0.023 A 
ATOM     38  C   UNL     1       5.958   1.455  -4.449  0.00  0.00    +0.002 A 
ENDBRANCH  31  36
ENDBRANCH  30  31
ENDBRANCH  29  30
ENDBRANCH  25  29
ENDBRANCH   1  26
TORSDOF 7
