REMARK  Name = ZINC08453419
REMARK  4 active torsions:
REMARK  status: ('A' for Active; 'I' for Inactive)
REMARK    1  A    between atoms: C_1  and  C_2
REMARK    2  A    between atoms: C_8  and  C_31
REMARK    3  A    between atoms: C_14  and  C_20
REMARK    4  A    between atoms: N_22  and  C_23
REMARK                            x       y       z     vdW  Elec       q    Type
REMARK                         _______ _______ _______ _____ _____    ______ ____
ROOT
ATOM      1  C   UNL     1       3.230   9.837  -8.292  0.00  0.00    +0.044 C 
ATOM      2  C   UNL     1       3.201   9.703  -6.792  0.00  0.00    -0.050 A 
ATOM      3  C   UNL     1       3.553   8.489  -6.204  0.00  0.00    +0.005 A 
ATOM      4  C   UNL     1       3.539   8.333  -4.851  0.00  0.00    +0.029 A 
ATOM      5  C   UNL     1       3.163   9.409  -4.033  0.00  0.00    +0.076 A 
ATOM      6  C   UNL     1       2.804  10.644  -4.633  0.00  0.00    +0.022 A 
ATOM      7  C   UNL     1       2.831  10.769  -6.029  0.00  0.00    +0.015 A 
ATOM      8  C   UNL     1       2.431  11.710  -3.794  0.00  0.00    +0.051 A 
ATOM      9  N   UNL     1       2.426  11.513  -2.492  0.00  0.00    -0.219 NA
ATOM     10  C   UNL     1       2.773  10.342  -1.964  0.00  0.00    +0.222 A 
ATOM     11  N   UNL     1       3.132   9.308  -2.699  0.00  0.00    -0.214 NA
ATOM     12  N   UNL     1       2.753  10.202  -0.584  0.00  0.00    -0.258 N 
ATOM     13  C   UNL     1       2.998   8.973  -0.012  0.00  0.00    +0.167 C 
ATOM     14  C   UNL     1       3.615   6.654  -0.213  0.00  0.00    +0.176 C 
ATOM     15  C   UNL     1       4.250   6.793   1.172  0.00  0.00    +0.130 C 
ATOM     16  C   UNL     1       3.458   7.788   1.981  0.00  0.00    +0.222 C 
ATOM     17  O   UNL     1       3.353   7.659   3.182  0.00  0.00    -0.275 OA
ATOM     18  N   UNL     1       2.866   8.825   1.353  0.00  0.00    -0.260 N 
ATOM     19  C   UNL     1       2.039  13.045  -4.373  0.00  0.00    +0.066 C 
ATOM     20  H   UNL     1       2.565  10.970  -0.021  0.00  0.00    +0.158 HD
ATOM     21  H   UNL     1       2.346   9.467   1.861  0.00  0.00    +0.157 HD
ATOM     22  N   UNL     1       3.354   7.994  -0.848  0.00  0.00    -0.349 N 
ATOM     23  H   UNL     1       3.445   8.145  -1.860  0.00  0.00    +0.163 HD
ENDROOT
BRANCH  14  24
ATOM     24  C   UNL     1       2.321   5.890  -0.096  0.00  0.00    +0.240 C 
ATOM     25  O   UNL     1       1.264   6.485  -0.087  0.00  0.00    -0.273 OA
ATOM     26  N   UNL     1       2.339   4.545  -0.003  0.00  0.00    -0.284 N 
ATOM     27  H   UNL     1       3.184   4.075   0.064  0.00  0.00    +0.155 HD
BRANCH  26  28
ATOM     28  C   UNL     1       1.137   3.828  -0.003  0.00  0.00    +0.035 A 
ATOM     29  C   UNL     1       1.027   2.654   0.731  0.00  0.00    +0.025 A 
ATOM     30  C   UNL     1      -0.160   1.948   0.730  0.00  0.00    +0.023 A 
ATOM     31  C   UNL     1      -1.242   2.412   0.002  0.00  0.00    +0.059 A 
ATOM     32  C   UNL     1      -1.134   3.579  -0.736  0.00  0.00    +0.061 A 
ATOM     33  C   UNL     1       0.052   4.289  -0.737  0.00  0.00    +0.044 A 
ATOM     34 CL   UNL     1      -2.491   4.154  -1.653  0.00  0.00    -0.082 Cl
ATOM     35 CL   UNL     1      -2.735   1.526   0.009  0.00  0.00    -0.082 Cl
ENDBRANCH  26  28
ENDBRANCH  14  24
TORSDOF 2
