REMARK  Name = ZINC54132005
REMARK  7 active torsions:
REMARK  status: ('A' for Active; 'I' for Inactive)
REMARK    1  A    between atoms: C_3  and  N_19
REMARK    2  A    between atoms: C_4  and  S_8
REMARK    3  A    between atoms: C_6  and  N_7
REMARK    4  A    between atoms: S_8  and  N_11
REMARK    5  A    between atoms: N_11  and  C_12
REMARK    6  A    between atoms: C_12  and  C_13
REMARK    7  A    between atoms: C_13  and  N_14
REMARK                            x       y       z     vdW  Elec       q    Type
REMARK                         _______ _______ _______ _____ _____    ______ ____
ROOT
ATOM      1  S   UNL     1       4.148  -0.899  -0.179  0.00  0.00    +0.061 S 
ATOM      2  O   UNL     1       4.998  -0.561   0.909  0.00  0.00    -0.153 OA
ATOM      3  O   UNL     1       3.601  -2.200  -0.343  0.00  0.00    -0.153 OA
ENDROOT
BRANCH   1   7
ATOM      4  C   UNL     1       0.639   1.964  -0.031  0.00  0.00    +0.025 A 
ATOM      5  C   UNL     1       0.744   1.048  -1.060  0.00  0.00    +0.036 A 
ATOM      6  C   UNL     1       1.815   0.175  -1.103  0.00  0.00    +0.152 A 
ATOM      7  C   UNL     1       2.785   0.216  -0.118  0.00  0.00    +0.137 A 
ATOM      8  C   UNL     1       2.686   1.129   0.912  0.00  0.00    +0.053 A 
ATOM      9  C   UNL     1       1.611   2.008   0.959  0.00  0.00    +0.027 A 
BRANCH   9  10
ATOM     10  N   UNL     1       1.508   2.934   2.000  0.00  0.00    -0.358 N 
ATOM     11  H   UNL     1       0.757   3.546   2.032  0.00  0.00    +0.142 HD
ATOM     12  H   UNL     1       2.188   2.963   2.692  0.00  0.00    +0.142 HD
ENDBRANCH   9  10
BRANCH   6  13
ATOM     13  N   UNL     1       1.924  -0.806  -2.207  0.00  0.00    +0.058 N 
ATOM     14  O   UNL     1       1.017  -0.931  -2.996  0.00  0.00    -0.126 OA
ATOM     15  O   UNL     1       2.920  -1.481  -2.319  0.00  0.00    -0.126 OA
ENDBRANCH   6  13
ENDBRANCH   1   7
BRANCH   1  16
ATOM     16  N   UNL     1       4.994  -0.564  -1.562  0.00  0.00    -0.192 NA
ATOM     17  H   UNL     1       5.066  -1.232  -2.261  0.00  0.00    +0.148 HD
BRANCH  16  18
ATOM     18  C   UNL     1       5.635   0.743  -1.730  0.00  0.00    +0.087 C 
BRANCH  18  19
ATOM     19  C   UNL     1       6.679   0.659  -2.845  0.00  0.00    -0.062 C 
BRANCH  19  20
ATOM     20  N   UNL     1       7.322   1.969  -3.014  0.00  0.00    +0.381 N 
ATOM     21  C   UNL     1       8.160   2.285  -1.829  0.00  0.00    -0.079 C 
ATOM     22  C   UNL     1       9.160   3.336  -2.372  0.00  0.00    -0.020 C 
ATOM     23  C   UNL     1       9.450   2.830  -3.804  0.00  0.00    -0.020 C 
ATOM     24  C   UNL     1       8.248   1.939  -4.166  0.00  0.00    -0.079 C 
ATOM     25  H   UNL     1       6.624   2.685  -3.147  0.00  0.00    -0.082 HD
ENDBRANCH  19  20
ENDBRANCH  18  19
ENDBRANCH  16  18
ENDBRANCH   1  16
TORSDOF 7
