REMARK  Name = ZINC64041642
REMARK  9 active torsions:
REMARK  status: ('A' for Active; 'I' for Inactive)
REMARK    1  A    between atoms: C_1  and  C_2
REMARK    2  A    between atoms: C_2  and  C_4
REMARK    3  A    between atoms: C_4  and  N_5
REMARK    4  A    between atoms: N_5  and  C_6
REMARK    5  A    between atoms: C_6  and  N_8
REMARK    6  A    between atoms: N_8  and  C_9
REMARK    7  A    between atoms: C_9  and  C_10
REMARK    8  A    between atoms: C_10  and  C_12
REMARK    9  A    between atoms: C_10  and  C_18
REMARK                            x       y       z     vdW  Elec       q    Type
REMARK                         _______ _______ _______ _____ _____    ______ ____
ROOT
ATOM      1  C   UNL     1      -4.963  -2.489   4.669  0.00  0.00    +0.048 C 
ENDROOT
BRANCH   1   2
ATOM      2  C   UNL     1      -5.995  -3.466   5.170  0.00  0.00    -0.036 C 
ATOM      3  C   UNL     1      -5.783  -4.526   5.984  0.00  0.00    -0.001 A 
ATOM      4  C   UNL     1      -4.576  -5.066   6.620  0.00  0.00    +0.010 A 
ATOM      5  C   UNL     1      -4.681  -6.167   7.398  0.00  0.00    +0.001 A 
ATOM      6  C   UNL     1      -5.910  -6.804   7.612  0.00  0.00    +0.002 A 
ATOM      7  C   UNL     1      -7.063  -6.367   7.062  0.00  0.00    +0.026 A 
ATOM      8  C   UNL     1      -7.070  -5.217   6.226  0.00  0.00    +0.043 A 
ATOM      9  N   UNL     1      -8.040  -4.608   5.587  0.00  0.00    -0.380 N 
ATOM     10  C   UNL     1      -7.478  -3.457   4.871  0.00  0.00    +0.145 C 
ATOM     11  H   UNL     1      -8.973  -4.872   5.590  0.00  0.00    +0.160 HD
ENDBRANCH   1   2
BRANCH   1  12
ATOM     12  C   UNL     1      -5.325  -1.079   5.140  0.00  0.00    +0.063 C 
ATOM     13  C   UNL     1      -4.187  -0.069   4.837  0.00  0.00    +0.042 C 
ATOM     14  C   UNL     1      -4.035   0.908   5.959  0.00  0.00    -0.019 C 
ATOM     15  C   UNL     1      -4.543   0.631   7.144  0.00  0.00    +0.036 C 
ATOM     16  S   UNL     1      -5.330  -0.962   6.979  0.00  0.00    -0.129 S 
ENDBRANCH   1  12
BRANCH   1  17
ATOM     17  C   UNL     1      -4.930  -2.523   3.139  0.00  0.00    +0.112 C 
BRANCH  17  18
ATOM     18  N   UNL     1      -4.460  -3.836   2.690  0.00  0.00    -0.326 N 
ATOM     19  H   UNL     1      -4.179  -4.499   3.340  0.00  0.00    +0.148 HD
BRANCH  18  20
ATOM     20  C   UNL     1      -4.419  -4.122   1.374  0.00  0.00    +0.131 C 
ATOM     21  S   UNL     1      -4.915  -2.952   0.227  0.00  0.00    -0.019 S 
BRANCH  20  22
ATOM     22  N   UNL     1      -3.987  -5.330   0.961  0.00  0.00    -0.323 N 
ATOM     23  H   UNL     1      -3.706  -5.993   1.610  0.00  0.00    +0.148 HD
BRANCH  22  24
ATOM     24  C   UNL     1      -3.942  -5.642  -0.470  0.00  0.00    +0.133 C 
BRANCH  24  26
ATOM     25  C   UNL     1      -1.942  -7.302  -0.708  0.00  0.00    +0.040 C 
ATOM     26  C   UNL     1      -3.426  -7.045  -0.663  0.00  0.00    -0.063 C 
ATOM     27  C   UNL     1      -4.268  -8.040  -0.791  0.00  0.00    +0.009 C 
ENDBRANCH  24  26
ENDBRANCH  22  24
ENDBRANCH  20  22
ENDBRANCH  18  20
ENDBRANCH  17  18
ENDBRANCH   1  17
TORSDOF 8
