REMARK  Name = ZINC22495854
REMARK  12 active torsions:
REMARK  status: ('A' for Active; 'I' for Inactive)
REMARK    1  A    between atoms: C_1  and  C_2
REMARK    2  A    between atoms: C_2  and  C_3
REMARK    3  A    between atoms: C_3  and  C_4
REMARK    4  A    between atoms: N_6  and  C_7
REMARK    5  A    between atoms: C_10  and  C_13
REMARK    6  A    between atoms: C_13  and  C_15
REMARK    7  A    between atoms: C_15  and  N_16
REMARK    8  A    between atoms: C_19  and  C_23
REMARK    9  A    between atoms: C_19  and  C_24
REMARK   10  A    between atoms: C_27  and  C_30
REMARK   11  A    between atoms: C_30  and  C_31
REMARK   12  A    between atoms: C_30  and  C_32
REMARK                            x       y       z     vdW  Elec       q    Type
REMARK                         _______ _______ _______ _____ _____    ______ ____
ROOT
ATOM      1  N   UNL     1       2.236 -10.524   2.587  0.00  0.00    -0.216 N 
ATOM      2  C   UNL     1       1.221 -11.345   2.924  0.00  0.00    +0.251 C 
ATOM      3  O   UNL     1       0.219 -11.055   3.542  0.00  0.00    -0.272 OA
ATOM      4  C   UNL     1       1.593 -12.705   2.368  0.00  0.00    +0.135 C 
ATOM      5  N   UNL     1       2.896 -12.471   1.722  0.00  0.00    -0.281 N 
ATOM      6  C   UNL     1       3.184 -11.169   1.899  0.00  0.00    +0.310 C 
ATOM      7  O   UNL     1       4.196 -10.639   1.482  0.00  0.00    -0.252 OA
ATOM      8  C   UNL     1       1.728 -13.729   3.497  0.00  0.00    +0.047 C 
ATOM      9  H   UNL     1       3.438 -13.127   1.258  0.00  0.00    +0.152 HD
ENDROOT
BRANCH   4  10
ATOM     10  C   UNL     1       0.574 -13.161   1.356  0.00  0.00    -0.015 A 
ATOM     11  C   UNL     1      -0.743 -12.753   1.468  0.00  0.00    +0.006 A 
ATOM     12  C   UNL     1      -1.677 -13.171   0.540  0.00  0.00    +0.004 A 
ATOM     13  C   UNL     1      -1.296 -13.997  -0.501  0.00  0.00    -0.045 A 
ATOM     14  C   UNL     1       0.020 -14.404  -0.614  0.00  0.00    +0.004 A 
ATOM     15  C   UNL     1       0.956 -13.982   0.312  0.00  0.00    +0.006 A 
BRANCH  13  16
ATOM     16  C   UNL     1      -2.316 -14.454  -1.513  0.00  0.00    +0.013 C 
ATOM     17  C   UNL     1      -1.900 -13.977  -2.906  0.00  0.00    +0.012 C 
ATOM     18  C   UNL     1      -2.398 -15.981  -1.499  0.00  0.00    +0.012 C 
ENDBRANCH  13  16
ENDBRANCH   4  10
BRANCH   1  19
ATOM     19  C   UNL     1       2.290  -9.100   2.927  0.00  0.00    +0.197 C 
BRANCH  19  20
ATOM     20  C   UNL     1       1.643  -8.296   1.829  0.00  0.00    +0.181 C 
ATOM     21  O   UNL     1       1.181  -8.858   0.858  0.00  0.00    -0.290 OA
BRANCH  20  25
ATOM     22  C   UNL     1       1.433  -4.077   2.135  0.00  0.00    +0.033 A 
ATOM     23  C   UNL     1       0.904  -4.719   1.019  0.00  0.00    +0.024 A 
ATOM     24  C   UNL     1       0.969  -6.084   0.915  0.00  0.00    +0.013 A 
ATOM     25  C   UNL     1       1.570  -6.833   1.935  0.00  0.00    +0.019 A 
ATOM     26  C   UNL     1       2.102  -6.183   3.055  0.00  0.00    +0.013 A 
ATOM     27  C   UNL     1       2.037  -4.817   3.148  0.00  0.00    +0.024 A 
BRANCH  22  30
ATOM     28  C   UNL     1       2.373  -2.004   2.810  0.00  0.00    +0.217 C 
ATOM     29  O   UNL     1       3.301  -2.601   3.313  0.00  0.00    -0.275 OA
ATOM     30  N   UNL     1       1.365  -2.689   2.235  0.00  0.00    -0.285 N 
ATOM     31  H   UNL     1       0.591  -2.216   1.891  0.00  0.00    +0.155 HD
BRANCH  28  32
ATOM     32  C   UNL     1       2.348  -0.498   2.826  0.00  0.00    +0.096 C 
BRANCH  32  34
ATOM     33  C   UNL     1       3.574   1.556   3.550  0.00  0.00    +0.004 C 
ATOM     34  C   UNL     1       3.600   0.026   3.533  0.00  0.00    +0.006 C 
ENDBRANCH  32  34
ENDBRANCH  28  32
ENDBRANCH  22  30
ENDBRANCH  20  25
ENDBRANCH  19  20
ENDBRANCH   1  19
TORSDOF 8
