REMARK  Name = ZINC24172429
REMARK  2 active torsions:
REMARK  status: ('A' for Active; 'I' for Inactive)
REMARK    1  A    between atoms: C_6  and  C_7
REMARK    2  A    between atoms: C_9  and  C_12
REMARK                            x       y       z     vdW  Elec       q    Type
REMARK                         _______ _______ _______ _____ _____    ______ ____
ROOT
ATOM      1  C   UNL     1      -2.863  -4.078   0.019  0.00  0.00    +0.228 C 
ATOM      2  N   UNL     1      -4.296  -4.399  -0.112  0.00  0.00    -0.292 N 
ATOM      3  C   UNL     1      -4.855  -4.362  -1.382  0.00  0.00    +0.181 C 
ATOM      4  N   UNL     1      -4.196  -5.090  -2.373  0.00  0.00    -0.259 N 
ATOM      5  C   UNL     1      -2.808  -5.133  -2.252  0.00  0.00    +0.182 A 
ATOM      6  N   UNL     1      -2.166  -4.668  -1.128  0.00  0.00    -0.288 N 
ATOM      7  C   UNL     1      -0.814  -4.864  -1.313  0.00  0.00    +0.074 A 
ATOM      8  C   UNL     1       0.314  -4.608  -0.544  0.00  0.00    +0.077 A 
ATOM      9  C   UNL     1       1.565  -4.938  -1.031  0.00  0.00    +0.164 A 
ATOM     10  C   UNL     1       1.702  -5.522  -2.286  0.00  0.00    +0.164 A 
ATOM     11  C   UNL     1       0.592  -5.779  -3.063  0.00  0.00    +0.077 A 
ATOM     12  C   UNL     1      -0.679  -5.452  -2.583  0.00  0.00    +0.069 A 
ATOM     13  N   UNL     1      -1.935  -5.584  -3.103  0.00  0.00    -0.327 N 
ATOM     14  O   UNL     1       2.947  -5.844  -2.747  0.00  0.00    -0.488 OA
ATOM     15  C   UNL     1       3.804  -4.742  -3.052  0.00  0.00    +0.232 C 
ATOM     16  C   UNL     1       4.517  -4.251  -1.802  0.00  0.00    +0.082 C 
ATOM     17  C   UNL     1       3.554  -3.677  -0.774  0.00  0.00    +0.232 C 
ATOM     18  O   UNL     1       2.678  -4.690  -0.278  0.00  0.00    -0.488 OA
ATOM     19  N   UNL     1      -5.937  -3.682  -1.635  0.00  0.00    -0.272 NA
ATOM     20  H   UNL     1      -4.831  -4.630   0.663  0.00  0.00    +0.151 HD
ATOM     21  H   UNL     1      -4.670  -5.534  -3.094  0.00  0.00    +0.158 HD
ATOM     22  H   UNL     1      -6.374  -3.185  -0.926  0.00  0.00    +0.189 HD
ATOM     23  H   UNL     1      -2.144  -5.958  -3.974  0.00  0.00    +0.169 HD
ENDROOT
BRANCH   1  26
ATOM     24  C   UNL     1      -1.266  -0.764   0.011  0.00  0.00    +0.109 A 
ATOM     25  N   UNL     1      -1.462  -2.075   0.011  0.00  0.00    -0.240 NA
ATOM     26  C   UNL     1      -2.672  -2.583   0.020  0.00  0.00    +0.090 A 
ATOM     27  C   UNL     1      -3.753  -1.759   0.029  0.00  0.00    +0.074 A 
ATOM     28  S   UNL     1      -2.950  -0.161   0.031  0.00  0.00    -0.075 S 
BRANCH  24  34
ATOM     29  C   UNL     1      -0.017   1.391   0.010  0.00  0.00    +0.012 A 
ATOM     30  C   UNL     1       1.170   2.095   0.002  0.00  0.00    +0.020 A 
ATOM     31  C   UNL     1       2.378   1.419  -0.013  0.00  0.00    +0.041 A 
ATOM     32  C   UNL     1       2.403   0.034  -0.021  0.00  0.00    +0.020 A 
ATOM     33  C   UNL     1       1.223  -0.680  -0.013  0.00  0.00    +0.012 A 
ATOM     34  C   UNL     1       0.002  -0.004   0.002  0.00  0.00    +0.007 A 
ATOM     35 CL   UNL     1       3.868   2.310  -0.023  0.00  0.00    -0.084 Cl
ENDBRANCH  24  34
ENDBRANCH   1  26
TORSDOF 2
