REMARK  Name = ZINC42097527
REMARK  9 active torsions:
REMARK  status: ('A' for Active; 'I' for Inactive)
REMARK    1  A    between atoms: C_1  and  C_2
REMARK    2  A    between atoms: C_8  and  N_10
REMARK    3  A    between atoms: N_10  and  C_11
REMARK    4  A    between atoms: C_11  and  N_13
REMARK    5  A    between atoms: N_13  and  N_14
REMARK    6  A    between atoms: C_15  and  C_17
REMARK    7  A    between atoms: C_17  and  C_19
REMARK    8  A    between atoms: C_17  and  N_20
REMARK    9  A    between atoms: C_21  and  C_23
REMARK                            x       y       z     vdW  Elec       q    Type
REMARK                         _______ _______ _______ _____ _____    ______ ____
ROOT
ATOM      1  N   UNL     1      -1.257   0.843   4.663  0.00  0.00    -0.234 N 
ATOM      2  C   UNL     1      -1.888   1.278   5.772  0.00  0.00    +0.249 C 
ATOM      3  O   UNL     1      -1.275   1.396   6.811  0.00  0.00    -0.272 OA
ATOM      4  H   UNL     1      -1.748   0.748   3.831  0.00  0.00    +0.173 HD
ENDROOT
BRANCH   1   5
ATOM      5  N   UNL     1       0.107   0.528   4.711  0.00  0.00    -0.246 N 
ATOM      6  H   UNL     1       0.598   0.623   5.542  0.00  0.00    +0.172 HD
BRANCH   5   7
ATOM      7  C   UNL     1       0.738   0.093   3.602  0.00  0.00    +0.147 C 
ATOM      8  S   UNL     1       2.405  -0.292   3.661  0.00  0.00    -0.017 S 
BRANCH   7   9
ATOM      9  N   UNL     1       0.056  -0.038   2.447  0.00  0.00    -0.322 N 
ATOM     10  H   UNL     1      -0.888   0.180   2.413  0.00  0.00    +0.148 HD
BRANCH   9  17
ATOM     11  C   UNL     1      -0.019   1.526   0.010  0.00  0.00    +0.009 C 
ATOM     12  C   UNL     1       0.002  -0.004   0.002  0.00  0.00    +0.006 C 
ATOM     13  C   UNL     1       0.718  -0.497  -1.257  0.00  0.00    +0.005 C 
ATOM     14  C   UNL     1       0.739  -2.027  -1.265  0.00  0.00    +0.000 C 
ATOM     15  C   UNL     1       1.479  -2.534  -0.026  0.00  0.00    +0.002 C 
ATOM     16  C   UNL     1       0.763  -2.041   1.233  0.00  0.00    +0.022 C 
ATOM     17  C   UNL     1       0.742  -0.511   1.242  0.00  0.00    +0.075 C 
ENDBRANCH   9  17
ENDBRANCH   7   9
ENDBRANCH   5   7
ENDBRANCH   1   5
BRANCH   2  18
ATOM     18  C   UNL     1      -3.356   1.616   5.720  0.00  0.00    +0.158 C 
ATOM     19  C   UNL     1      -4.151   0.377   5.304  0.00  0.00    +0.038 C 
BRANCH  18  20
ATOM     20  N   UNL     1      -3.801   2.061   7.043  0.00  0.00    -0.300 N 
ATOM     21  C   UNL     1      -4.873   2.870   7.156  0.00  0.00    +0.251 C 
ATOM     22  O   UNL     1      -5.471   3.231   6.159  0.00  0.00    -0.270 OA
ATOM     23  H   UNL     1      -3.324   1.774   7.837  0.00  0.00    +0.150 HD
BRANCH  21  24
ATOM     24  C   UNL     1      -5.319   3.315   8.479  0.00  0.00    +0.074 A 
ATOM     25  C   UNL     1      -6.388   4.133   8.812  0.00  0.00    +0.021 A 
ATOM     26  C   UNL     1      -6.558   4.377  10.154  0.00  0.00    +0.008 A 
ATOM     27  C   UNL     1      -5.696   3.818  11.040  0.00  0.00    +0.046 A 
ATOM     28  S   UNL     1      -4.633   2.939  10.081  0.00  0.00    -0.092 S 
ENDBRANCH  21  24
ENDBRANCH  18  20
ENDBRANCH   2  18
TORSDOF 7
