REMARK  Name = ZINC63393771
REMARK  7 active torsions:
REMARK  status: ('A' for Active; 'I' for Inactive)
REMARK    1  A    between atoms: C_1  and  C_2
REMARK    2  A    between atoms: C_7  and  C_8
REMARK    3  A    between atoms: C_17  and  C_32
REMARK    4  A    between atoms: C_18  and  C_19
REMARK    5  A    between atoms: N_20  and  C_21
REMARK    6  A    between atoms: C_21  and  C_22
REMARK    7  A    between atoms: C_22  and  C_23
REMARK                            x       y       z     vdW  Elec       q    Type
REMARK                         _______ _______ _______ _____ _____    ______ ____
ROOT
ATOM      1  C   UNL     1       0.333  -0.434   2.212  0.00  0.00    +0.088 C 
ATOM      2  C   UNL     1      -0.544   0.057   3.333  0.00  0.00    +0.007 A 
ATOM      3  C   UNL     1      -1.564   0.950   3.057  0.00  0.00    +0.008 A 
ATOM      4  C   UNL     1      -2.378   1.412   4.074  0.00  0.00    +0.001 A 
ATOM      5  C   UNL     1      -2.175   0.980   5.373  0.00  0.00    +0.004 A 
ATOM      6  C   UNL     1      -1.160   0.089   5.653  0.00  0.00    +0.046 A 
ATOM      7  C   UNL     1      -0.339  -0.377   4.633  0.00  0.00    +0.133 A 
ATOM      8  O   UNL     1       0.654  -1.252   4.926  0.00  0.00    -0.454 OA
ATOM      9  C   UNL     1       1.680  -1.415   4.069  0.00  0.00    +0.148 C 
ATOM     10  C   UNL     1       1.588  -1.046   2.768  0.00  0.00    +0.025 C 
ENDROOT
BRANCH   1  17
ATOM     11  C   UNL     1      -0.446   0.134  -0.511  0.00  0.00    +0.044 C 
ATOM     12  C   UNL     1      -0.787  -1.197   0.108  0.00  0.00    -0.046 A 
ATOM     13  C   UNL     1      -1.467  -2.148  -0.630  0.00  0.00    +0.003 A 
ATOM     14  C   UNL     1      -1.780  -3.369  -0.062  0.00  0.00    +0.000 A 
ATOM     15  C   UNL     1      -1.412  -3.639   1.243  0.00  0.00    +0.000 A 
ATOM     16  C   UNL     1      -0.731  -2.688   1.980  0.00  0.00    +0.005 A 
ATOM     17  C   UNL     1      -0.414  -1.469   1.411  0.00  0.00    -0.032 A 
ENDBRANCH   1  17
BRANCH   9  18
ATOM     18  C   UNL     1       2.929  -2.006   4.557  0.00  0.00    +0.055 A 
ATOM     19  C   UNL     1       3.117  -3.163   5.298  0.00  0.00    +0.019 A 
ATOM     20  C   UNL     1       4.422  -3.466   5.610  0.00  0.00    +0.008 A 
ATOM     21  C   UNL     1       5.409  -2.639   5.188  0.00  0.00    +0.046 A 
ATOM     22  S   UNL     1       4.603  -1.430   4.346  0.00  0.00    -0.094 S 
ENDBRANCH   9  18
BRANCH  10  23
ATOM     23  C   UNL     1       2.693  -1.242   1.920  0.00  0.00    +0.113 C 
ATOM     24  N   UNL     1       2.517  -1.345   0.632  0.00  0.00    -0.291 NA
BRANCH  24  25
ATOM     25  C   UNL     1       3.653  -1.655  -0.240  0.00  0.00    +0.146 C 
BRANCH  25  26
ATOM     26  C   UNL     1       3.437  -3.021  -0.894  0.00  0.00    +0.056 C 
BRANCH  26  27
ATOM     27  C   UNL     1       4.605  -3.339  -1.792  0.00  0.00    -0.040 C 
ATOM     28  C   UNL     1       5.697  -4.071  -1.476  0.00  0.00    -0.001 A 
ATOM     29  C   UNL     1       6.109  -4.764  -0.249  0.00  0.00    +0.010 A 
ATOM     30  C   UNL     1       7.286  -5.430  -0.235  0.00  0.00    +0.001 A 
ATOM     31  C   UNL     1       8.121  -5.475  -1.360  0.00  0.00    +0.002 A 
ATOM     32  C   UNL     1       7.811  -4.863  -2.523  0.00  0.00    +0.026 A 
ATOM     33  C   UNL     1       6.596  -4.134  -2.650  0.00  0.00    +0.043 A 
ATOM     34  N   UNL     1       6.080  -3.466  -3.653  0.00  0.00    -0.380 N 
ATOM     35  C   UNL     1       4.791  -2.909  -3.230  0.00  0.00    +0.144 C 
ATOM     36  H   UNL     1       6.482  -3.361  -4.530  0.00  0.00    +0.160 HD
ENDBRANCH  26  27
ENDBRANCH  25  26
ENDBRANCH  24  25
ENDBRANCH  10  23
TORSDOF 6
