REMARK  Name = ZINC02927322
REMARK  10 active torsions:
REMARK  status: ('A' for Active; 'I' for Inactive)
REMARK    1  A    between atoms: C_1  and  C_2
REMARK    2  A    between atoms: C_2  and  O_3
REMARK    3  A    between atoms: O_3  and  C_4
REMARK    4  A    between atoms: C_7  and  N_10
REMARK    5  A    between atoms: C_11  and  C_13
REMARK    6  A    between atoms: C_13  and  S_14
REMARK    7  A    between atoms: S_14  and  C_15
REMARK    8  A    between atoms: C_19  and  C_23
REMARK    9  A    between atoms: N_26  and  C_27
REMARK   10  A    between atoms: C_31  and  C_33
REMARK                            x       y       z     vdW  Elec       q    Type
REMARK                         _______ _______ _______ _____ _____    ______ ____
ROOT
ATOM      1  C   UNL     1      -4.603   2.492   2.243  0.00  0.00    +0.177 A 
ATOM      2  N   UNL     1      -3.579   2.575   3.057  0.00  0.00    -0.201 NA
ATOM      3  C   UNL     1      -2.333   2.248   2.680  0.00  0.00    +0.187 A 
ATOM      4  C   UNL     1      -2.100   1.797   1.374  0.00  0.00    +0.082 A 
ATOM      5  C   UNL     1      -0.725   1.524   1.263  0.00  0.00    +0.046 A 
ATOM      6  N   UNL     1      -0.158   1.800   2.406  0.00  0.00    -0.279 N 
ATOM      7  N   UNL     1      -1.128   2.248   3.312  0.00  0.00    -0.153 NA
ATOM      8  H   UNL     1       0.927   1.665   2.528  0.00  0.00    +0.189 HD
ATOM      9  C   UNL     1      -0.021   1.027   0.027  0.00  0.00    +0.066 C 
ATOM     10  C   UNL     1      -3.242   1.705   0.454  0.00  0.00    +0.124 A 
ATOM     11  N   UNL     1      -3.090   1.303  -0.784  0.00  0.00    -0.384 N 
ATOM     12  N   UNL     1      -4.487   2.059   0.950  0.00  0.00    -0.275 N 
ATOM     13  H   UNL     1      -3.960   1.243  -1.453  0.00  0.00    +0.157 HD
ATOM     14  H   UNL     1      -2.092   1.025  -1.153  0.00  0.00    +0.157 HD
ENDROOT
BRANCH  12  15
ATOM     15  C   UNL     1      -5.619   1.987   0.128  0.00  0.00    +0.051 A 
ATOM     16  C   UNL     1      -6.062   0.757  -0.339  0.00  0.00    +0.026 A 
ATOM     17  C   UNL     1      -7.181   0.689  -1.146  0.00  0.00    +0.002 A 
ATOM     18  C   UNL     1      -7.854   1.845  -1.497  0.00  0.00    +0.003 A 
ATOM     19  C   UNL     1      -7.412   3.072  -1.038  0.00  0.00    -0.048 A 
ATOM     20  C   UNL     1      -6.296   3.146  -0.226  0.00  0.00    +0.029 A 
ATOM     21  C   UNL     1      -8.147   4.330  -1.423  0.00  0.00    +0.044 C 
ENDBRANCH  12  15
BRANCH   1  22
ATOM     22  S   UNL     1      -6.195   2.953   2.840  0.00  0.00    -0.078 S 
BRANCH  22  23
ATOM     23  C   UNL     1      -5.771   3.424   4.536  0.00  0.00    +0.173 C 
BRANCH  23  25
ATOM     24  N   UNL     1      -6.941   4.265   6.546  0.00  0.00    -0.285 N 
ATOM     25  C   UNL     1      -7.016   3.866   5.261  0.00  0.00    +0.227 C 
ATOM     26  O   UNL     1      -8.085   3.864   4.687  0.00  0.00    -0.275 OA
ATOM     27  H   UNL     1      -5.987   4.196   7.089  0.00  0.00    +0.155 HD
BRANCH  24  31
ATOM     28  C   UNL     1     -10.328   5.761   8.465  0.00  0.00    +0.121 A 
ATOM     29  C   UNL     1     -10.453   4.742   7.531  0.00  0.00    +0.047 A 
ATOM     30  C   UNL     1      -9.332   4.247   6.896  0.00  0.00    +0.027 A 
ATOM     31  C   UNL     1      -8.079   4.768   7.190  0.00  0.00    +0.034 A 
ATOM     32  C   UNL     1      -7.954   5.784   8.128  0.00  0.00    +0.027 A 
ATOM     33  C   UNL     1      -9.077   6.282   8.760  0.00  0.00    +0.047 A 
BRANCH  28  34
ATOM     34  O   UNL     1     -11.432   6.248   9.091  0.00  0.00    -0.492 OA
BRANCH  34  36
ATOM     35  C   UNL     1     -12.576   7.711  10.637  0.00  0.00    +0.048 C 
ATOM     36  C   UNL     1     -11.230   7.296  10.041  0.00  0.00    +0.225 C 
ENDBRANCH  34  36
ENDBRANCH  28  34
ENDBRANCH  24  31
ENDBRANCH  23  25
ENDBRANCH  22  23
ENDBRANCH   1  22
TORSDOF 7
