REMARK  Name = ZINC02639159
REMARK  11 active torsions:
REMARK  status: ('A' for Active; 'I' for Inactive)
REMARK    1  A    between atoms: C_1  and  C_2
REMARK    2  A    between atoms: C_6  and  N_9
REMARK    3  A    between atoms: C_7  and  C_8
REMARK    4  A    between atoms: C_10  and  C_12
REMARK    5  A    between atoms: C_12  and  N_47
REMARK    6  A    between atoms: C_13  and  C_14
REMARK    7  A    between atoms: C_13  and  N_47
REMARK    8  A    between atoms: C_14  and  C_16
REMARK    9  A    between atoms: C_14  and  O_25
REMARK   10  A    between atoms: C_16  and  O_17
REMARK   11  A    between atoms: O_17  and  C_18
REMARK                            x       y       z     vdW  Elec       q    Type
REMARK                         _______ _______ _______ _____ _____    ______ ____
ROOT
ATOM      1  N   UNL     1      -1.416   6.119  -0.266  0.00  0.00    +0.386 N 
ATOM      2  H   UNL     1      -1.922   5.826   0.578  0.00  0.00    -0.085 HD
ATOM      3  H   UNL     1      -1.863   5.708  -1.094  0.00  0.00    -0.085 HD
ENDROOT
BRANCH   1   4
ATOM      4  C   UNL     1      -0.020   5.650  -0.184  0.00  0.00    +0.015 C 
BRANCH   4   6
ATOM      5  N   UNL     1       1.162   3.485   0.009  0.00  0.00    -0.287 N 
ATOM      6  C   UNL     1      -0.009   4.147  -0.078  0.00  0.00    +0.200 C 
ATOM      7  O   UNL     1      -1.055   3.532  -0.072  0.00  0.00    -0.278 OA
ATOM      8  H   UNL     1       1.993   3.979   0.085  0.00  0.00    +0.155 HD
BRANCH   5  14
ATOM      9  C   UNL     1       3.389  -0.737   1.187  0.00  0.00    +0.044 C 
ATOM     10  C   UNL     1       2.245   0.014   0.554  0.00  0.00    -0.046 A 
ATOM     11  C   UNL     1       1.211  -0.680  -0.045  0.00  0.00    +0.004 A 
ATOM     12  C   UNL     1       0.160   0.005  -0.627  0.00  0.00    +0.002 A 
ATOM     13  C   UNL     1       0.141   1.386  -0.611  0.00  0.00    +0.023 A 
ATOM     14  C   UNL     1       1.178   2.086  -0.009  0.00  0.00    +0.036 A 
ATOM     15  C   UNL     1       2.232   1.395   0.575  0.00  0.00    -0.026 A 
ATOM     16  C   UNL     1       3.359   2.151   1.229  0.00  0.00    +0.046 C 
ENDBRANCH   5  14
ENDBRANCH   4   6
ENDBRANCH   1   4
BRANCH   1  17
ATOM     17  C   UNL     1      -1.456   7.590  -0.371  0.00  0.00    -0.047 C 
BRANCH  17  18
ATOM     18  C   UNL     1      -2.914   8.047  -0.454  0.00  0.00    +0.135 C 
BRANCH  18  19
ATOM     19  O   UNL     1      -3.530   7.466  -1.605  0.00  0.00    -0.390 OA
ATOM     20  H   UNL     1      -3.108   7.707  -2.441  0.00  0.00    +0.210 HD
ENDBRANCH  18  19
BRANCH  18  21
ATOM     21  C   UNL     1      -2.966   9.572  -0.563  0.00  0.00    +0.258 C 
BRANCH  21  22
ATOM     22  O   UNL     1      -4.326  10.007  -0.523  0.00  0.00    -0.487 OA
BRANCH  22  23
ATOM     23  C   UNL     1      -4.549  11.345  -0.609  0.00  0.00    +0.156 A 
ATOM     24  C   UNL     1      -3.481  12.222  -0.724  0.00  0.00    +0.048 A 
ATOM     25  C   UNL     1      -3.710  13.581  -0.815  0.00  0.00    +0.004 A 
ATOM     26  C   UNL     1      -5.003  14.070  -0.783  0.00  0.00    +0.003 A 
ATOM     27  C   UNL     1      -6.071  13.200  -0.664  0.00  0.00    +0.042 A 
ATOM     28  C   UNL     1      -5.848  11.838  -0.577  0.00  0.00    +0.165 A 
ATOM     29  F   UNL     1      -6.891  10.988  -0.460  0.00  0.00    -0.202 F 
ENDBRANCH  22  23
ENDBRANCH  21  22
ENDBRANCH  18  21
ENDBRANCH  17  18
ENDBRANCH   1  17
TORSDOF 9
