REMARK  Name = ZINC44516281
REMARK  7 active torsions:
REMARK  status: ('A' for Active; 'I' for Inactive)
REMARK    1  A    between atoms: C_1  and  C_2
REMARK    2  A    between atoms: C_2  and  N_3
REMARK    3  A    between atoms: C_6  and  C_9
REMARK    4  A    between atoms: C_9  and  N_10
REMARK    5  A    between atoms: N_10  and  S_11
REMARK    6  A    between atoms: S_11  and  C_14
REMARK    7  A    between atoms: C_19  and  N_20
REMARK                            x       y       z     vdW  Elec       q    Type
REMARK                         _______ _______ _______ _____ _____    ______ ____
ROOT
ATOM      1  S   UNL     1      -6.428  -4.838  -0.271  0.00  0.00    +0.060 S 
ATOM      2  O   UNL     1      -6.242  -6.246  -0.221  0.00  0.00    -0.153 OA
ATOM      3  O   UNL     1      -6.723  -4.067   0.886  0.00  0.00    -0.153 OA
ENDROOT
BRANCH   1   4
ATOM      4  C   UNL     1      -7.733  -4.543  -1.418  0.00  0.00    +0.127 A 
ATOM      5  C   UNL     1      -8.788  -3.723  -1.069  0.00  0.00    +0.045 A 
ATOM      6  C   UNL     1      -9.812  -3.490  -1.970  0.00  0.00    +0.020 A 
ATOM      7  C   UNL     1      -9.783  -4.079  -3.222  0.00  0.00    +0.017 A 
ATOM      8  C   UNL     1      -8.731  -4.899  -3.576  0.00  0.00    +0.026 A 
ATOM      9  C   UNL     1      -7.698  -5.130  -2.676  0.00  0.00    +0.051 A 
ATOM     10 BR   UNL     1     -11.256  -2.368  -1.488  0.00  0.00    -0.050 Br
BRANCH   9  11
ATOM     11  N   UNL     1      -6.628  -5.955  -3.035  0.00  0.00    -0.356 N 
ATOM     12  H   UNL     1      -5.867  -6.046  -2.441  0.00  0.00    +0.142 HD
ATOM     13  H   UNL     1      -6.648  -6.436  -3.877  0.00  0.00    +0.142 HD
ENDBRANCH   9  11
ENDBRANCH   1   4
BRANCH   1  14
ATOM     14  N   UNL     1      -5.047  -4.201  -0.925  0.00  0.00    -0.190 NA
ATOM     15  H   UNL     1      -4.311  -4.784  -1.166  0.00  0.00    +0.148 HD
BRANCH  14  16
ATOM     16  C   UNL     1      -4.937  -2.756  -1.139  0.00  0.00    +0.109 C 
BRANCH  16  20
ATOM     17  N   UNL     1      -1.182  -0.777  -0.626  0.00  0.00    +0.380 N 
ATOM     18  C   UNL     1      -1.896  -0.516  -1.882  0.00  0.00    -0.079 C 
ATOM     19  C   UNL     1      -3.370  -0.897  -1.724  0.00  0.00    -0.014 C 
ATOM     20  C   UNL     1      -3.472  -2.385  -1.377  0.00  0.00    +0.001 C 
ATOM     21  C   UNL     1      -2.662  -2.659  -0.106  0.00  0.00    -0.014 C 
ATOM     22  C   UNL     1      -1.215  -2.213  -0.324  0.00  0.00    -0.079 C 
ATOM     23  H   UNL     1      -1.625  -0.266   0.123  0.00  0.00    -0.082 HD
BRANCH  17  25
ATOM     24  C   UNL     1       0.254   1.180  -0.949  0.00  0.00    -0.017 C 
ATOM     25  C   UNL     1       0.213  -0.337  -0.758  0.00  0.00    -0.082 C 
ENDBRANCH  17  25
ENDBRANCH  16  20
ENDBRANCH  14  16
ENDBRANCH   1  14
TORSDOF 6
