REMARK  Name = ZINC64058567
REMARK  8 active torsions:
REMARK  status: ('A' for Active; 'I' for Inactive)
REMARK    1  A    between atoms: C_1  and  O_2
REMARK    2  A    between atoms: O_2  and  C_3
REMARK    3  A    between atoms: C_7  and  C_9
REMARK    4  A    between atoms: C_9  and  C_10
REMARK    5  A    between atoms: C_10  and  C_16
REMARK    6  A    between atoms: C_16  and  C_17
REMARK    7  A    between atoms: C_17  and  C_18
REMARK    8  A    between atoms: C_25  and  C_27
REMARK                            x       y       z     vdW  Elec       q    Type
REMARK                         _______ _______ _______ _____ _____    ______ ____
ROOT
ATOM      1  C   UNL     1      -0.958  -8.078   1.079  0.00  0.00    +0.216 C 
ATOM      2  O   UNL     1      -1.885  -8.773   1.436  0.00  0.00    -0.276 OA
ATOM      3  N   UNL     1       0.219  -8.644   0.744  0.00  0.00    -0.295 N 
ATOM      4  C   UNL     1       1.388  -7.811   0.432  0.00  0.00    +0.108 C 
ATOM      5  C   UNL     1       2.560  -8.257   1.312  0.00  0.00    +0.019 C 
ATOM      6  C   UNL     1       2.790  -9.759   1.125  0.00  0.00    +0.003 C 
ATOM      7  C   UNL     1       1.540 -10.526   1.561  0.00  0.00    +0.026 C 
ATOM      8  C   UNL     1       0.358 -10.105   0.690  0.00  0.00    +0.118 C 
ENDROOT
BRANCH   8   9
ATOM      9  C   UNL     1      -0.921 -10.762   1.213  0.00  0.00    +0.195 C 
ATOM     10  N   UNL     1      -1.067 -10.506   2.652  0.00  0.00    -0.362 N 
ATOM     11  C   UNL     1      -1.070 -11.659   3.256  0.00  0.00    +0.060 A 
ATOM     12  C   UNL     1      -1.184 -12.045   4.670  0.00  0.00    +0.030 A 
ATOM     13  C   UNL     1      -1.155 -13.349   5.008  0.00  0.00    +0.040 A 
ATOM     14  C   UNL     1      -1.019 -14.377   4.053  0.00  0.00    +0.125 A 
ATOM     15  C   UNL     1      -0.907 -14.130   2.729  0.00  0.00    +0.065 A 
ATOM     16  C   UNL     1      -0.926 -12.745   2.247  0.00  0.00    +0.063 A 
ATOM     17  N   UNL     1      -0.840 -12.220   1.057  0.00  0.00    -0.362 N 
ATOM     18  F   UNL     1      -0.999 -15.659   4.479  0.00  0.00    -0.205 F 
ATOM     19  H   UNL     1      -1.146  -9.637   3.075  0.00  0.00    +0.162 HD
ATOM     20  H   UNL     1      -0.741 -12.703   0.221  0.00  0.00    +0.162 HD
ENDBRANCH   8   9
BRANCH   1  21
ATOM     21  C   UNL     1      -1.120  -6.581   1.010  0.00  0.00    +0.098 C 
BRANCH  21  22
ATOM     22  C   UNL     1      -2.539  -6.202   1.439  0.00  0.00    +0.035 C 
BRANCH  22  23
ATOM     23  C   UNL     1      -2.704  -4.683   1.369  0.00  0.00    +0.039 C 
ATOM     24  C   UNL     1      -4.075  -4.265   1.946  0.00  0.00    +0.035 C 
ATOM     25  C   UNL     1      -3.732  -2.923   2.633  0.00  0.00    +0.098 C 
ATOM     26  C   UNL     1      -2.254  -3.027   2.935  0.00  0.00    +0.214 C 
ATOM     27  O   UNL     1      -1.651  -2.317   3.711  0.00  0.00    -0.276 OA
ATOM     28  N   UNL     1      -1.705  -4.024   2.218  0.00  0.00    -0.309 N 
ATOM     29  H   UNL     1      -0.769  -4.274   2.257  0.00  0.00    +0.149 HD
BRANCH  23  30
ATOM     30  C   UNL     1      -2.570  -4.202  -0.077  0.00  0.00    +0.064 C 
BRANCH  30  35
ATOM     31  C   UNL     1      -1.960  -0.473  -0.033  0.00  0.00    +0.121 A 
ATOM     32  C   UNL     1      -3.240   0.018  -0.245  0.00  0.00    +0.048 A 
ATOM     33  C   UNL     1      -4.298  -0.857  -0.403  0.00  0.00    +0.042 A 
ATOM     34  C   UNL     1      -4.081  -2.223  -0.349  0.00  0.00    +0.127 A 
ATOM     35  C   UNL     1      -2.804  -2.715  -0.136  0.00  0.00    -0.007 A 
ATOM     36  C   UNL     1      -1.744  -1.842   0.015  0.00  0.00    +0.052 A 
ATOM     37  F   UNL     1      -5.116  -3.077  -0.503  0.00  0.00    -0.205 F 
BRANCH  31  39
ATOM     38  C   UNL     1      -1.215   1.783   0.061  0.00  0.00    +0.277 C 
ATOM     39  O   UNL     1      -0.919   0.386   0.122  0.00  0.00    -0.495 OA
ENDBRANCH  31  39
ENDBRANCH  30  35
ENDBRANCH  23  30
ENDBRANCH  22  23
ENDBRANCH  21  22
ENDBRANCH   1  21
TORSDOF 7
