REMARK  Name = ZINC40689255
REMARK  9 active torsions:
REMARK  status: ('A' for Active; 'I' for Inactive)
REMARK    1  A    between atoms: C_1  and  C_2
REMARK    2  A    between atoms: C_2  and  O_3
REMARK    3  A    between atoms: O_3  and  C_4
REMARK    4  A    between atoms: N_7  and  C_10
REMARK    5  A    between atoms: C_13  and  C_20
REMARK    6  A    between atoms: C_17  and  N_19
REMARK    7  A    between atoms: C_20  and  C_21
REMARK    8  A    between atoms: C_20  and  C_22
REMARK    9  A    between atoms: C_20  and  C_23
REMARK                            x       y       z     vdW  Elec       q    Type
REMARK                         _______ _______ _______ _____ _____    ______ ____
ROOT
ATOM      1  C   UNL     1       0.981  -5.983   3.034  0.00  0.00    -0.051 C 
ATOM      2  C   UNL     1       2.320  -6.326   3.691  0.00  0.00    -0.010 C 
ATOM      3  C   UNL     1       2.291  -7.776   4.179  0.00  0.00    -0.007 C 
ATOM      4  C   UNL     1       1.164  -7.947   5.200  0.00  0.00    +0.005 C 
ATOM      5  C   UNL     1      -0.175  -7.604   4.543  0.00  0.00    +0.017 C 
ATOM      6  C   UNL     1      -0.146  -6.154   4.054  0.00  0.00    +0.037 C 
ENDROOT
BRANCH   1  10
ATOM      7  C   UNL     1       2.311  -2.052   2.065  0.00  0.00    +0.115 C 
ATOM      8  C   UNL     1       1.970  -3.031   0.938  0.00  0.00    +0.013 C 
ATOM      9  C   UNL     1       1.994  -4.460   1.486  0.00  0.00    -0.076 C 
ATOM     10  N   UNL     1       1.009  -4.591   2.565  0.00  0.00    +0.383 N 
ATOM     11  C   UNL     1       1.370  -3.707   3.680  0.00  0.00    -0.076 C 
ATOM     12  C   UNL     1       1.321  -2.250   3.217  0.00  0.00    +0.013 C 
ATOM     13  H   UNL     1       0.096  -4.337   2.218  0.00  0.00    -0.081 HD
BRANCH   7  14
ATOM     14  O   UNL     1       2.217  -0.712   1.579  0.00  0.00    -0.377 OA
BRANCH  14  16
ATOM     15  C   UNL     1       3.222   1.232   0.554  0.00  0.00    +0.034 C 
ATOM     16  C   UNL     1       3.439  -0.202   1.041  0.00  0.00    +0.157 C 
ENDBRANCH  14  16
ENDBRANCH   7  14
ENDBRANCH   1  10
BRANCH   3  17
ATOM     17  C   UNL     1       3.630  -8.119   4.836  0.00  0.00    -0.035 C 
ATOM     18  C   UNL     1       3.870  -7.185   6.024  0.00  0.00    +0.011 C 
ATOM     19  C   UNL     1       3.601  -9.569   5.325  0.00  0.00    +0.011 C 
ATOM     20  C   UNL     1       4.757  -7.947   3.816  0.00  0.00    +0.011 C 
ENDBRANCH   3  17
BRANCH   6  21
ATOM     21  N   UNL     1      -1.431  -5.825   3.424  0.00  0.00    -0.329 NA
ATOM     22  H   UNL     1      -2.201  -6.032   4.043  0.00  0.00    +0.118 HD
ATOM     23  H   UNL     1      -1.453  -4.860   3.130  0.00  0.00    +0.118 HD
ENDBRANCH   6  21
TORSDOF 5
