REMARK  Name = ZINC39855995
REMARK  10 active torsions:
REMARK  status: ('A' for Active; 'I' for Inactive)
REMARK    1  A    between atoms: C_1  and  C_2
REMARK    2  A    between atoms: C_2  and  O_3
REMARK    3  A    between atoms: O_3  and  C_4
REMARK    4  A    between atoms: C_4  and  C_6
REMARK    5  A    between atoms: C_9  and  N_12
REMARK    6  A    between atoms: C_13  and  C_15
REMARK    7  A    between atoms: C_16  and  C_31
REMARK    8  A    between atoms: C_21  and  C_29
REMARK    9  A    between atoms: C_21  and  C_30
REMARK   10  A    between atoms: N_24  and  N_25
REMARK                            x       y       z     vdW  Elec       q    Type
REMARK                         _______ _______ _______ _____ _____    ______ ____
ROOT
ATOM      1  C   UNL     1       4.107  -5.841   7.193  0.00  0.00    +0.193 A 
ATOM      2  C   UNL     1       4.202  -7.169   7.507  0.00  0.00    +0.009 A 
ATOM      3  C   UNL     1       4.841  -7.232   8.751  0.00  0.00    +0.043 A 
ATOM      4  C   UNL     1       5.108  -5.942   9.144  0.00  0.00    +0.116 A 
ATOM      5  O   UNL     1       4.667  -5.122   8.193  0.00  0.00    -0.454 OA
ATOM      6  C   UNL     1       5.790  -5.606  10.446  0.00  0.00    +0.081 C 
ATOM      7  C   UNL     1       5.652  -6.786  11.412  0.00  0.00    -0.023 C 
ATOM      8  C   UNL     1       6.137  -8.082  10.755  0.00  0.00    +0.064 C 
ATOM      9  C   UNL     1       5.216  -8.396   9.585  0.00  0.00    +0.073 C 
ATOM     10  N   UNL     1       4.791  -9.596   9.336  0.00  0.00    -0.175 NA
ATOM     11  C   UNL     1       6.488  -6.512  12.664  0.00  0.00    +0.011 C 
ATOM     12  C   UNL     1       4.183  -6.941  11.811  0.00  0.00    +0.011 C 
ATOM     13  C   UNL     1       3.715  -8.331   6.680  0.00  0.00    +0.048 C 
ENDROOT
BRANCH  10  14
ATOM     14  N   UNL     1       5.179 -10.661  10.159  0.00  0.00    -0.248 N 
ATOM     15  C   UNL     1       4.730 -11.928   9.897  0.00  0.00    +0.187 C 
ATOM     16  N   UNL     1       5.099 -12.941  10.681  0.00  0.00    -0.370 N 
ATOM     17  N   UNL     1       3.924 -12.148   8.859  0.00  0.00    -0.370 N 
ATOM     18  H   UNL     1       5.765 -10.501  10.915  0.00  0.00    +0.192 HD
ATOM     19  H   UNL     1       4.781 -13.838  10.495  0.00  0.00    +0.159 HD
ATOM     20  H   UNL     1       3.656 -11.410   8.289  0.00  0.00    +0.159 HD
ATOM     21  H   UNL     1       3.607 -13.045   8.673  0.00  0.00    +0.159 HD
ATOM     22  H   UNL     1       5.685 -12.781  11.437  0.00  0.00    +0.159 HD
ENDBRANCH  10  14
BRANCH   1  24
ATOM     23  N   UNL     1       3.480  -3.957   5.779  0.00  0.00    -0.279 N 
ATOM     24  C   UNL     1       3.506  -5.290   5.974  0.00  0.00    +0.284 C 
ATOM     25  O   UNL     1       3.030  -6.036   5.139  0.00  0.00    -0.266 OA
ATOM     26  H   UNL     1       3.925  -3.366   6.407  0.00  0.00    +0.155 HD
BRANCH  23  30
ATOM     27  C   UNL     1       1.486  -2.373   2.484  0.00  0.00    +0.059 A 
ATOM     28  C   UNL     1       2.640  -1.751   2.970  0.00  0.00    +0.017 A 
ATOM     29  C   UNL     1       3.296  -2.277   4.060  0.00  0.00    +0.024 A 
ATOM     30  C   UNL     1       2.812  -3.427   4.677  0.00  0.00    +0.034 A 
ATOM     31  C   UNL     1       1.664  -4.048   4.196  0.00  0.00    +0.024 A 
ATOM     32  C   UNL     1       0.999  -3.524   3.111  0.00  0.00    +0.017 A 
BRANCH  27  33
ATOM     33  C   UNL     1       0.780  -1.813   1.317  0.00  0.00    +0.339 C 
ATOM     34  O   UNL     1      -0.225  -2.352   0.899  0.00  0.00    -0.245 OA
BRANCH  33  35
ATOM     35  O   UNL     1       1.251  -0.703   0.714  0.00  0.00    -0.461 OA
BRANCH  35  37
ATOM     36  C   UNL     1       1.198   1.041  -0.958  0.00  0.00    +0.048 C 
ATOM     37  C   UNL     1       0.517  -0.216  -0.411  0.00  0.00    +0.229 C 
ENDBRANCH  35  37
ENDBRANCH  33  35
ENDBRANCH  27  33
ENDBRANCH  23  30
ENDBRANCH   1  24
TORSDOF 6
