REMARK  Name = ZINC17396138
REMARK  12 active torsions:
REMARK  status: ('A' for Active; 'I' for Inactive)
REMARK    1  A    between atoms: C_1  and  C_2
REMARK    2  A    between atoms: C_6  and  C_8
REMARK    3  A    between atoms: N_14  and  C_15
REMARK    4  A    between atoms: C_15  and  C_16
REMARK    5  A    between atoms: C_16  and  C_17
REMARK    6  A    between atoms: N_19  and  N_20
REMARK    7  A    between atoms: C_21  and  C_23
REMARK    8  A    between atoms: C_23  and  C_24
REMARK    9  A    between atoms: C_24  and  C_25
REMARK   10  A    between atoms: C_25  and  O_26
REMARK   11  A    between atoms: O_26  and  C_27
REMARK   12  A    between atoms: C_32  and  C_33
REMARK                            x       y       z     vdW  Elec       q    Type
REMARK                         _______ _______ _______ _____ _____    ______ ____
ROOT
ATOM      1  C   UNL     1       4.982   8.747  -0.234  0.00  0.00    +0.231 C 
ATOM      2  O   UNL     1       6.144   8.501   0.009  0.00  0.00    -0.274 OA
ATOM      3  N   UNL     1       4.119   7.743  -0.486  0.00  0.00    -0.234 N 
ATOM      4  H   UNL     1       3.189   7.940  -0.680  0.00  0.00    +0.173 HD
ENDROOT
BRANCH   3   5
ATOM      5  N   UNL     1       4.565   6.415  -0.468  0.00  0.00    -0.234 N 
ATOM      6  C   UNL     1       3.702   5.411  -0.721  0.00  0.00    +0.229 C 
ATOM      7  O   UNL     1       2.539   5.657  -0.964  0.00  0.00    -0.274 OA
ATOM      8  H   UNL     1       5.495   6.218  -0.274  0.00  0.00    +0.173 HD
BRANCH   6   9
ATOM      9  C   UNL     1       4.182   3.983  -0.701  0.00  0.00    +0.100 C 
BRANCH   9  10
ATOM     10  C   UNL     1       3.012   3.048  -1.018  0.00  0.00    +0.050 C 
BRANCH  10  11
ATOM     11  C   UNL     1       3.499   1.597  -0.998  0.00  0.00    +0.229 C 
BRANCH  11  12
ATOM     12  O   UNL     1       2.407   0.724  -1.293  0.00  0.00    -0.492 OA
BRANCH  12  13
ATOM     13  C   UNL     1       2.672  -0.609  -1.316  0.00  0.00    +0.123 A 
ATOM     14  C   UNL     1       3.956  -1.067  -1.059  0.00  0.00    +0.047 A 
ATOM     15  C   UNL     1       4.223  -2.422  -1.082  0.00  0.00    +0.023 A 
ATOM     16  C   UNL     1       3.210  -3.322  -1.361  0.00  0.00    +0.041 A 
ATOM     17  C   UNL     1       1.929  -2.868  -1.618  0.00  0.00    +0.027 A 
ATOM     18  C   UNL     1       1.657  -1.514  -1.590  0.00  0.00    -0.007 A 
ATOM     19  C   UNL     1       0.260  -1.019  -1.863  0.00  0.00    +0.047 C 
ATOM     20 CL   UNL     1       3.548  -5.025  -1.389  0.00  0.00    -0.084 Cl
ENDBRANCH  12  13
ENDBRANCH  11  12
ENDBRANCH  10  11
ENDBRANCH   9  10
ENDBRANCH   6   9
ENDBRANCH   3   5
BRANCH   1  21
ATOM     21  C   UNL     1       4.502  10.176  -0.253  0.00  0.00    +0.119 C 
BRANCH  21  22
ATOM     22  C   UNL     1       5.671  11.111   0.063  0.00  0.00    +0.135 C 
BRANCH  22  29
ATOM     23  C   UNL     1       4.797  13.231   1.142  0.00  0.00    +0.163 A 
ATOM     24  N   UNL     1       4.454  14.423   0.742  0.00  0.00    -0.153 NA
ATOM     25  N   UNL     1       4.638  14.484  -0.646  0.00  0.00    -0.254 N 
ATOM     26  H   UNL     1       4.463  15.250  -1.215  0.00  0.00    +0.191 HD
ATOM     27  C   UNL     1       5.106  13.284  -1.047  0.00  0.00    +0.176 A 
ATOM     28  S   UNL     1       5.501  12.838  -2.652  0.00  0.00    -0.011 S 
ATOM     29  N   UNL     1       5.205  12.499   0.044  0.00  0.00    -0.303 N 
BRANCH  23  35
ATOM     30  C   UNL     1       4.710  14.170   6.043  0.00  0.00    +0.044 C 
ATOM     31  C   UNL     1       4.715  13.191   4.898  0.00  0.00    -0.050 A 
ATOM     32  C   UNL     1       4.681  11.831   5.152  0.00  0.00    +0.003 A 
ATOM     33  C   UNL     1       4.685  10.925   4.106  0.00  0.00    +0.001 A 
ATOM     34  C   UNL     1       4.716  11.374   2.802  0.00  0.00    +0.011 A 
ATOM     35  C   UNL     1       4.757  12.743   2.539  0.00  0.00    +0.019 A 
ATOM     36  C   UNL     1       4.753  13.651   3.598  0.00  0.00    +0.015 A 
ENDBRANCH  23  35
ENDBRANCH  22  29
ENDBRANCH  21  22
ENDBRANCH   1  21
TORSDOF 10
