REMARK  Name = ZINC44729457
REMARK  8 active torsions:
REMARK  status: ('A' for Active; 'I' for Inactive)
REMARK    1  A    between atoms: C_1  and  C_2
REMARK    2  A    between atoms: C_4  and  C_8
REMARK    3  A    between atoms: C_5  and  C_7
REMARK    4  A    between atoms: C_8  and  C_10
REMARK    5  A    between atoms: C_8  and  N_11
REMARK    6  A    between atoms: N_11  and  S_12
REMARK    7  A    between atoms: S_12  and  C_15
REMARK    8  A    between atoms: C_17  and  N_22
REMARK                            x       y       z     vdW  Elec       q    Type
REMARK                         _______ _______ _______ _____ _____    ______ ____
ROOT
ATOM      1  S   UNL     1      -3.667  -4.232   1.268  0.00  0.00    +0.060 S 
ATOM      2  O   UNL     1      -2.946  -4.721   2.391  0.00  0.00    -0.153 OA
ATOM      3  O   UNL     1      -4.944  -3.619   1.391  0.00  0.00    -0.153 OA
ENDROOT
BRANCH   1   4
ATOM      4  C   UNL     1      -3.865  -5.592   0.166  0.00  0.00    +0.125 A 
ATOM      5  C   UNL     1      -3.385  -6.839   0.515  0.00  0.00    +0.052 A 
ATOM      6  C   UNL     1      -3.541  -7.910  -0.355  0.00  0.00    +0.026 A 
ATOM      7  C   UNL     1      -4.181  -7.724  -1.574  0.00  0.00    +0.024 A 
ATOM      8  C   UNL     1      -4.660  -6.476  -1.918  0.00  0.00    +0.024 A 
ATOM      9  C   UNL     1      -4.507  -5.411  -1.047  0.00  0.00    +0.067 A 
ATOM     10 CL   UNL     1      -5.116  -3.843  -1.479  0.00  0.00    -0.082 Cl
BRANCH   6  11
ATOM     11  N   UNL     1      -3.055  -9.173  -0.004  0.00  0.00    -0.358 N 
ATOM     12  H   UNL     1      -2.608  -9.301   0.847  0.00  0.00    +0.142 HD
ATOM     13  H   UNL     1      -3.165  -9.920  -0.613  0.00  0.00    +0.142 HD
ENDBRANCH   6  11
ENDBRANCH   1   4
BRANCH   1  14
ATOM     14  N   UNL     1      -2.684  -3.131   0.517  0.00  0.00    -0.183 NA
ATOM     15  H   UNL     1      -3.032  -2.260   0.269  0.00  0.00    +0.149 HD
BRANCH  14  16
ATOM     16  C   UNL     1      -1.290  -3.473   0.227  0.00  0.00    +0.107 C 
ATOM     17  C   UNL     1      -1.177  -3.975  -1.214  0.00  0.00    +0.031 C 
BRANCH  16  21
ATOM     18  C   UNL     1       0.257   1.362   0.650  0.00  0.00    +0.086 C 
ATOM     19  C   UNL     1       0.233  -0.143   0.584  0.00  0.00    +0.103 A 
ATOM     20  C   UNL     1      -0.859  -0.905   0.395  0.00  0.00    +0.050 A 
ATOM     21  C   UNL     1      -0.426  -2.251   0.402  0.00  0.00    +0.012 A 
ATOM     22  C   UNL     1       0.905  -2.231   0.595  0.00  0.00    +0.107 A 
ATOM     23  O   UNL     1       1.300  -0.951   0.699  0.00  0.00    -0.465 OA
ATOM     24  C   UNL     1       1.802  -3.439   0.675  0.00  0.00    +0.086 C 
ENDBRANCH  16  21
ENDBRANCH  14  16
ENDBRANCH   1  14
TORSDOF 5
