REMARK  Name = ZINC39364803
REMARK  8 active torsions:
REMARK  status: ('A' for Active; 'I' for Inactive)
REMARK    1  A    between atoms: C_1  and  C_2
REMARK    2  A    between atoms: C_4  and  C_8
REMARK    3  A    between atoms: C_8  and  C_9
REMARK    4  A    between atoms: C_9  and  N_10
REMARK    5  A    between atoms: N_10  and  C_11
REMARK    6  A    between atoms: C_11  and  C_12
REMARK    7  A    between atoms: N_15  and  C_26
REMARK    8  A    between atoms: C_17  and  C_19
REMARK                            x       y       z     vdW  Elec       q    Type
REMARK                         _______ _______ _______ _____ _____    ______ ____
ROOT
ATOM      1  C   UNL     1      -1.289  -7.170  -3.595  0.00  0.00    +0.014 C 
ATOM      2  C   UNL     1      -2.833  -7.284  -3.592  0.00  0.00    +0.127 C 
ATOM      3  N   UNL     1      -3.124  -8.640  -3.100  0.00  0.00    -0.266 N 
ATOM      4  N   UNL     1      -1.955  -9.273  -2.763  0.00  0.00    -0.232 NA
ATOM      5  C   UNL     1      -0.876  -8.667  -3.586  0.00  0.00    +0.107 C 
ATOM      6  H   UNL     1      -2.021 -10.267  -2.929  0.00  0.00    +0.145 HD
ENDROOT
BRANCH   5   7
ATOM      7  C   UNL     1       0.470  -8.851  -2.933  0.00  0.00    -0.010 A 
ATOM      8  C   UNL     1       0.549  -9.285  -1.623  0.00  0.00    +0.006 A 
ATOM      9  C   UNL     1       1.783  -9.454  -1.024  0.00  0.00    +0.000 A 
ATOM     10  C   UNL     1       2.939  -9.189  -1.734  0.00  0.00    +0.001 A 
ATOM     11  C   UNL     1       2.861  -8.755  -3.044  0.00  0.00    +0.020 A 
ATOM     12  C   UNL     1       1.626  -8.591  -3.646  0.00  0.00    +0.046 A 
ATOM     13 CL   UNL     1       1.528  -8.053  -5.293  0.00  0.00    -0.083 Cl
ENDBRANCH   5   7
BRANCH   3  14
ATOM     14  C   UNL     1      -4.401  -9.199  -2.992  0.00  0.00    +0.045 A 
ATOM     15  C   UNL     1      -5.516  -8.463  -3.370  0.00  0.00    +0.027 A 
ATOM     16  C   UNL     1      -6.777  -9.017  -3.263  0.00  0.00    +0.040 A 
ATOM     17  C   UNL     1      -6.929 -10.306  -2.780  0.00  0.00    +0.124 A 
ATOM     18  C   UNL     1      -5.818 -11.042  -2.403  0.00  0.00    +0.040 A 
ATOM     19  C   UNL     1      -4.555 -10.493  -2.513  0.00  0.00    +0.027 A 
ATOM     20  F   UNL     1      -8.163 -10.846  -2.676  0.00  0.00    -0.205 F 
ENDBRANCH   3  14
BRANCH   1  21
ATOM     21  C   UNL     1      -0.788  -6.453  -2.339  0.00  0.00    -0.076 C 
BRANCH  21  22
ATOM     22  N   UNL     1      -1.164  -5.034  -2.402  0.00  0.00    +0.379 N 
ATOM     23  H   UNL     1      -2.168  -4.955  -2.457  0.00  0.00    -0.086 HD
ATOM     24  H   UNL     1      -0.749  -4.612  -3.219  0.00  0.00    -0.086 HD
BRANCH  22  25
ATOM     25  C   UNL     1      -0.683  -4.346  -1.197  0.00  0.00    -0.079 C 
BRANCH  25  26
ATOM     26  C   UNL     1      -1.075  -2.869  -1.262  0.00  0.00    +0.031 C 
BRANCH  26  30
ATOM     27  C   UNL     1      -0.018   1.503   0.010  0.00  0.00    +0.067 C 
ATOM     28  C   UNL     1       0.002  -0.004   0.002  0.00  0.00    +0.053 C 
ATOM     29  N   UNL     1      -1.044  -0.760   0.003  0.00  0.00    -0.261 NA
ATOM     30  C   UNL     1      -0.574  -2.152  -0.007  0.00  0.00    +0.219 C 
ATOM     31  N   UNL     1       0.893  -2.083  -0.013  0.00  0.00    -0.264 NA
ATOM     32  C   UNL     1       1.217  -0.834  -0.015  0.00  0.00    +0.130 C 
ENDBRANCH  26  30
ENDBRANCH  25  26
ENDBRANCH  22  25
ENDBRANCH  21  22
ENDBRANCH   1  21
TORSDOF 7
