REMARK  Name = ZINC66683561
REMARK  12 active torsions:
REMARK  status: ('A' for Active; 'I' for Inactive)
REMARK    1  A    between atoms: C_1  and  C_2
REMARK    2  A    between atoms: C_4  and  N_14
REMARK    3  A    between atoms: C_7  and  C_8
REMARK    4  A    between atoms: N_10  and  C_11
REMARK    5  A    between atoms: C_11  and  C_12
REMARK    6  A    between atoms: C_11  and  C_13
REMARK    7  A    between atoms: N_17  and  C_18
REMARK    8  A    between atoms: C_18  and  C_19
REMARK    9  A    between atoms: C_19  and  C_21
REMARK   10  A    between atoms: C_19  and  N_24
REMARK   11  A    between atoms: C_21  and  C_22
REMARK   12  A    between atoms: C_21  and  C_23
REMARK                            x       y       z     vdW  Elec       q    Type
REMARK                         _______ _______ _______ _____ _____    ______ ____
ROOT
ATOM      1  N   UNL     1      -0.252  -2.596  -3.053  0.00  0.00    -0.269 N 
ATOM      2  C   UNL     1      -0.200  -3.921  -2.813  0.00  0.00    +0.304 C 
ATOM      3  O   UNL     1      -0.311  -4.338  -1.676  0.00  0.00    -0.253 OA
ATOM      4  N   UNL     1      -0.024  -4.784  -3.833  0.00  0.00    -0.301 N 
ATOM      5  H   UNL     1      -0.093  -2.259  -3.949  0.00  0.00    +0.156 HD
ATOM      6  H   UNL     1       0.064  -4.452  -4.740  0.00  0.00    +0.150 HD
ENDROOT
BRANCH   1  10
ATOM      7  C   UNL     1      -2.436  -1.708   1.254  0.00  0.00    +0.044 C 
ATOM      8  C   UNL     1      -1.593  -1.255   0.089  0.00  0.00    -0.037 A 
ATOM      9  C   UNL     1      -1.312  -2.128  -0.939  0.00  0.00    +0.027 A 
ATOM     10  C   UNL     1      -0.535  -1.710  -2.014  0.00  0.00    +0.035 A 
ATOM     11  C   UNL     1      -0.040  -0.410  -2.056  0.00  0.00    +0.024 A 
ATOM     12  C   UNL     1      -0.317   0.467  -1.032  0.00  0.00    +0.015 A 
ATOM     13  C   UNL     1      -1.102   0.052   0.048  0.00  0.00    +0.040 A 
BRANCH  13  14
ATOM     14  C   UNL     1      -1.406   0.991   1.145  0.00  0.00    +0.245 C 
ATOM     15  O   UNL     1      -2.026   0.609   2.119  0.00  0.00    -0.270 OA
ATOM     16  N   UNL     1      -0.996   2.273   1.068  0.00  0.00    -0.309 N 
ATOM     17  H   UNL     1      -0.501   2.578   0.291  0.00  0.00    +0.149 HD
BRANCH  16  18
ATOM     18  C   UNL     1      -1.298   3.205   2.157  0.00  0.00    +0.067 C 
ATOM     19  C   UNL     1      -0.228   3.083   3.244  0.00  0.00    +0.027 C 
ATOM     20  C   UNL     1      -1.312   4.636   1.614  0.00  0.00    +0.027 C 
ENDBRANCH  16  18
ENDBRANCH  13  14
ENDBRANCH   1  10
BRANCH   4  21
ATOM     21  C   UNL     1       0.033  -6.225  -3.572  0.00  0.00    +0.091 C 
BRANCH  21  22
ATOM     22  C   UNL     1       0.363  -6.965  -4.870  0.00  0.00    -0.048 C 
BRANCH  22  23
ATOM     23  N   UNL     1       1.639  -6.470  -5.405  0.00  0.00    +0.383 N 
ATOM     24  C   UNL     1       2.774  -7.168  -4.750  0.00  0.00    -0.078 C 
ATOM     25  C   UNL     1       3.934  -6.983  -5.760  0.00  0.00    -0.020 C 
ATOM     26  C   UNL     1       3.225  -7.111  -7.128  0.00  0.00    -0.020 C 
ATOM     27  C   UNL     1       1.746  -6.791  -6.845  0.00  0.00    -0.078 C 
ATOM     28  H   UNL     1       1.712  -5.474  -5.264  0.00  0.00    -0.081 HD
ENDBRANCH  22  23
BRANCH  22  29
ATOM     29  C   UNL     1       0.476  -8.465  -4.587  0.00  0.00    -0.029 C 
ATOM     30  C   UNL     1      -0.855  -8.982  -4.037  0.00  0.00    +0.005 C 
ATOM     31  C   UNL     1       0.816  -9.204  -5.882  0.00  0.00    +0.005 C 
ENDBRANCH  22  29
ENDBRANCH  21  22
ENDBRANCH   4  21
TORSDOF 7
