REMARK  Name = ZINC02130448
REMARK  6 active torsions:
REMARK  status: ('A' for Active; 'I' for Inactive)
REMARK    1  A    between atoms: C_1  and  O_2
REMARK    2  A    between atoms: O_2  and  C_3
REMARK    3  A    between atoms: C_13  and  C_17
REMARK    4  A    between atoms: C_18  and  O_37
REMARK    5  A    between atoms: N_19  and  C_31
REMARK    6  A    between atoms: N_22  and  C_25
REMARK                            x       y       z     vdW  Elec       q    Type
REMARK                         _______ _______ _______ _____ _____    ______ ____
ROOT
ATOM      1  C   UNL     1       3.394   5.824   0.562  0.00  0.00    +0.069 A 
ATOM      2  C   UNL     1       4.575   5.152   0.675  0.00  0.00    +0.208 A 
ATOM      3  N   UNL     1       4.703   3.910   0.100  0.00  0.00    -0.232 N 
ATOM      4  C   UNL     1       3.674   3.360  -0.569  0.00  0.00    +0.344 A 
ATOM      5  O   UNL     1       3.806   2.260  -1.071  0.00  0.00    -0.245 OA
ATOM      6  N   UNL     1       2.501   4.007  -0.690  0.00  0.00    -0.228 N 
ATOM      7  C   UNL     1       2.334   5.229  -0.146  0.00  0.00    +0.267 A 
ATOM      8  O   UNL     1       1.271   5.813  -0.263  0.00  0.00    -0.267 OA
ENDROOT
BRANCH   1  19
ATOM      9  C   UNL     1       1.830  11.591  -2.731  0.00  0.00    +0.121 A 
ATOM     10  C   UNL     1       2.846  11.013  -3.483  0.00  0.00    +0.047 A 
ATOM     11  C   UNL     1       3.552   9.908  -3.042  0.00  0.00    +0.030 A 
ATOM     12  C   UNL     1       3.204   9.386  -1.798  0.00  0.00    +0.047 A 
ATOM     13  C   UNL     1       2.168   9.975  -1.027  0.00  0.00    +0.006 A 
ATOM     14  C   UNL     1       1.465  11.092  -1.490  0.00  0.00    +0.056 A 
ATOM     15  C   UNL     1       2.080   9.192   0.185  0.00  0.00    -0.022 A 
ATOM     16  C   UNL     1       3.013   8.216   0.100  0.00  0.00    +0.011 A 
ATOM     17  N   UNL     1       3.691   8.326  -1.084  0.00  0.00    -0.359 N 
ATOM     18  H   UNL     1       4.408   7.740  -1.373  0.00  0.00    +0.166 HD
ATOM     19  C   UNL     1       3.228   7.186   1.184  0.00  0.00    +0.018 C 
ATOM     20  C   UNL     1       1.730   8.543   2.533  0.00  0.00    -0.076 C 
ATOM     21  C   UNL     1       1.159   9.361   1.367  0.00  0.00    +0.018 C 
ATOM     22  N   UNL     1       2.047   7.174   2.075  0.00  0.00    +0.388 N 
ATOM     23  H   UNL     1       2.245   6.582   2.890  0.00  0.00    -0.084 HD
ATOM     24  H   UNL     1       1.242   6.794   1.564  0.00  0.00    -0.084 HD
BRANCH   9  26
ATOM     25  C   UNL     1       1.589  13.153  -4.508  0.00  0.00    +0.277 C 
ATOM     26  O   UNL     1       1.177  12.676  -3.226  0.00  0.00    -0.495 OA
ENDBRANCH   9  26
ENDBRANCH   1  19
BRANCH   6  27
ATOM     27  C   UNL     1       1.446   3.410  -1.392  0.00  0.00    +0.054 A 
ATOM     28  C   UNL     1       0.569   2.556  -0.737  0.00  0.00    +0.026 A 
ATOM     29  C   UNL     1      -0.469   1.968  -1.432  0.00  0.00    +0.002 A 
ATOM     30  C   UNL     1      -0.633   2.224  -2.781  0.00  0.00    +0.000 A 
ATOM     31  C   UNL     1       0.235   3.079  -3.435  0.00  0.00    +0.002 A 
ATOM     32  C   UNL     1       1.275   3.670  -2.746  0.00  0.00    +0.026 A 
ENDBRANCH   6  27
BRANCH   3  33
ATOM     33  C   UNL     1       5.914   3.214   0.211  0.00  0.00    +0.054 A 
ATOM     34  C   UNL     1       6.125   2.351   1.278  0.00  0.00    +0.026 A 
ATOM     35  C   UNL     1       7.317   1.662   1.382  0.00  0.00    +0.002 A 
ATOM     36  C   UNL     1       8.305   1.839   0.431  0.00  0.00    +0.000 A 
ATOM     37  C   UNL     1       8.100   2.702  -0.630  0.00  0.00    +0.002 A 
ATOM     38  C   UNL     1       6.908   3.390  -0.742  0.00  0.00    +0.026 A 
ENDBRANCH   3  33
BRANCH   2  39
ATOM     39  O   UNL     1       5.610   5.702   1.345  0.00  0.00    -0.493 OA
ATOM     40  H   UNL     1       6.425   5.184   1.303  0.00  0.00    +0.294 HD
ENDBRANCH   2  39
TORSDOF 5
