REMARK  Name = ZINC32850950
REMARK  6 active torsions:
REMARK  status: ('A' for Active; 'I' for Inactive)
REMARK    1  A    between atoms: C_1  and  N_2
REMARK    2  A    between atoms: N_2  and  C_3
REMARK    3  A    between atoms: N_2  and  C_18
REMARK    4  A    between atoms: C_3  and  C_4
REMARK    5  A    between atoms: C_18  and  C_19
REMARK    6  A    between atoms: N_21  and  C_22
REMARK                            x       y       z     vdW  Elec       q    Type
REMARK                         _______ _______ _______ _____ _____    ______ ____
ROOT
ATOM      1  C   UNL     1     -10.267  -0.235  -0.937  0.00  0.00    -0.001 C 
ENDROOT
BRANCH   1   2
ATOM      2  C   UNL     1      -9.597  -0.625  -2.230  0.00  0.00    +0.116 A 
ATOM      3  N   UNL     1     -10.310  -1.258  -3.139  0.00  0.00    -0.219 NA
ATOM      4  C   UNL     1      -9.832  -1.653  -4.317  0.00  0.00    +0.128 A 
ATOM      5  C   UNL     1      -8.462  -1.352  -4.564  0.00  0.00    +0.051 A 
ATOM      6  C   UNL     1      -7.694  -1.667  -5.758  0.00  0.00    -0.025 A 
ATOM      7  C   UNL     1      -6.399  -1.280  -5.766  0.00  0.00    -0.004 A 
ATOM      8  S   UNL     1      -6.139  -0.483  -4.201  0.00  0.00    -0.073 S 
ATOM      9  C   UNL     1      -7.762  -0.669  -3.537  0.00  0.00    +0.114 A 
ATOM     10  N   UNL     1      -8.317  -0.313  -2.396  0.00  0.00    -0.227 NA
ATOM     11  C   UNL     1      -5.394  -1.483  -6.863  0.00  0.00    +0.043 C 
ATOM     12  C   UNL     1      -5.952  -2.527  -7.840  0.00  0.00    +0.005 C 
ATOM     13  C   UNL     1      -7.401  -2.163  -8.177  0.00  0.00    +0.005 C 
ATOM     14  C   UNL     1      -8.292  -2.399  -6.957  0.00  0.00    +0.037 C 
ATOM     15  N   UNL     1     -10.617  -2.315  -5.244  0.00  0.00    -0.343 N 
ATOM     16  H   UNL     1     -10.187  -2.627  -6.207  0.00  0.00    +0.144 HD
ATOM     17  H   UNL     1     -11.672  -2.530  -5.018  0.00  0.00    +0.144 HD
ENDBRANCH   1   2
BRANCH   1  19
ATOM     18  C   UNL     1     -11.950   1.103  -2.050  0.00  0.00    -0.095 C 
ATOM     19  N   UNL     1     -10.852   1.105  -1.073  0.00  0.00    +0.388 N 
ATOM     20  H   UNL     1     -10.068   1.780  -1.447  0.00  0.00    -0.081 HD
BRANCH  19  21
ATOM     21  C   UNL     1     -11.305   1.616   0.227  0.00  0.00    +0.019 C 
BRANCH  21  22
ATOM     22  C   UNL     1     -11.669   3.073   0.095  0.00  0.00    +0.201 C 
ATOM     23  O   UNL     1     -11.562   3.630  -0.977  0.00  0.00    -0.278 OA
ATOM     24  N   UNL     1     -12.114   3.756   1.169  0.00  0.00    -0.285 N 
ATOM     25  H   UNL     1     -12.143   3.271   2.156  0.00  0.00    +0.155 HD
BRANCH  24  26
ATOM     26  C   UNL     1     -12.539   5.083   1.027  0.00  0.00    +0.070 A 
ATOM     27  C   UNL     1     -11.614   6.086   0.768  0.00  0.00    +0.064 A 
ATOM     28  C   UNL     1     -12.038   7.394   0.625  0.00  0.00    +0.022 A 
ATOM     29  C   UNL     1     -13.380   7.705   0.748  0.00  0.00    +0.003 A 
ATOM     30  C   UNL     1     -14.302   6.710   1.010  0.00  0.00    +0.022 A 
ATOM     31  C   UNL     1     -13.886   5.399   1.150  0.00  0.00    +0.064 A 
ATOM     32 CL   UNL     1     -15.046   4.150   1.481  0.00  0.00    -0.082 Cl
ATOM     33 CL   UNL     1      -9.929   5.698   0.619  0.00  0.00    -0.082 Cl
ENDBRANCH  24  26
ENDBRANCH  21  22
ENDBRANCH  19  21
ENDBRANCH   1  19
TORSDOF 5
