REMARK  Name = ZINC65433893
REMARK  4 active torsions:
REMARK  status: ('A' for Active; 'I' for Inactive)
REMARK    1  A    between atoms: C_7  and  C_11
REMARK    2  A    between atoms: C_11  and  N_12
REMARK    3  A    between atoms: C_13  and  C_15
REMARK    4  A    between atoms: N_22  and  C_24
REMARK                            x       y       z     vdW  Elec       q    Type
REMARK                         _______ _______ _______ _____ _____    ______ ____
ROOT
ATOM      1  N   UNL     1       2.821  -1.916   3.963  0.00  0.00    -0.308 N 
ATOM      2  C   UNL     1       2.577  -2.654   5.065  0.00  0.00    +0.219 C 
ATOM      3  O   UNL     1       2.248  -3.816   4.956  0.00  0.00    -0.275 OA
ATOM      4  H   UNL     1       3.085  -0.987   4.051  0.00  0.00    +0.149 HD
ENDROOT
BRANCH   2   5
ATOM      5  C   UNL     1       2.714  -2.034   6.432  0.00  0.00    +0.047 C 
ATOM      6  C   UNL     1       1.733  -0.863   6.646  0.00  0.00    +0.095 C 
ATOM      7  N   UNL     1       0.600  -1.453   7.403  0.00  0.00    -0.315 NA
ATOM      8  C   UNL     1       1.248  -2.376   8.370  0.00  0.00    +0.083 C 
ATOM      9  C   UNL     1       2.393  -3.037   7.573  0.00  0.00    +0.001 C 
ATOM     10  C   UNL     1       3.667  -3.068   8.442  0.00  0.00    -0.073 C 
ATOM     11  N   UNL     1       4.758  -2.643   7.528  0.00  0.00    +0.383 N 
ATOM     12  C   UNL     1       4.152  -1.555   6.719  0.00  0.00    -0.061 C 
ATOM     13  H   UNL     1       0.073  -0.738   7.883  0.00  0.00    +0.122 HD
ATOM     14  H   UNL     1       5.039  -3.409   6.934  0.00  0.00    -0.081 HD
BRANCH  11  15
ATOM     15  C   UNL     1       5.903  -2.137   8.295  0.00  0.00    -0.069 C 
ATOM     16  C   UNL     1       7.043  -1.732   7.338  0.00  0.00    -0.015 C 
ATOM     17  C   UNL     1       8.334  -2.146   8.087  0.00  0.00    -0.002 C 
ATOM     18  C   UNL     1       7.925  -3.478   8.762  0.00  0.00    -0.002 C 
ATOM     19  C   UNL     1       6.464  -3.247   9.201  0.00  0.00    -0.015 C 
ENDBRANCH  11  15
ENDBRANCH   2   5
BRANCH   1  20
ATOM     20  C   UNL     1       2.689  -2.518   2.635  0.00  0.00    +0.180 C 
BRANCH  20  27
ATOM     21  C   UNL     1      -0.019   1.524   0.010  0.00  0.00    +0.002 C 
ATOM     22  C   UNL     1       1.403   2.078  -0.000  0.00  0.00    +0.008 C 
ATOM     23  C   UNL     1       2.311   1.146  -0.809  0.00  0.00    +0.076 C 
ATOM     24  C   UNL     1       2.864   0.083   0.104  0.00  0.00    +0.133 A 
ATOM     25  N   UNL     1       4.102  -0.311   0.193  0.00  0.00    -0.134 NA
ATOM     26  N   UNL     1       4.193  -1.250   1.070  0.00  0.00    -0.133 NA
ATOM     27  C   UNL     1       3.015  -1.490   1.582  0.00  0.00    +0.151 A 
ATOM     28  N   UNL     1       2.144  -0.643   0.991  0.00  0.00    -0.314 N 
ATOM     29  C   UNL     1       0.711  -0.518   1.258  0.00  0.00    +0.125 C 
ATOM     30  C   UNL     1       0.002  -0.004   0.002  0.00  0.00    +0.022 C 
ENDBRANCH  20  27
ENDBRANCH   1  20
TORSDOF 4
