REMARK  Name = ZINC12293280
REMARK  8 active torsions:
REMARK  status: ('A' for Active; 'I' for Inactive)
REMARK    1  A    between atoms: C_1  and  C_2
REMARK    2  A    between atoms: C_2  and  N_3
REMARK    3  A    between atoms: C_5  and  C_12
REMARK    4  A    between atoms: C_12  and  C_14
REMARK    5  A    between atoms: C_12  and  O_32
REMARK    6  A    between atoms: C_14  and  N_61
REMARK    7  A    between atoms: C_21  and  O_31
REMARK    8  A    between atoms: C_25  and  O_30
REMARK                            x       y       z     vdW  Elec       q    Type
REMARK                         _______ _______ _______ _____ _____    ______ ____
ROOT
ATOM      1  C   UNL     1      -7.571   2.694  -1.092  0.00  0.00    -0.075 C 
ATOM      2  C   UNL     1      -9.012   3.049  -1.467  0.00  0.00    +0.029 C 
ATOM      3  C   UNL     1      -9.266   2.662  -2.924  0.00  0.00    +0.110 C 
ATOM      4  C   UNL     1      -8.984   1.170  -3.111  0.00  0.00    +0.029 C 
ATOM      5  C   UNL     1      -7.543   0.871  -2.689  0.00  0.00    -0.075 C 
ATOM      6  C   UNL     1     -10.725   2.957  -3.287  0.00  0.00    +0.084 C 
ATOM      7  C   UNL     1     -10.978   2.457  -4.712  0.00  0.00    +0.152 C 
ATOM      8  C   UNL     1      -9.874   2.933  -5.622  0.00  0.00    +0.026 A 
ATOM      9  C   UNL     1     -10.086   2.911  -6.991  0.00  0.00    +0.055 A 
ATOM     10  C   UNL     1      -9.090   3.330  -7.859  0.00  0.00    +0.117 A 
ATOM     11  C   UNL     1      -7.876   3.773  -7.354  0.00  0.00    +0.049 A 
ATOM     12  C   UNL     1      -7.665   3.797  -5.991  0.00  0.00    +0.049 A 
ATOM     13  C   UNL     1      -8.665   3.379  -5.119  0.00  0.00    +0.127 A 
ATOM     14  O   UNL     1      -8.419   3.424  -3.783  0.00  0.00    -0.485 OA
ATOM     15  N   UNL     1      -7.375   1.239  -1.267  0.00  0.00    +0.382 N 
ATOM     16  H   UNL     1      -8.076   0.739  -0.708  0.00  0.00    -0.082 HD
ENDROOT
BRANCH  10  17
ATOM     17  O   UNL     1      -9.303   3.306  -9.201  0.00  0.00    -0.507 OA
ATOM     18  H   UNL     1      -9.680   4.124  -9.555  0.00  0.00    +0.292 HD
ENDBRANCH  10  17
BRANCH   7  19
ATOM     19  O   UNL     1     -12.230   2.963  -5.177  0.00  0.00    -0.387 OA
ATOM     20  H   UNL     1     -12.459   2.684  -6.074  0.00  0.00    +0.210 HD
ENDBRANCH   7  19
BRANCH  15  21
ATOM     21  C   UNL     1      -6.026   0.853  -0.802  0.00  0.00    -0.042 C 
BRANCH  21  22
ATOM     22  C   UNL     1      -5.933  -0.674  -0.776  0.00  0.00    +0.130 C 
BRANCH  22  25
ATOM     23  N   UNL     1      -2.934  -1.725   1.084  0.00  0.00    -0.347 N 
ATOM     24  C   UNL     1      -4.261  -1.402   1.000  0.00  0.00    +0.093 A 
ATOM     25  C   UNL     1      -4.576  -1.086  -0.266  0.00  0.00    +0.004 A 
ATOM     26  C   UNL     1      -3.351  -1.218  -1.058  0.00  0.00    +0.005 A 
ATOM     27  C   UNL     1      -2.347  -1.617  -0.157  0.00  0.00    +0.049 A 
ATOM     28  C   UNL     1      -1.053  -1.819  -0.625  0.00  0.00    +0.026 A 
ATOM     29  C   UNL     1      -0.769  -1.625  -1.959  0.00  0.00    +0.002 A 
ATOM     30  C   UNL     1      -1.762  -1.228  -2.843  0.00  0.00    +0.001 A 
ATOM     31  C   UNL     1      -3.042  -1.031  -2.407  0.00  0.00    +0.010 A 
BRANCH  23  33
ATOM     32  C   UNL     1      -1.574  -0.895   2.939  0.00  0.00    +0.027 C 
ATOM     33  C   UNL     1      -2.240  -2.121   2.312  0.00  0.00    +0.118 C 
ENDBRANCH  23  33
ENDBRANCH  22  25
BRANCH  22  34
ATOM     34  O   UNL     1      -6.945  -1.199   0.085  0.00  0.00    -0.389 OA
ATOM     35  H   UNL     1      -6.880  -0.894   1.000  0.00  0.00    +0.210 HD
ENDBRANCH  22  34
ENDBRANCH  21  22
ENDBRANCH  15  21
TORSDOF 7
