REMARK  Name = ZINC09674060
REMARK  11 active torsions:
REMARK  status: ('A' for Active; 'I' for Inactive)
REMARK    1  A    between atoms: C_1  and  C_2
REMARK    2  A    between atoms: C_2  and  N_75
REMARK    3  A    between atoms: C_3  and  C_4
REMARK    4  A    between atoms: C_3  and  N_75
REMARK    5  A    between atoms: C_4  and  C_5
REMARK    6  A    between atoms: C_5  and  N_6
REMARK    7  A    between atoms: C_7  and  C_9
REMARK    8  A    between atoms: N_11  and  C_24
REMARK    9  A    between atoms: N_22  and  C_23
REMARK   10  A    between atoms: C_30  and  C_31
REMARK   11  A    between atoms: C_30  and  N_75
REMARK                            x       y       z     vdW  Elec       q    Type
REMARK                         _______ _______ _______ _____ _____    ______ ____
ROOT
ATOM      1  C   UNL     1       1.428  -0.945   0.979  0.00  0.00    +0.063 A 
ATOM      2  C   UNL     1       2.691  -1.398   1.244  0.00  0.00    +0.103 A 
ATOM      3  N   UNL     1       2.910  -2.696   1.560  0.00  0.00    -0.310 N 
ATOM      4  C   UNL     1       1.916  -3.597   1.631  0.00  0.00    +0.276 A 
ATOM      5  O   UNL     1       2.171  -4.754   1.920  0.00  0.00    -0.265 OA
ATOM      6  C   UNL     1       0.579  -3.221   1.373  0.00  0.00    +0.116 A 
ATOM      7  C   UNL     1       0.311  -1.894   1.050  0.00  0.00    +0.026 A 
ATOM      8  C   UNL     1      -1.134  -1.793   0.834  0.00  0.00    +0.009 A 
ATOM      9  C   UNL     1      -1.990  -0.744   0.491  0.00  0.00    +0.010 A 
ATOM     10  C   UNL     1      -3.331  -0.972   0.366  0.00  0.00    +0.001 A 
ATOM     11  C   UNL     1      -3.853  -2.240   0.580  0.00  0.00    +0.002 A 
ATOM     12  C   UNL     1      -3.029  -3.289   0.920  0.00  0.00    +0.026 A 
ATOM     13  C   UNL     1      -1.658  -3.081   1.052  0.00  0.00    +0.050 A 
ATOM     14  N   UNL     1      -0.614  -3.921   1.374  0.00  0.00    -0.339 N 
ATOM     15  C   UNL     1      -0.748  -5.349   1.672  0.00  0.00    +0.149 C 
ENDROOT
BRANCH   3  16
ATOM     16  C   UNL     1       4.280  -3.133   1.836  0.00  0.00    +0.090 C 
ATOM     17  C   UNL     1       4.838  -2.346   3.024  0.00  0.00    +0.025 C 
ATOM     18  C   UNL     1       6.269  -2.804   3.312  0.00  0.00    +0.002 C 
ATOM     19  C   UNL     1       7.142  -2.554   2.081  0.00  0.00    +0.000 C 
ATOM     20  C   UNL     1       6.585  -3.341   0.893  0.00  0.00    +0.002 C 
ATOM     21  C   UNL     1       5.153  -2.884   0.605  0.00  0.00    +0.025 C 
ENDBRANCH   3  16
BRANCH   1  23
ATOM     22  N   UNL     1       2.207   1.353   0.695  0.00  0.00    -0.311 N 
ATOM     23  C   UNL     1       1.193   0.468   0.636  0.00  0.00    +0.246 C 
ATOM     24  O   UNL     1       0.083   0.836   0.304  0.00  0.00    -0.270 OA
ATOM     25  H   UNL     1       3.106   1.048   0.894  0.00  0.00    +0.149 HD
BRANCH  22  26
ATOM     26  C   UNL     1       1.952   2.776   0.458  0.00  0.00    +0.102 C 
BRANCH  26  27
ATOM     27  C   UNL     1       3.262   3.557   0.583  0.00  0.00    +0.000 C 
BRANCH  27  28
ATOM     28  C   UNL     1       2.995   5.043   0.336  0.00  0.00    -0.077 C 
BRANCH  28  29
ATOM     29  N   UNL     1       4.265   5.786   0.481  0.00  0.00    +0.382 N 
ATOM     30  H   UNL     1       4.696   5.537   1.379  0.00  0.00    -0.081 HD
BRANCH  29  32
ATOM     31  C   UNL     1       6.598   5.891  -0.240  0.00  0.00    -0.017 C 
ATOM     32  C   UNL     1       5.190   5.423  -0.613  0.00  0.00    -0.082 C 
ENDBRANCH  29  32
BRANCH  29  33
ATOM     33  C   UNL     1       4.004   7.241   0.461  0.00  0.00    -0.043 C 
BRANCH  33  34
ATOM     34  C   UNL     1       3.437   7.649   1.796  0.00  0.00    -0.064 A 
ATOM     35  C   UNL     1       2.070   7.776   1.957  0.00  0.00    +0.002 A 
ATOM     36  C   UNL     1       1.550   8.146   3.183  0.00  0.00    +0.000 A 
ATOM     37  C   UNL     1       2.397   8.397   4.246  0.00  0.00    +0.000 A 
ATOM     38  C   UNL     1       3.764   8.275   4.084  0.00  0.00    +0.000 A 
ATOM     39  C   UNL     1       4.284   7.901   2.859  0.00  0.00    +0.002 A 
ENDBRANCH  33  34
ENDBRANCH  29  33
ENDBRANCH  28  29
ENDBRANCH  27  28
ENDBRANCH  26  27
ENDBRANCH  22  26
ENDBRANCH   1  23
TORSDOF 9
