REMARK  Name = ZINC02131445
REMARK  10 active torsions:
REMARK  status: ('A' for Active; 'I' for Inactive)
REMARK    1  A    between atoms: C_1  and  C_2
REMARK    2  A    between atoms: C_2  and  N_59
REMARK    3  A    between atoms: C_5  and  C_6
REMARK    4  A    between atoms: C_9  and  O_12
REMARK    5  A    between atoms: O_12  and  C_13
REMARK    6  A    between atoms: C_17  and  C_25
REMARK    7  A    between atoms: C_19  and  C_23
REMARK    8  A    between atoms: C_20  and  N_22
REMARK    9  A    between atoms: C_28  and  O_31
REMARK   10  A    between atoms: O_31  and  C_32
REMARK                            x       y       z     vdW  Elec       q    Type
REMARK                         _______ _______ _______ _____ _____    ______ ____
ROOT
ATOM      1  C   UNL     1      -1.791  -1.707   3.600  0.00  0.00    -0.039 C 
ATOM      2  C   UNL     1      -2.626  -1.866   2.346  0.00  0.00    -0.021 C 
ATOM      3  C   UNL     1      -3.966  -1.754   2.382  0.00  0.00    +0.013 C 
ATOM      4  C   UNL     1      -1.914  -2.149   1.083  0.00  0.00    +0.130 C 
ATOM      5  C   UNL     1      -0.585  -2.038   1.034  0.00  0.00    -0.031 C 
ATOM      6  C   UNL     1       0.216  -1.656   2.253  0.00  0.00    -0.042 C 
ATOM      7  C   UNL     1       0.156  -2.303  -0.254  0.00  0.00    +0.092 C 
ATOM      8  C   UNL     1      -0.707  -3.088  -1.202  0.00  0.00    +0.098 C 
ATOM      9  C   UNL     1      -2.050  -3.149  -1.026  0.00  0.00    +0.199 C 
ATOM     10  O   UNL     1      -2.641  -2.509  -0.003  0.00  0.00    -0.441 OA
ATOM     11  N   UNL     1      -0.609  -0.904   3.212  0.00  0.00    +0.385 N 
ATOM     12  H   UNL     1      -0.926  -0.034   2.770  0.00  0.00    -0.081 HD
ENDROOT
BRANCH   3  13
ATOM     13  C   UNL     1      -4.731  -1.671   1.127  0.00  0.00    -0.025 A 
ATOM     14  C   UNL     1      -4.290  -0.843   0.090  0.00  0.00    +0.011 A 
ATOM     15  C   UNL     1      -5.007  -0.773  -1.085  0.00  0.00    +0.046 A 
ATOM     16  C   UNL     1      -6.172  -1.514  -1.236  0.00  0.00    +0.120 A 
ATOM     17  C   UNL     1      -6.617  -2.334  -0.206  0.00  0.00    +0.046 A 
ATOM     18  C   UNL     1      -5.904  -2.415   0.970  0.00  0.00    +0.011 A 
BRANCH  16  19
ATOM     19  O   UNL     1      -6.878  -1.437  -2.393  0.00  0.00    -0.495 OA
ATOM     20  C   UNL     1      -6.364  -0.575  -3.411  0.00  0.00    +0.277 C 
ENDBRANCH  16  19
ENDBRANCH   3  13
BRANCH   7  21
ATOM     21  C   UNL     1       0.531  -0.991  -0.893  0.00  0.00    -0.035 A 
ATOM     22  C   UNL     1      -0.455  -0.092  -1.255  0.00  0.00    +0.008 A 
ATOM     23  C   UNL     1      -0.113   1.114  -1.835  0.00  0.00    +0.046 A 
ATOM     24  C   UNL     1       1.221   1.418  -2.064  0.00  0.00    +0.120 A 
ATOM     25  C   UNL     1       2.208   0.513  -1.705  0.00  0.00    +0.046 A 
ATOM     26  C   UNL     1       1.861  -0.690  -1.120  0.00  0.00    +0.008 A 
BRANCH  24  27
ATOM     27  O   UNL     1       1.559   2.602  -2.640  0.00  0.00    -0.495 OA
ATOM     28  C   UNL     1       0.490   3.486  -2.984  0.00  0.00    +0.277 C 
ENDBRANCH  24  27
ENDBRANCH   7  21
BRANCH   9  29
ATOM     29  N   UNL     1      -2.816  -3.874  -1.905  0.00  0.00    -0.328 N 
ATOM     30  H   UNL     1      -3.766  -3.983  -1.744  0.00  0.00    +0.145 HD
ATOM     31  H   UNL     1      -2.407  -4.276  -2.687  0.00  0.00    +0.145 HD
ENDBRANCH   9  29
BRANCH  11  33
ATOM     32  C   UNL     1      -0.611   0.390   5.291  0.00  0.00    -0.017 C 
ATOM     33  C   UNL     1       0.193  -0.571   4.412  0.00  0.00    -0.081 C 
ENDBRANCH  11  33
BRANCH   8  34
ATOM     34  C   UNL     1      -0.103  -3.779  -2.302  0.00  0.00    +0.101 C 
ATOM     35  N   UNL     1       0.375  -4.326  -3.175  0.00  0.00    -0.191 NA
ENDBRANCH   8  34
TORSDOF 7
