REMARK  Name = ZINC07384812
REMARK  3 active torsions:
REMARK  status: ('A' for Active; 'I' for Inactive)
REMARK    1  A    between atoms: N_13  and  C_14
REMARK    2  A    between atoms: C_14  and  C_15
REMARK    3  A    between atoms: N_20  and  C_21
REMARK                            x       y       z     vdW  Elec       q    Type
REMARK                         _______ _______ _______ _____ _____    ______ ____
ROOT
ATOM      1  C   UNL     1      -1.265  -0.739   0.010  0.00  0.00    +0.222 C 
ENDROOT
BRANCH   1  14
ATOM      2  C   UNL     1      -0.016   1.354   0.009  0.00  0.00    +0.203 A 
ATOM      3  N   UNL     1       1.091   2.046   0.003  0.00  0.00    -0.230 NA
ATOM      4  C   UNL     1       2.275   1.439  -0.012  0.00  0.00    +0.116 A 
ATOM      5  C   UNL     1       2.394   0.043  -0.021  0.00  0.00    +0.076 A 
ATOM      6  C   UNL     1       3.764  -0.489  -0.036  0.00  0.00    -0.023 A 
ATOM      7  C   UNL     1       4.765   0.408  -0.038  0.00  0.00    -0.004 A 
ATOM      8  S   UNL     1       3.960   1.994  -0.024  0.00  0.00    -0.073 S 
ATOM      9  C   UNL     1       6.118  -0.250  -0.049  0.00  0.00    +0.043 C 
ATOM     10  C   UNL     1       5.844  -1.708   0.381  0.00  0.00    +0.010 C 
ATOM     11  C   UNL     1       4.377  -1.893  -0.055  0.00  0.00    +0.037 C 
ATOM     12  C   UNL     1       1.162  -0.688  -0.013  0.00  0.00    +0.263 A 
ATOM     13  O   UNL     1       1.164  -1.907  -0.019  0.00  0.00    -0.267 OA
ATOM     14  N   UNL     1       0.002  -0.004   0.002  0.00  0.00    -0.290 N 
ENDBRANCH   1  14
BRANCH   1  15
ATOM     15  C   UNL     1      -1.713  -0.984  -1.408  0.00  0.00    +0.240 C 
ATOM     16  O   UNL     1      -1.041  -0.583  -2.333  0.00  0.00    -0.273 OA
ATOM     17  N   UNL     1      -2.862  -1.647  -1.646  0.00  0.00    -0.239 N 
ATOM     18  C   UNL     1      -3.263  -1.866  -2.914  0.00  0.00    +0.306 C 
ATOM     19  O   UNL     1      -2.588  -1.465  -3.843  0.00  0.00    -0.252 OA
ATOM     20  N   UNL     1      -4.411  -2.530  -3.153  0.00  0.00    -0.296 N 
ATOM     21  H   UNL     1      -3.400  -1.968  -0.905  0.00  0.00    +0.159 HD
ATOM     22  H   UNL     1      -4.949  -2.850  -2.412  0.00  0.00    +0.151 HD
BRANCH  20  23
ATOM     23  C   UNL     1      -4.847  -2.767  -4.532  0.00  0.00    +0.074 C 
ATOM     24  C   UNL     1      -4.175  -4.033  -5.068  0.00  0.00    +0.022 C 
ATOM     25  C   UNL     1      -4.630  -4.281  -6.507  0.00  0.00    +0.002 C 
ATOM     26  C   UNL     1      -6.150  -4.458  -6.538  0.00  0.00    +0.000 C 
ATOM     27  C   UNL     1      -6.821  -3.192  -6.002  0.00  0.00    +0.002 C 
ATOM     28  C   UNL     1      -6.366  -2.943  -4.563  0.00  0.00    +0.022 C 
ENDBRANCH  20  23
ENDBRANCH   1  15
TORSDOF 3
