REMARK  Name = ZINC35271708
REMARK  15 active torsions:
REMARK  status: ('A' for Active; 'I' for Inactive)
REMARK    1  A    between atoms: C_1  and  C_2
REMARK    2  A    between atoms: C_4  and  O_26
REMARK    3  A    between atoms: C_8  and  C_25
REMARK    4  A    between atoms: C_10  and  O_12
REMARK    5  A    between atoms: C_13  and  O_21
REMARK    6  A    between atoms: C_16  and  C_17
REMARK    7  A    between atoms: C_16  and  O_20
REMARK    8  A    between atoms: C_17  and  C_18
REMARK    9  A    between atoms: C_17  and  C_19
REMARK   10  A    between atoms: O_21  and  C_22
REMARK   11  A    between atoms: C_22  and  C_24
REMARK   12  A    between atoms: O_26  and  C_27
REMARK   13  A    between atoms: C_27  and  C_29
REMARK   14  A    between atoms: C_32  and  O_35
REMARK   15  A    between atoms: O_35  and  C_36
REMARK                            x       y       z     vdW  Elec       q    Type
REMARK                         _______ _______ _______ _____ _____    ______ ____
ROOT
ATOM      1  C   UNL     1      -4.659   1.167   0.814  0.00  0.00    +0.041 C 
ATOM      2  C   UNL     1      -3.787  -0.053   0.666  0.00  0.00    -0.045 C 
ATOM      3  C   UNL     1      -2.921  -0.100  -0.308  0.00  0.00    +0.019 C 
ATOM      4  C   UNL     1      -2.065  -1.335  -0.512  0.00  0.00    +0.206 C 
ATOM      5  C   UNL     1      -2.998  -2.442  -0.974  0.00  0.00    +0.075 C 
ATOM      6  C   UNL     1      -3.610  -3.182   0.208  0.00  0.00    +0.017 C 
ATOM      7  C   UNL     1      -4.634  -2.377   0.969  0.00  0.00    +0.046 C 
ATOM      8  C   UNL     1      -3.934  -1.189   1.656  0.00  0.00    +0.141 C 
ATOM      9  C   UNL     1      -4.155  -4.471  -0.428  0.00  0.00    +0.186 C 
ATOM     10  C   UNL     1      -3.068  -4.842  -1.469  0.00  0.00    +0.080 C 
ATOM     11  C   UNL     1      -2.306  -3.545  -1.781  0.00  0.00    +0.079 C 
ATOM     12  C   UNL     1      -2.485  -3.572   1.169  0.00  0.00    +0.015 C 
ENDROOT
BRANCH  11  13
ATOM     13  C   UNL     1      -0.842  -3.672  -1.356  0.00  0.00    +0.015 C 
ATOM     14  C   UNL     1      -0.400  -5.132  -1.478  0.00  0.00    +0.010 C 
ATOM     15  C   UNL     1       0.029  -2.798  -2.261  0.00  0.00    +0.010 C 
ENDBRANCH  11  13
BRANCH   8  16
ATOM     16  O   UNL     1      -4.714  -0.751   2.770  0.00  0.00    -0.387 OA
ATOM     17  H   UNL     1      -4.331  -0.003   3.249  0.00  0.00    +0.210 HD
ENDBRANCH   8  16
BRANCH  11  18
ATOM     18  O   UNL     1      -2.393  -3.264  -3.179  0.00  0.00    -0.388 OA
ATOM     19  H   UNL     1      -1.973  -3.929  -3.741  0.00  0.00    +0.210 HD
ENDBRANCH  11  18
BRANCH   9  20
ATOM     20  O   UNL     1      -4.289  -5.500   0.555  0.00  0.00    -0.461 OA
BRANCH  20  21
ATOM     21  C   UNL     1      -5.261  -6.405   0.361  0.00  0.00    +0.304 C 
ATOM     22  O   UNL     1      -5.974  -6.327  -0.611  0.00  0.00    -0.251 OA
ATOM     23  C   UNL     1      -5.462  -7.520   1.355  0.00  0.00    +0.136 C 
ENDBRANCH  20  21
ENDBRANCH   9  20
BRANCH   4  24
ATOM     24  O   UNL     1      -1.438  -1.704   0.718  0.00  0.00    -0.453 OA
BRANCH  24  25
ATOM     25  C   UNL     1      -0.312  -1.043   1.053  0.00  0.00    +0.340 C 
ATOM     26  O   UNL     1       0.161  -0.224   0.291  0.00  0.00    -0.245 OA
BRANCH  25  27
ATOM     27  C   UNL     1       0.345  -1.315   2.345  0.00  0.00    +0.059 A 
ATOM     28  C   UNL     1      -0.122  -2.344   3.167  0.00  0.00    +0.018 A 
ATOM     29  C   UNL     1       0.495  -2.595   4.372  0.00  0.00    +0.046 A 
ATOM     30  C   UNL     1       1.582  -1.825   4.771  0.00  0.00    +0.120 A 
ATOM     31  C   UNL     1       2.050  -0.801   3.957  0.00  0.00    +0.046 A 
ATOM     32  C   UNL     1       1.442  -0.547   2.748  0.00  0.00    +0.018 A 
BRANCH  30  33
ATOM     33  O   UNL     1       2.187  -2.075   5.960  0.00  0.00    -0.495 OA
ATOM     34  C   UNL     1       3.298  -1.247   6.309  0.00  0.00    +0.277 C 
ENDBRANCH  30  33
ENDBRANCH  25  27
ENDBRANCH  24  25
ENDBRANCH   4  24
TORSDOF 9
