REMARK  Name = ZINC55503222
REMARK  3 active torsions:
REMARK  status: ('A' for Active; 'I' for Inactive)
REMARK    1  A    between atoms: C_1  and  O_2
REMARK    2  A    between atoms: O_2  and  C_3
REMARK    3  A    between atoms: C_6  and  C_9
REMARK                            x       y       z     vdW  Elec       q    Type
REMARK                         _______ _______ _______ _____ _____    ______ ____
ROOT
ATOM      1  C   UNL     1       2.495  -2.494  -4.366  0.00  0.00    +0.003 A 
ATOM      2  C   UNL     1       2.190  -2.130  -5.634  0.00  0.00    +0.056 A 
ATOM      3  S   UNL     1       3.225  -3.190  -6.625  0.00  0.00    -0.081 S 
ATOM      4  C   UNL     1       4.031  -4.086  -5.324  0.00  0.00    +0.083 A 
ATOM      5  C   UNL     1       3.488  -3.543  -4.157  0.00  0.00    +0.073 A 
ATOM      6  C   UNL     1       3.994  -4.112  -2.891  0.00  0.00    +0.252 C 
ATOM      7  O   UNL     1       3.576  -3.704  -1.823  0.00  0.00    -0.270 OA
ATOM      8  N   UNL     1       4.922  -5.084  -2.931  0.00  0.00    -0.267 N 
ATOM      9  H   UNL     1       5.253  -5.456  -2.098  0.00  0.00    +0.156 HD
ATOM     10  C   UNL     1       5.407  -5.559  -4.104  0.00  0.00    +0.142 C 
ATOM     11  N   UNL     1       4.967  -5.077  -5.284  0.00  0.00    -0.294 N 
ATOM     12  C   UNL     1       6.415  -6.618  -4.089  0.00  0.00    +0.210 C 
ATOM     13  N   UNL     1       6.987  -7.186  -5.162  0.00  0.00    -0.213 NA
ATOM     14  H   UNL     1       8.317  -8.649  -2.807  0.00  0.00    +0.190 HD
ATOM     15  C   UNL     1       7.836  -8.089  -4.717  0.00  0.00    +0.216 C 
ATOM     16  N   UNL     1       7.792  -8.081  -3.392  0.00  0.00    -0.265 N 
ATOM     17  N   UNL     1       6.942  -7.193  -3.008  0.00  0.00    -0.150 NA
ATOM     18  H   UNL     1       5.328  -5.432  -6.112  0.00  0.00    +0.154 HD
ENDROOT
BRANCH   1  22
ATOM     19  C   UNL     1       0.606  -0.607  -1.056  0.00  0.00    +0.120 A 
ATOM     20  C   UNL     1       1.173   0.164  -2.062  0.00  0.00    +0.046 A 
ATOM     21  C   UNL     1       1.786  -0.445  -3.136  0.00  0.00    +0.012 A 
ATOM     22  C   UNL     1       1.837  -1.837  -3.212  0.00  0.00    -0.016 A 
ATOM     23  C   UNL     1       1.266  -2.608  -2.200  0.00  0.00    +0.012 A 
ATOM     24  C   UNL     1       0.659  -1.992  -1.125  0.00  0.00    +0.046 A 
BRANCH  19  26
ATOM     25  C   UNL     1      -0.017   1.425   0.010  0.00  0.00    +0.277 C 
ATOM     26  O   UNL     1       0.002  -0.004   0.002  0.00  0.00    -0.495 OA
ENDBRANCH  19  26
ENDBRANCH   1  22
TORSDOF 2
