REMARK  Name = ZINC08493147
REMARK  11 active torsions:
REMARK  status: ('A' for Active; 'I' for Inactive)
REMARK    1  A    between atoms: C_1  and  C_2
REMARK    2  A    between atoms: C_2  and  C_3
REMARK    3  A    between atoms: C_8  and  N_9
REMARK    4  A    between atoms: C_10  and  C_12
REMARK    5  A    between atoms: C_12  and  N_13
REMARK    6  A    between atoms: N_13  and  C_14
REMARK    7  A    between atoms: N_13  and  C_15
REMARK    8  A    between atoms: C_15  and  C_17
REMARK    9  A    between atoms: C_15  and  C_18
REMARK   10  A    between atoms: N_20  and  C_21
REMARK   11  A    between atoms: C_22  and  C_26
REMARK                            x       y       z     vdW  Elec       q    Type
REMARK                         _______ _______ _______ _____ _____    ______ ____
ROOT
ATOM      1  N   UNL     1       6.346  -0.687   1.034  0.00  0.00    +0.391 N 
ATOM      2  C   UNL     1       6.351  -2.155   1.087  0.00  0.00    -0.094 C 
ATOM      3  H   UNL     1       6.739  -0.381   0.157  0.00  0.00    -0.080 HD
ENDROOT
BRANCH   1   4
ATOM      4  C   UNL     1       7.149  -0.154   2.143  0.00  0.00    +0.017 C 
ATOM      5  C   UNL     1       7.034   1.371   2.170  0.00  0.00    -0.004 C 
BRANCH   4   6
ATOM      6  C   UNL     1       8.591  -0.546   1.952  0.00  0.00    +0.204 C 
ATOM      7  O   UNL     1       8.963  -0.990   0.886  0.00  0.00    -0.277 OA
ATOM      8  N   UNL     1       9.469  -0.403   2.965  0.00  0.00    -0.281 N 
ATOM      9  H   UNL     1       9.171  -0.048   3.818  0.00  0.00    +0.155 HD
BRANCH   8  10
ATOM     10  C   UNL     1      10.796  -0.763   2.789  0.00  0.00    +0.084 A 
ATOM     11  C   UNL     1      11.829  -0.692   3.713  0.00  0.00    +0.065 A 
ATOM     12  C   UNL     1      13.128  -1.136   3.264  0.00  0.00    +0.022 A 
ATOM     13  C   UNL     1      13.193  -1.572   1.993  0.00  0.00    +0.048 A 
ATOM     14  S   UNL     1      11.520  -1.392   1.413  0.00  0.00    -0.081 S 
BRANCH  11  15
ATOM     15  C   UNL     1      11.612  -0.191   5.074  0.00  0.00    +0.244 C 
ATOM     16  O   UNL     1      10.504   0.175   5.418  0.00  0.00    -0.270 OA
ATOM     17  N   UNL     1      12.641  -0.137   5.943  0.00  0.00    -0.325 N 
ATOM     18  H   UNL     1      13.524  -0.429   5.668  0.00  0.00    +0.145 HD
ATOM     19  H   UNL     1      12.498   0.194   6.844  0.00  0.00    +0.145 HD
ENDBRANCH  11  15
ENDBRANCH   8  10
ENDBRANCH   4   6
ENDBRANCH   1   4
BRANCH   1  20
ATOM     20  C   UNL     1       4.965  -0.198   1.150  0.00  0.00    +0.020 C 
BRANCH  20  22
ATOM     21  N   UNL     1       2.872  -0.307  -0.162  0.00  0.00    -0.287 N 
ATOM     22  C   UNL     1       4.172  -0.642  -0.051  0.00  0.00    +0.201 C 
ATOM     23  O   UNL     1       4.704  -1.302  -0.919  0.00  0.00    -0.278 OA
ATOM     24  H   UNL     1       2.466   0.283   0.492  0.00  0.00    +0.155 HD
BRANCH  21  30
ATOM     25  C   UNL     1       0.763  -1.102  -1.030  0.00  0.00    -0.026 A 
ATOM     26  C   UNL     1       0.009  -1.593  -2.078  0.00  0.00    +0.005 A 
ATOM     27  C   UNL     1       0.594  -1.800  -3.314  0.00  0.00    +0.000 A 
ATOM     28  C   UNL     1       1.933  -1.516  -3.505  0.00  0.00    +0.002 A 
ATOM     29  C   UNL     1       2.692  -1.024  -2.462  0.00  0.00    +0.023 A 
ATOM     30  C   UNL     1       2.107  -0.810  -1.220  0.00  0.00    +0.036 A 
BRANCH  25  32
ATOM     31  C   UNL     1      -0.326   0.581   0.430  0.00  0.00    +0.009 C 
ATOM     32  C   UNL     1       0.125  -0.876   0.317  0.00  0.00    +0.033 C 
ENDBRANCH  25  32
ENDBRANCH  21  30
ENDBRANCH  20  22
ENDBRANCH   1  20
TORSDOF 8
