REMARK  Name = ZINC03398579
REMARK  6 active torsions:
REMARK  status: ('A' for Active; 'I' for Inactive)
REMARK    1  A    between atoms: C_3  and  C_34
REMARK    2  A    between atoms: C_6  and  C_7
REMARK    3  A    between atoms: C_7  and  S_8
REMARK    4  A    between atoms: S_8  and  C_9
REMARK    5  A    between atoms: C_15  and  C_17
REMARK    6  A    between atoms: N_22  and  C_24
REMARK                            x       y       z     vdW  Elec       q    Type
REMARK                         _______ _______ _______ _____ _____    ______ ____
ROOT
ATOM      1  C   UNL     1      -3.384  -1.905  -1.486  0.00  0.00    +0.160 A 
ATOM      2  N   UNL     1      -4.025  -2.295  -0.394  0.00  0.00    -0.133 NA
ATOM      3  N   UNL     1      -5.101  -2.949  -0.451  0.00  0.00    -0.125 NA
ATOM      4  C   UNL     1      -5.657  -3.287  -1.603  0.00  0.00    +0.189 A 
ATOM      5  S   UNL     1      -4.480  -2.561  -2.740  0.00  0.00    -0.024 S 
ATOM      6  N   UNL     1      -6.827  -3.998  -1.858  0.00  0.00    -0.263 N 
ATOM      7  C   UNL     1      -7.576  -4.453  -0.834  0.00  0.00    +0.224 C 
ATOM      8  O   UNL     1      -7.231  -4.244   0.310  0.00  0.00    -0.275 OA
ATOM      9  H   UNL     1      -7.104  -4.165  -2.773  0.00  0.00    +0.157 HD
ENDROOT
BRANCH   7  10
ATOM     10  C   UNL     1      -8.842  -5.223  -1.110  0.00  0.00    +0.102 C 
ATOM     11  C   UNL     1      -8.533  -6.559  -1.823  0.00  0.00    +0.110 C 
ATOM     12  C   UNL     1      -8.421  -7.563  -0.697  0.00  0.00    +0.221 C 
ATOM     13  O   UNL     1      -7.917  -8.662  -0.793  0.00  0.00    -0.275 OA
ATOM     14  N   UNL     1      -8.960  -7.059   0.427  0.00  0.00    -0.271 N 
ATOM     15  C   UNL     1      -9.492  -5.709   0.205  0.00  0.00    +0.127 C 
BRANCH  14  16
ATOM     16  C   UNL     1      -9.008  -7.736   1.653  0.00  0.00    +0.040 A 
ATOM     17  C   UNL     1      -9.484  -7.089   2.785  0.00  0.00    +0.027 A 
ATOM     18  C   UNL     1      -9.531  -7.755   3.994  0.00  0.00    +0.051 A 
ATOM     19  C   UNL     1      -9.105  -9.072   4.081  0.00  0.00    +0.162 A 
ATOM     20  C   UNL     1      -8.630  -9.724   2.949  0.00  0.00    +0.164 A 
ATOM     21  C   UNL     1      -8.586  -9.055   1.735  0.00  0.00    +0.073 A 
ATOM     22  O   UNL     1      -8.214 -11.018   3.013  0.00  0.00    -0.485 OA
ATOM     23  C   UNL     1      -7.927 -11.539   4.315  0.00  0.00    +0.270 C 
ATOM     24  C   UNL     1      -9.074 -11.141   5.255  0.00  0.00    +0.270 C 
ATOM     25  O   UNL     1      -9.155  -9.712   5.282  0.00  0.00    -0.485 OA
ENDBRANCH  14  16
ENDBRANCH   7  10
BRANCH   1  26
ATOM     26  S   UNL     1      -1.885  -0.994  -1.656  0.00  0.00    -0.092 S 
BRANCH  26  27
ATOM     27  C   UNL     1      -1.361  -0.689   0.054  0.00  0.00    +0.111 C 
BRANCH  27  33
ATOM     28  C   UNL     1      -0.106   1.476   0.059  0.00  0.00    +0.006 A 
ATOM     29  C   UNL     1       1.069   2.198   0.059  0.00  0.00    +0.019 A 
ATOM     30  C   UNL     1       2.295   1.529   0.051  0.00  0.00    +0.052 A 
ATOM     31  C   UNL     1       2.322   0.133   0.044  0.00  0.00    +0.019 A 
ATOM     32  C   UNL     1       1.139  -0.576   0.045  0.00  0.00    +0.006 A 
ATOM     33  C   UNL     1      -0.073   0.093   0.052  0.00  0.00    -0.037 A 
BRANCH  30  34
ATOM     34  C   UNL     1       3.519   2.272   0.050  0.00  0.00    +0.099 C 
ATOM     35  N   UNL     1       4.490   2.861   0.049  0.00  0.00    -0.191 NA
ENDBRANCH  30  34
ENDBRANCH  27  33
ENDBRANCH  26  27
ENDBRANCH   1  26
TORSDOF 6
