REMARK  Name = ZINC63743934
REMARK  6 active torsions:
REMARK  status: ('A' for Active; 'I' for Inactive)
REMARK    1  A    between atoms: C_1  and  C_2
REMARK    2  A    between atoms: C_2  and  O_3
REMARK    3  A    between atoms: O_3  and  C_4
REMARK    4  A    between atoms: C_7  and  N_10
REMARK    5  A    between atoms: N_13  and  C_14
REMARK    6  A    between atoms: C_17  and  C_20
REMARK                            x       y       z     vdW  Elec       q    Type
REMARK                         _______ _______ _______ _____ _____    ______ ____
ROOT
ATOM      1  C   UNL     1      -4.615  -8.512   0.160  0.00  0.00    +0.035 A 
ATOM      2  C   UNL     1      -5.734  -7.689   0.163  0.00  0.00    +0.024 A 
ATOM      3  C   UNL     1      -6.998  -8.244   0.162  0.00  0.00    +0.008 A 
ATOM      4  C   UNL     1      -7.151  -9.619   0.159  0.00  0.00    -0.021 A 
ATOM      5  C   UNL     1      -6.040 -10.441   0.157  0.00  0.00    +0.008 A 
ATOM      6  C   UNL     1      -4.772  -9.892   0.151  0.00  0.00    +0.024 A 
ENDROOT
BRANCH   4   7
ATOM      7  C   UNL     1      -8.533 -10.222   0.159  0.00  0.00    +0.133 C 
ATOM      8  C   UNL     1      -8.887 -10.713   1.544  0.00  0.00    +0.012 C 
ATOM      9  C   UNL     1      -9.095 -12.044   1.428  0.00  0.00    -0.001 A 
ATOM     10  C   UNL     1      -9.463 -13.081   2.399  0.00  0.00    +0.048 A 
ATOM     11  C   UNL     1      -9.601 -14.360   1.974  0.00  0.00    +0.124 A 
ATOM     12  C   UNL     1      -9.401 -14.716   0.631  0.00  0.00    +0.040 A 
ATOM     13  C   UNL     1      -9.061 -13.818  -0.318  0.00  0.00    +0.029 A 
ATOM     14  C   UNL     1      -8.889 -12.446   0.018  0.00  0.00    +0.043 A 
ATOM     15  N   UNL     1      -8.568 -11.403  -0.711  0.00  0.00    -0.374 N 
ATOM     16  F   UNL     1      -9.940 -15.317   2.865  0.00  0.00    -0.205 F 
ATOM     17  H   UNL     1      -8.386 -11.411  -1.663  0.00  0.00    +0.161 HD
ENDBRANCH   4   7
BRANCH   1  21
ATOM     18  N   UNL     1      -1.898  -6.196   0.716  0.00  0.00    -0.269 N 
ATOM     19  C   UNL     1      -3.106  -6.788   0.802  0.00  0.00    +0.308 C 
ATOM     20  O   UNL     1      -3.990  -6.273   1.458  0.00  0.00    -0.252 OA
ATOM     21  N   UNL     1      -3.333  -7.952   0.161  0.00  0.00    -0.269 N 
ATOM     22  H   UNL     1      -1.217  -6.566   0.133  0.00  0.00    +0.156 HD
ATOM     23  H   UNL     1      -2.607  -8.402  -0.300  0.00  0.00    +0.156 HD
BRANCH  18  27
ATOM     24  C   UNL     1      -1.090  -2.772   2.954  0.00  0.00    +0.121 A 
ATOM     25  C   UNL     1      -1.935  -3.748   3.461  0.00  0.00    +0.047 A 
ATOM     26  C   UNL     1      -2.203  -4.883   2.720  0.00  0.00    +0.027 A 
ATOM     27  C   UNL     1      -1.627  -5.045   1.468  0.00  0.00    +0.035 A 
ATOM     28  C   UNL     1      -0.782  -4.067   0.960  0.00  0.00    +0.027 A 
ATOM     29  C   UNL     1      -0.519  -2.931   1.700  0.00  0.00    +0.047 A 
BRANCH  24  30
ATOM     30  O   UNL     1      -0.827  -1.655   3.684  0.00  0.00    -0.492 OA
BRANCH  30  32
ATOM     31  C   UNL     1      -1.037  -0.243   5.634  0.00  0.00    +0.048 C 
ATOM     32  C   UNL     1      -1.449  -1.557   4.967  0.00  0.00    +0.225 C 
ENDBRANCH  30  32
ENDBRANCH  24  30
ENDBRANCH  18  27
ENDBRANCH   1  21
TORSDOF 5
