REMARK  Name = ZINC23373000
REMARK  12 active torsions:
REMARK  status: ('A' for Active; 'I' for Inactive)
REMARK    1  A    between atoms: C_1  and  N_2
REMARK    2  A    between atoms: N_2  and  C_3
REMARK    3  A    between atoms: N_2  and  C_20
REMARK    4  A    between atoms: C_3  and  C_4
REMARK    5  A    between atoms: C_6  and  C_9
REMARK    6  A    between atoms: C_9  and  C_10
REMARK    7  A    between atoms: C_13  and  O_18
REMARK    8  A    between atoms: C_14  and  O_16
REMARK    9  A    between atoms: O_16  and  C_17
REMARK   10  A    between atoms: O_18  and  C_19
REMARK   11  A    between atoms: C_20  and  C_21
REMARK   12  A    between atoms: C_21  and  N_27
REMARK                            x       y       z     vdW  Elec       q    Type
REMARK                         _______ _______ _______ _____ _____    ______ ____
ROOT
ATOM      1  C   UNL     1       0.137   1.351  -0.239  0.00  0.00    -0.096 C 
ATOM      2  N   UNL     1       0.075  -0.075   0.109  0.00  0.00    +0.383 N 
ATOM      3  H   UNL     1       0.500  -0.219   1.013  0.00  0.00    -0.082 HD
ENDROOT
BRANCH   2   4
ATOM      4  C   UNL     1       0.799  -0.857  -0.902  0.00  0.00    +0.021 C 
BRANCH   4   5
ATOM      5  C   UNL     1       2.263  -0.499  -0.861  0.00  0.00    +0.211 A 
ATOM      6  N   UNL     1       3.173  -1.085  -0.133  0.00  0.00    -0.197 NA
ATOM      7  C   UNL     1       4.365  -0.514  -0.342  0.00  0.00    +0.176 A 
ATOM      8  N   UNL     1       4.226   0.446  -1.210  0.00  0.00    -0.061 NA
ATOM      9  O   UNL     1       2.853   0.471  -1.570  0.00  0.00    -0.340 OA
BRANCH   7  10
ATOM     10  C   UNL     1       5.657  -0.918   0.321  0.00  0.00    +0.115 C 
BRANCH  10  11
ATOM     11  C   UNL     1       6.342  -1.970  -0.514  0.00  0.00    -0.036 A 
ATOM     12  C   UNL     1       6.073  -3.308  -0.293  0.00  0.00    +0.008 A 
ATOM     13  C   UNL     1       6.699  -4.276  -1.056  0.00  0.00    +0.049 A 
ATOM     14  C   UNL     1       7.597  -3.907  -2.044  0.00  0.00    +0.161 A 
ATOM     15  C   UNL     1       7.868  -2.560  -2.266  0.00  0.00    +0.162 A 
ATOM     16  C   UNL     1       7.233  -1.594  -1.501  0.00  0.00    +0.053 A 
BRANCH  15  17
ATOM     17  O   UNL     1       8.749  -2.192  -3.234  0.00  0.00    -0.491 OA
ATOM     18  C   UNL     1       8.977  -0.792  -3.406  0.00  0.00    +0.277 C 
ENDBRANCH  15  17
BRANCH  14  19
ATOM     19  O   UNL     1       8.214  -4.858  -2.795  0.00  0.00    -0.491 OA
ATOM     20  C   UNL     1       7.889  -6.221  -2.510  0.00  0.00    +0.277 C 
ENDBRANCH  14  19
ENDBRANCH  10  11
ENDBRANCH   7  10
ENDBRANCH   4   5
ENDBRANCH   2   4
BRANCH   2  21
ATOM     21  C   UNL     1      -1.327  -0.509   0.152  0.00  0.00    -0.091 C 
BRANCH  21  22
ATOM     22  C   UNL     1      -1.974  -0.018   1.449  0.00  0.00    -0.081 C 
ATOM     23  C   UNL     1      -3.359  -0.650   1.599  0.00  0.00    -0.014 C 
ATOM     24  C   UNL     1      -3.223  -2.174   1.641  0.00  0.00    -0.001 C 
ATOM     25  C   UNL     1      -2.348  -2.575   2.830  0.00  0.00    -0.000 C 
ATOM     26  C   UNL     1      -0.963  -1.943   2.680  0.00  0.00    -0.001 C 
ATOM     27  C   UNL     1      -1.099  -0.420   2.638  0.00  0.00    -0.014 C 
BRANCH  22  28
ATOM     28  N   UNL     1      -2.104   1.444   1.409  0.00  0.00    +0.382 N 
ATOM     29  C   UNL     1      -2.873   1.833   0.220  0.00  0.00    -0.078 C 
ATOM     30  C   UNL     1      -2.943   3.359   0.130  0.00  0.00    -0.019 C 
ATOM     31  C   UNL     1      -3.627   3.908   1.385  0.00  0.00    -0.004 C 
ATOM     32  C   UNL     1      -2.859   3.435   2.622  0.00  0.00    -0.019 C 
ATOM     33  C   UNL     1      -2.792   1.906   2.620  0.00  0.00    -0.078 C 
ATOM     34  H   UNL     1      -1.187   1.861   1.364  0.00  0.00    -0.081 HD
ENDBRANCH  22  28
ENDBRANCH  21  22
ENDBRANCH   2  21
TORSDOF 9
