REMARK  Name = ZINC63271374
REMARK  5 active torsions:
REMARK  status: ('A' for Active; 'I' for Inactive)
REMARK    1  A    between atoms: N_17  and  C_18
REMARK    2  A    between atoms: C_18  and  C_19
REMARK    3  A    between atoms: C_19  and  C_20
REMARK    4  A    between atoms: C_20  and  C_21
REMARK    5  A    between atoms: C_26  and  C_29
REMARK                            x       y       z     vdW  Elec       q    Type
REMARK                         _______ _______ _______ _____ _____    ______ ____
ROOT
ATOM      1  C   UNL     1      -0.019   1.345   0.015  0.00  0.00    +0.001 A 
ATOM      2  C   UNL     1       1.162   2.099   0.011  0.00  0.00    +0.002 A 
ATOM      3  C   UNL     1       2.387   1.532   0.000  0.00  0.00    +0.026 A 
ATOM      4  C   UNL     1       2.526   0.118  -0.008  0.00  0.00    +0.043 A 
ATOM      5  N   UNL     1       3.589  -0.655  -0.039  0.00  0.00    -0.376 N 
ATOM      6  C   UNL     1       3.153  -2.047   0.045  0.00  0.00    +0.124 C 
ATOM      7  C   UNL     1       3.651  -2.874  -1.145  0.00  0.00    +0.138 C 
ATOM      8  N   UNL     1       2.856  -4.111  -1.199  0.00  0.00    -0.283 N 
ATOM      9  C   UNL     1       1.399  -4.056  -1.362  0.00  0.00    +0.114 C 
ATOM     10  C   UNL     1       0.789  -3.239  -0.209  0.00  0.00    +0.052 C 
ATOM     11  C   UNL     1       1.636  -2.000  -0.029  0.00  0.00    -0.036 C 
ATOM     12  C   UNL     1       1.291  -0.704  -0.011  0.00  0.00    -0.001 A 
ATOM     13  C   UNL     1      -0.001  -0.006   0.005  0.00  0.00    +0.010 A 
ATOM     14  C   UNL     1       3.472  -5.306  -1.099  0.00  0.00    +0.302 C 
ATOM     15  O   UNL     1       4.686  -5.362  -1.058  0.00  0.00    -0.253 OA
ATOM     16  N   UNL     1       2.743  -6.438  -1.042  0.00  0.00    -0.299 N 
ATOM     17  H   UNL     1       1.779  -6.399  -1.148  0.00  0.00    +0.150 HD
ATOM     18  H   UNL     1       4.508  -0.352  -0.106  0.00  0.00    +0.160 HD
ENDROOT
BRANCH  16  19
ATOM     19  C   UNL     1       3.405  -7.726  -0.822  0.00  0.00    +0.106 C 
BRANCH  19  20
ATOM     20  C   UNL     1       2.357  -8.841  -0.801  0.00  0.00    +0.028 C 
BRANCH  20  21
ATOM     21  C   UNL     1       3.049 -10.186  -0.571  0.00  0.00    +0.097 C 
BRANCH  21  22
ATOM     22  C   UNL     1       2.017 -11.284  -0.550  0.00  0.00    +0.216 C 
ATOM     23  O   UNL     1       0.844 -11.017  -0.705  0.00  0.00    -0.276 OA
ATOM     24  N   UNL     1       2.397 -12.563  -0.361  0.00  0.00    -0.301 N 
ATOM     25  C   UNL     1       3.814 -12.901  -0.166  0.00  0.00    +0.108 C 
ATOM     26  C   UNL     1       4.207 -13.980  -1.180  0.00  0.00    +0.032 C 
ATOM     27  C   UNL     1       3.253 -15.170  -1.049  0.00  0.00    +0.078 C 
ATOM     28  C   UNL     1       1.824 -14.716  -1.356  0.00  0.00    +0.032 C 
ATOM     29  C   UNL     1       1.403 -13.645  -0.338  0.00  0.00    +0.108 C 
BRANCH  27  30
ATOM     30  C   UNL     1       3.657 -16.247  -2.021  0.00  0.00    +0.214 C 
ATOM     31  O   UNL     1       4.614 -16.081  -2.748  0.00  0.00    -0.276 OA
ATOM     32  N   UNL     1       2.955 -17.397  -2.084  0.00  0.00    -0.329 N 
ATOM     33  H   UNL     1       2.190 -17.530  -1.503  0.00  0.00    +0.145 HD
ATOM     34  H   UNL     1       3.216 -18.090  -2.710  0.00  0.00    +0.145 HD
ENDBRANCH  27  30
ENDBRANCH  21  22
ENDBRANCH  20  21
ENDBRANCH  19  20
ENDBRANCH  16  19
TORSDOF 5
