REMARK  Name = ZINC14975237
REMARK  13 active torsions:
REMARK  status: ('A' for Active; 'I' for Inactive)
REMARK    1  A    between atoms: C_3  and  O_14
REMARK    2  A    between atoms: C_4  and  C_8
REMARK    3  A    between atoms: C_8  and  N_55
REMARK    4  A    between atoms: CA_9  and  C_10
REMARK    5  A    between atoms: CA_9  and  CB_12
REMARK    6  A    between atoms: CA_9  and  N_55
REMARK    7  A    between atoms: C_10  and  O_11
REMARK    8  A    between atoms: CB_12  and  OG_13
REMARK    9  A    between atoms: O_14  and  C_15
REMARK   10  A    between atoms: C_15  and  C_16
REMARK   11  A    between atoms: C_16  and  C_18
REMARK   12  A    between atoms: C_16  and  O_25
REMARK   13  A    between atoms: C_18  and  N_58
REMARK                            x       y       z     vdW  Elec       q    Type
REMARK                         _______ _______ _______ _____ _____    ______ ____
ROOT
ATOM      1  C   UNL     1       1.174   1.783   0.000  0.00  0.00    +0.023 A 
ATOM      2  C   UNL     1      -0.013   1.076   0.008  0.00  0.00    +0.047 A 
ATOM      3  C   UNL     1      -1.223   1.753   0.017  0.00  0.00    +0.122 A 
ATOM      4  C   UNL     1      -1.239   3.141   0.030  0.00  0.00    -0.021 A 
ATOM      5  C   UNL     1      -0.051   3.844   0.022  0.00  0.00    +0.025 A 
ATOM      6  C   UNL     1       1.156   3.167   0.007  0.00  0.00    +0.041 A 
ATOM      7 CL   UNL     1       2.648   4.053  -0.003  0.00  0.00    -0.084 Cl
ENDROOT
BRANCH   4   8
ATOM      8  C   ACE A   0      -2.553   3.879   0.046  0.00  0.00    -0.042 C 
BRANCH   8   9
ATOM      9  N   UNL     1      -3.079   3.899   1.424  0.00  0.00    +0.387 N 
ATOM     10  H1  UNL     1      -2.406   4.372   2.037  0.00  0.00    -0.085 HD
ATOM     11  H2  UNL     1      -3.218   2.934   1.747  0.00  0.00    -0.085 HD
BRANCH   9  12
ATOM     12  CA  UNL     1      -4.367   4.617   1.470  0.00  0.00    -0.020 C 
BRANCH  12  13
ATOM     13  C   UNL     1      -5.502   3.653   1.116  0.00  0.00    +0.142 C 
BRANCH  13  14
ATOM     14  O   UNL     1      -5.592   2.637   2.116  0.00  0.00    -0.397 OA
ATOM     15  H   UNL     1      -6.293   1.989   1.956  0.00  0.00    +0.209 HD
ENDBRANCH  13  14
ENDBRANCH  12  13
BRANCH  12  16
ATOM     16  CB  UNL     1      -4.586   5.167   2.881  0.00  0.00    +0.142 C 
BRANCH  16  17
ATOM     17  O   UNL     1      -4.718   4.080   3.800  0.00  0.00    -0.397 OA
ATOM     18  H   UNL     1      -4.860   4.355   4.716  0.00  0.00    +0.209 HD
ENDBRANCH  16  17
ENDBRANCH  12  16
ENDBRANCH   9  12
ENDBRANCH   8   9
ENDBRANCH   4   8
BRANCH   3  19
ATOM     19  O   UNL     1      -2.391   1.059   0.020  0.00  0.00    -0.489 OA
BRANCH  19  20
ATOM     20  C   UNL     1      -2.299  -0.367   0.012  0.00  0.00    +0.258 C 
BRANCH  20  21
ATOM     21  C   UNL     1      -3.705  -0.969   0.016  0.00  0.00    +0.135 C 
BRANCH  21  22
ATOM     22  O   UNL     1      -4.373  -0.627  -1.200  0.00  0.00    -0.390 OA
ATOM     23  H   UNL     1      -3.928  -0.947  -1.997  0.00  0.00    +0.210 HD
ENDBRANCH  21  22
BRANCH  21  24
ATOM     24  C   UNL     1      -3.608  -2.492   0.134  0.00  0.00    -0.044 C 
BRANCH  24  31
ATOM     25  C   UNL     1      -5.742  -2.579   1.293  0.00  0.00    -0.079 C 
ATOM     26  C   UNL     1      -7.023  -3.342   1.495  0.00  0.00    -0.019 C 
ATOM     27  C   UNL     1      -6.763  -4.476   2.508  0.00  0.00    -0.002 C 
ATOM     28  C   UNL     1      -6.088  -5.616   1.897  0.00  0.00    -0.002 C 
ATOM     29  C   UNL     1      -4.704  -5.237   1.329  0.00  0.00    -0.019 C 
ATOM     30  C   UNL     1      -4.904  -4.543   0.009  0.00  0.00    -0.079 C 
ATOM     31  N   UNL     1      -4.971  -3.044   0.090  0.00  0.00    +0.381 N 
ATOM     32  H   UNL     1      -5.443  -2.695  -0.752  0.00  0.00    -0.082 HD
ENDBRANCH  24  31
ENDBRANCH  21  24
ENDBRANCH  20  21
ENDBRANCH  19  20
ENDBRANCH   3  19
TORSDOF 13
