REMARK  Name = ZINC39627071
REMARK  11 active torsions:
REMARK  status: ('A' for Active; 'I' for Inactive)
REMARK    1  A    between atoms: C_1  and  C_2
REMARK    2  A    between atoms: C_2  and  N_3
REMARK    3  A    between atoms: N_3  and  C_4
REMARK    4  A    between atoms: N_3  and  C_6
REMARK    5  A    between atoms: C_4  and  C_5
REMARK    6  A    between atoms: C_6  and  C_7
REMARK    7  A    between atoms: C_7  and  N_8
REMARK    8  A    between atoms: C_9  and  C_11
REMARK    9  A    between atoms: C_22  and  C_24
REMARK   10  A    between atoms: C_27  and  O_31
REMARK   11  A    between atoms: O_31  and  C_32
REMARK                            x       y       z     vdW  Elec       q    Type
REMARK                         _______ _______ _______ _____ _____    ______ ____
ROOT
ATOM      1  C   UNL     1       0.988  -5.907   2.385  0.00  0.00    +0.100 C 
ATOM      2  C   UNL     1       1.940  -6.002   1.172  0.00  0.00    +0.121 C 
ATOM      3  N   UNL     1       3.300  -5.948   1.758  0.00  0.00    -0.296 N 
ATOM      4  C   UNL     1       3.201  -6.760   2.995  0.00  0.00    +0.115 C 
ATOM      5  C   UNL     1       1.818  -6.409   3.578  0.00  0.00    -0.004 C 
ATOM      6  C   UNL     1       1.171  -7.649   4.187  0.00  0.00    -0.010 C 
ATOM      7  C   UNL     1       1.981  -8.095   5.408  0.00  0.00    -0.082 C 
ATOM      8  N   UNL     1       2.024  -7.007   6.393  0.00  0.00    +0.379 N 
ATOM      9  C   UNL     1       2.731  -5.850   5.830  0.00  0.00    -0.082 C 
ATOM     10  C   UNL     1       1.952  -5.309   4.628  0.00  0.00    -0.010 C 
ATOM     11  C   UNL     1       4.383  -5.307   1.276  0.00  0.00    +0.247 C 
ATOM     12  O   UNL     1       4.285  -4.606   0.287  0.00  0.00    -0.270 OA
ATOM     13  H   UNL     1       1.083  -6.739   6.637  0.00  0.00    -0.086 HD
ATOM     14  H   UNL     1       2.506  -7.324   7.221  0.00  0.00    -0.086 HD
ENDROOT
BRANCH  11  15
ATOM     15  C   UNL     1       5.689  -5.455   1.948  0.00  0.00    +0.040 A 
ATOM     16  C   UNL     1       5.937  -6.567   2.758  0.00  0.00    +0.036 A 
ATOM     17  C   UNL     1       7.158  -6.702   3.384  0.00  0.00    +0.085 A 
ATOM     18  C   UNL     1       8.141  -5.734   3.211  0.00  0.00    +0.157 A 
ATOM     19  C   UNL     1       7.897  -4.627   2.406  0.00  0.00    +0.085 A 
ATOM     20  C   UNL     1       6.681  -4.488   1.772  0.00  0.00    +0.036 A 
ATOM     21 CL   UNL     1       9.128  -3.421   2.194  0.00  0.00    -0.080 Cl
ATOM     22 CL   UNL     1       7.468  -8.082   4.391  0.00  0.00    -0.080 Cl
BRANCH  18  23
ATOM     23  O   UNL     1       9.341  -5.870   3.830  0.00  0.00    -0.492 OA
ATOM     24  C   UNL     1      10.363  -6.570   3.118  0.00  0.00    +0.277 C 
ENDBRANCH  18  23
ENDBRANCH  11  15
BRANCH   1  26
ATOM     25  N   UNL     1      -0.610  -4.212   3.217  0.00  0.00    -0.317 N 
ATOM     26  C   UNL     1       0.561  -4.478   2.606  0.00  0.00    +0.218 C 
ATOM     27  O   UNL     1       1.272  -3.569   2.234  0.00  0.00    -0.275 OA
ATOM     28  H   UNL     1      -1.179  -4.940   3.514  0.00  0.00    +0.149 HD
BRANCH  25  29
ATOM     29  C   UNL     1      -1.025  -2.824   3.432  0.00  0.00    +0.085 C 
BRANCH  29  30
ATOM     30  C   UNL     1      -2.381  -2.800   4.139  0.00  0.00    -0.060 C 
BRANCH  30  31
ATOM     31  N   UNL     1      -2.797  -1.408   4.355  0.00  0.00    +0.380 N 
ATOM     32  H   UNL     1      -2.074  -0.914   4.856  0.00  0.00    -0.082 HD
BRANCH  31  34
ATOM     33  C   UNL     1      -3.366   0.717   3.278  0.00  0.00    -0.017 C 
ATOM     34  C   UNL     1      -3.025  -0.758   3.057  0.00  0.00    -0.082 C 
ENDBRANCH  31  34
BRANCH  31  35
ATOM     35  C   UNL     1      -4.039  -1.384   5.139  0.00  0.00    -0.082 C 
ATOM     36  C   UNL     1      -3.777  -1.970   6.528  0.00  0.00    -0.017 C 
ENDBRANCH  31  35
ENDBRANCH  30  31
ENDBRANCH  29  30
ENDBRANCH  25  29
ENDBRANCH   1  26
TORSDOF 8
