REMARK  Name = ZINC41105208
REMARK  5 active torsions:
REMARK  status: ('A' for Active; 'I' for Inactive)
REMARK    1  A    between atoms: C_3  and  S_20
REMARK    2  A    between atoms: C_6  and  N_7
REMARK    3  A    between atoms: C_8  and  C_10
REMARK    4  A    between atoms: C_11  and  C_12
REMARK    5  A    between atoms: S_20  and  N_23
REMARK                            x       y       z     vdW  Elec       q    Type
REMARK                         _______ _______ _______ _____ _____    ______ ____
ROOT
ATOM      1  C   UNL     1      -0.007   1.372   0.173  0.00  0.00    +0.025 A 
ATOM      2  C   UNL     1       1.181   2.076   0.163  0.00  0.00    +0.031 A 
ATOM      3  C   UNL     1       2.379   1.411  -0.021  0.00  0.00    +0.113 A 
ATOM      4  C   UNL     1       2.392   0.039  -0.193  0.00  0.00    +0.031 A 
ATOM      5  C   UNL     1       1.208  -0.671  -0.183  0.00  0.00    +0.025 A 
ATOM      6  C   UNL     1       0.003  -0.006   0.001  0.00  0.00    +0.034 A 
ENDROOT
BRANCH   6   7
ATOM      7  N   UNL     1      -1.198  -0.722   0.011  0.00  0.00    -0.282 N 
ATOM      8  C   UNL     1      -2.322  -0.159  -0.474  0.00  0.00    +0.241 C 
ATOM      9  O   UNL     1      -2.275   0.934  -1.004  0.00  0.00    -0.270 OA
ATOM     10  H   UNL     1      -1.222  -1.623   0.368  0.00  0.00    +0.155 HD
BRANCH   8  11
ATOM     11  C   UNL     1      -3.611  -0.869  -0.361  0.00  0.00    +0.072 C 
ATOM     12  C   UNL     1      -4.731  -0.308  -0.844  0.00  0.00    +0.072 C 
BRANCH  12  13
ATOM     13  C   UNL     1      -6.020  -1.019  -0.731  0.00  0.00    +0.239 C 
ATOM     14  O   UNL     1      -6.083  -2.071  -0.126  0.00  0.00    -0.271 OA
ATOM     15  N   UNL     1      -7.127  -0.501  -1.299  0.00  0.00    -0.302 N 
ATOM     16  C   UNL     1      -8.398  -1.242  -1.292  0.00  0.00    +0.089 C 
ATOM     17  C   UNL     1      -9.500  -0.312  -0.773  0.00  0.00    -0.063 C 
ATOM     18  N   UNL     1      -9.519   0.918  -1.575  0.00  0.00    +0.381 N 
ATOM     19  C   UNL     1      -8.262   1.654  -1.392  0.00  0.00    -0.063 C 
ATOM     20  C   UNL     1      -7.101   0.825  -1.937  0.00  0.00    +0.089 C 
ATOM     21  H   UNL     1      -9.630   0.681  -2.550  0.00  0.00    -0.086 HD
ATOM     22  H   UNL     1     -10.292   1.496  -1.282  0.00  0.00    -0.086 HD
ENDBRANCH  12  13
ENDBRANCH   8  11
ENDBRANCH   6   7
BRANCH   3  23
ATOM     23  S   UNL     1       3.892   2.313  -0.034  0.00  0.00    +0.100 S 
ATOM     24  O   UNL     1       4.825   1.531  -0.767  0.00  0.00    -0.146 OA
ATOM     25  O   UNL     1       3.566   3.648  -0.398  0.00  0.00    -0.146 OA
BRANCH  23  26
ATOM     26  N   UNL     1       4.444   2.369   1.526  0.00  0.00    -0.118 NA
ATOM     27  C   UNL     1       5.550   2.980   1.800  0.00  0.00    +0.117 C 
ATOM     28  N   UNL     1       6.300   3.608   0.794  0.00  0.00    -0.331 N 
ATOM     29  C   UNL     1       6.370   5.040   0.826  0.00  0.00    +0.102 C 
ATOM     30  C   UNL     1       7.511   5.637   1.666  0.00  0.00    +0.019 C 
ATOM     31  C   UNL     1       7.672   4.854   2.994  0.00  0.00    +0.002 C 
ATOM     32  C   UNL     1       6.357   4.473   3.614  0.00  0.00    +0.008 C 
ATOM     33  C   UNL     1       6.055   3.044   3.155  0.00  0.00    +0.073 C 
ATOM     34  H   UNL     1       6.753   3.095   0.106  0.00  0.00    +0.147 HD
ENDBRANCH  23  26
ENDBRANCH   3  23
TORSDOF 5
