REMARK  Name = ZINC09286955
REMARK  8 active torsions:
REMARK  status: ('A' for Active; 'I' for Inactive)
REMARK    1  A    between atoms: C_4  and  N_11
REMARK    2  A    between atoms: C_5  and  C_7
REMARK    3  A    between atoms: C_12  and  C_14
REMARK    4  A    between atoms: C_14  and  O_15
REMARK    5  A    between atoms: O_15  and  C_16
REMARK    6  A    between atoms: C_19  and  C_23
REMARK    7  A    between atoms: C_23  and  N_59
REMARK    8  A    between atoms: N_26  and  C_29
REMARK                            x       y       z     vdW  Elec       q    Type
REMARK                         _______ _______ _______ _____ _____    ______ ____
ROOT
ATOM      1  C   UNL     1      -7.210  -0.419  -0.350  0.00  0.00    +0.202 A 
ATOM      2  C   UNL     1      -7.416   0.916  -0.351  0.00  0.00    +0.244 A 
ATOM      3  O   UNL     1      -8.654   1.420  -0.449  0.00  0.00    -0.466 OA
ATOM      4  C   UNL     1      -9.735   0.637  -0.538  0.00  0.00    +0.092 A 
ATOM      5  C   UNL     1      -9.621  -0.707  -0.539  0.00  0.00    +0.094 A 
ATOM      6  C   UNL     1      -8.332  -1.288  -0.443  0.00  0.00    +0.226 A 
ATOM      7  O   UNL     1      -8.190  -2.501  -0.440  0.00  0.00    -0.284 OA
ENDROOT
BRANCH   1   8
ATOM      8  O   UNL     1      -5.950  -0.925  -0.255  0.00  0.00    -0.476 OA
BRANCH   8   9
ATOM      9  C   UNL     1      -4.878   0.016  -0.166  0.00  0.00    +0.325 C 
BRANCH   9  11
ATOM     10  N   UNL     1      -2.413  -0.035   0.025  0.00  0.00    -0.282 N 
ATOM     11  C   UNL     1      -3.568  -0.722  -0.069  0.00  0.00    +0.255 C 
ATOM     12  O   UNL     1      -3.554  -1.935  -0.076  0.00  0.00    -0.272 OA
ATOM     13  H   UNL     1      -2.429   0.931   0.112  0.00  0.00    +0.155 HD
BRANCH  10  17
ATOM     14  C   UNL     1       1.228  -2.059  -0.054  0.00  0.00    +0.001 A 
ATOM     15  C   UNL     1       0.111  -2.624  -0.642  0.00  0.00    +0.002 A 
ATOM     16  C   UNL     1      -1.097  -1.956  -0.618  0.00  0.00    +0.024 A 
ATOM     17  C   UNL     1      -1.190  -0.714  -0.002  0.00  0.00    +0.045 A 
ATOM     18  C   UNL     1      -0.067  -0.150   0.588  0.00  0.00    +0.076 A 
ATOM     19  C   UNL     1       1.140  -0.821   0.555  0.00  0.00    +0.014 A 
BRANCH  18  20
ATOM     20  C   UNL     1      -0.163   1.197   1.258  0.00  0.00    +0.419 C 
ATOM     21  F   UNL     1       1.088   1.552   1.773  0.00  0.00    -0.166 F 
ATOM     22  F   UNL     1      -0.571   2.155   0.323  0.00  0.00    -0.166 F 
ATOM     23  F   UNL     1      -1.096   1.135   2.299  0.00  0.00    -0.166 F 
ENDBRANCH  18  20
ENDBRANCH  10  17
ENDBRANCH   9  11
ENDBRANCH   8   9
ENDBRANCH   1   8
BRANCH   4  24
ATOM     24  C   UNL     1     -11.100   1.266  -0.641  0.00  0.00    -0.003 C 
BRANCH  24  30
ATOM     25  C   UNL     1     -11.913   0.172   1.361  0.00  0.00    -0.059 C 
ATOM     26  C   UNL     1     -12.410   0.417   2.787  0.00  0.00    +0.086 C 
ATOM     27  N   UNL     1     -13.628   1.238   2.744  0.00  0.00    -0.333 N 
ATOM     28  C   UNL     1     -13.367   2.528   2.090  0.00  0.00    +0.086 C 
ATOM     29  C   UNL     1     -12.870   2.283   0.664  0.00  0.00    -0.059 C 
ATOM     30  N   UNL     1     -11.633   1.475   0.723  0.00  0.00    +0.386 N 
ATOM     31  H   UNL     1     -10.933   1.977   1.281  0.00  0.00    -0.081 HD
BRANCH  27  32
ATOM     32  C   UNL     1     -14.152   1.424   4.026  0.00  0.00    +0.031 A 
ATOM     33  C   UNL     1     -14.352   2.708   4.517  0.00  0.00    +0.023 A 
ATOM     34  C   UNL     1     -14.876   2.889   5.782  0.00  0.00    +0.003 A 
ATOM     35  C   UNL     1     -15.191   1.793   6.564  0.00  0.00    +0.020 A 
ATOM     36  C   UNL     1     -14.988   0.512   6.081  0.00  0.00    +0.043 A 
ATOM     37  C   UNL     1     -14.469   0.325   4.813  0.00  0.00    +0.043 A 
ATOM     38 CL   UNL     1     -15.384  -0.860   7.067  0.00  0.00    -0.083 Cl
ENDBRANCH  27  32
ENDBRANCH  24  30
ENDBRANCH   4  24
TORSDOF 8
