REMARK  Name = ZINC39946873
REMARK  7 active torsions:
REMARK  status: ('A' for Active; 'I' for Inactive)
REMARK    1  A    between atoms: C_1  and  C_2
REMARK    2  A    between atoms: C_1  and  O_26
REMARK    3  A    between atoms: C_4  and  O_25
REMARK    4  A    between atoms: C_6  and  O_24
REMARK    5  A    between atoms: C_8  and  N_11
REMARK    6  A    between atoms: C_18  and  N_22
REMARK    7  A    between atoms: O_26  and  P_27
REMARK                            x       y       z     vdW  Elec       q    Type
REMARK                         _______ _______ _______ _____ _____    ______ ____
ROOT
ATOM      1  C   UNL     1       0.075   0.025  -0.039  0.00  0.00    +0.178 C 
ATOM      2  C   UNL     1      -1.372  -0.498   0.105  0.00  0.00    +0.178 C 
ATOM      3  C   UNL     1      -1.403  -1.763  -0.783  0.00  0.00    +0.193 C 
ATOM      4  C   UNL     1       0.028  -1.854  -1.358  0.00  0.00    +0.241 C 
ATOM      5  O   UNL     1       0.537  -0.502  -1.302  0.00  0.00    -0.348 OA
ENDROOT
BRANCH   4   6
ATOM      6  N   UNL     1       0.852  -2.743  -0.536  0.00  0.00    -0.254 N 
ATOM      7  C   UNL     1       1.863  -2.343   0.454  0.00  0.00    +0.264 C 
ATOM      8  N   UNL     1       2.416  -3.582   1.012  0.00  0.00    -0.242 NA
ATOM      9  C   UNL     1       1.834  -4.586   0.453  0.00  0.00    +0.165 C 
ATOM     10  C   UNL     1       0.830  -4.107  -0.532  0.00  0.00    +0.159 C 
ATOM     11  N   UNL     1       0.134  -5.006  -1.196  0.00  0.00    -0.198 NA
ATOM     12  C   UNL     1       0.310  -6.313  -1.000  0.00  0.00    +0.226 C 
ATOM     13  N   UNL     1       1.173  -6.834  -0.147  0.00  0.00    -0.141 NA
ATOM     14  C   UNL     1       1.971  -6.065   0.605  0.00  0.00    +0.291 C 
ATOM     15  O   UNL     1       2.764  -6.551   1.391  0.00  0.00    -0.266 OA
ATOM     16 BR   UNL     1       3.285  -1.303  -0.419  0.00  0.00    -0.041 Br
BRANCH  12  17
ATOM     17  N   UNL     1      -0.459  -7.177  -1.736  0.00  0.00    -0.234 NA
ATOM     18  H   UNL     1      -0.358  -8.135  -1.620  0.00  0.00    +0.173 HD
ENDBRANCH  12  17
ENDBRANCH   4   6
BRANCH   3  19
ATOM     19  O   UNL     1      -1.704  -2.918   0.003  0.00  0.00    -0.385 OA
ATOM     20  H   UNL     1      -2.568  -2.885   0.435  0.00  0.00    +0.210 HD
ENDBRANCH   3  19
BRANCH   2  21
ATOM     21  O   UNL     1      -2.305   0.473  -0.370  0.00  0.00    -0.386 OA
ATOM     22  H   UNL     1      -3.230   0.196  -0.303  0.00  0.00    +0.210 HD
ENDBRANCH   2  21
BRANCH   1  23
ATOM     23  C   UNL     1       0.087   1.555  -0.064  0.00  0.00    +0.206 C 
BRANCH  23  24
ATOM     24  O   UNL     1       1.438   2.019  -0.117  0.00  0.00    -0.281 OA
BRANCH  24  25
ATOM     25  P   UNL     1       1.827   3.581  -0.155  0.00  0.00    +0.532 P 
ATOM     26  O   UNL     1       1.091   4.274  -1.352  0.00  0.00    -0.222 OA
ATOM     27  O   UNL     1       1.392   4.261   1.188  0.00  0.00    -0.115 OA
ATOM     28  O   UNL     1       3.376   3.729  -0.338  0.00  0.00    -0.115 OA
ENDBRANCH  24  25
ENDBRANCH  23  24
ENDBRANCH   1  23
TORSDOF 7
