REMARK  Name = ZINC19376343
REMARK  5 active torsions:
REMARK  status: ('A' for Active; 'I' for Inactive)
REMARK    1  A    between atoms: N_15  and  C_18
REMARK    2  A    between atoms: C_18  and  C_19
REMARK    3  A    between atoms: C_19  and  C_21
REMARK    4  A    between atoms: C_19  and  O_29
REMARK    5  A    between atoms: C_31  and  O_33
REMARK                            x       y       z     vdW  Elec       q    Type
REMARK                         _______ _______ _______ _____ _____    ______ ____
ROOT
ATOM      1  C   UNL     1      -5.100  -3.520   5.553  0.00  0.00    +0.001 A 
ATOM      2  C   UNL     1      -4.866  -2.217   5.117  0.00  0.00    +0.001 A 
ATOM      3  C   UNL     1      -3.618  -1.676   5.161  0.00  0.00    +0.012 A 
ATOM      4  C   UNL     1      -2.547  -2.441   5.651  0.00  0.00    +0.024 A 
ATOM      5  C   UNL     1      -2.783  -3.765   6.092  0.00  0.00    -0.014 A 
ATOM      6  C   UNL     1      -4.086  -4.289   6.035  0.00  0.00    +0.008 A 
ATOM      7  C   UNL     1      -1.708  -4.529   6.577  0.00  0.00    +0.009 A 
ATOM      8  C   UNL     1      -0.461  -3.989   6.609  0.00  0.00    +0.010 A 
ATOM      9  C   UNL     1      -0.218  -2.683   6.175  0.00  0.00    +0.023 A 
ATOM     10  C   UNL     1      -1.238  -1.909   5.708  0.00  0.00    +0.135 A 
ATOM     11  O   UNL     1      -1.045  -0.629   5.299  0.00  0.00    -0.485 OA
ATOM     12  C   UNL     1       0.286  -0.205   5.016  0.00  0.00    +0.110 C 
ATOM     13  C   UNL     1       0.328   1.317   4.872  0.00  0.00    +0.029 C 
ATOM     14  C   UNL     1      -0.530   1.734   3.675  0.00  0.00    -0.075 C 
ATOM     15  N   UNL     1      -0.018   1.093   2.457  0.00  0.00    +0.382 N 
ATOM     16  C   UNL     1      -0.096  -0.370   2.554  0.00  0.00    -0.075 C 
ATOM     17  C   UNL     1       0.774  -0.853   3.718  0.00  0.00    +0.029 C 
ATOM     18  C   UNL     1       1.192  -0.634   6.175  0.00  0.00    +0.084 C 
ATOM     19  C   UNL     1       1.197  -2.163   6.240  0.00  0.00    +0.152 C 
ATOM     20  H   UNL     1       1.042   1.366   2.355  0.00  0.00    -0.082 HD
ENDROOT
BRANCH  19  21
ATOM     21  O   UNL     1       1.802  -2.584   7.465  0.00  0.00    -0.387 OA
ATOM     22  H   UNL     1       2.839  -2.299   7.692  0.00  0.00    +0.210 HD
ENDBRANCH  19  21
BRANCH  15  23
ATOM     23  C   UNL     1      -0.729   1.579   1.267  0.00  0.00    -0.042 C 
BRANCH  23  24
ATOM     24  C   UNL     1      -0.013   1.086   0.008  0.00  0.00    +0.128 C 
BRANCH  24  25
ATOM     25  C   UNL     1      -0.742   1.585  -1.213  0.00  0.00    -0.018 A 
ATOM     26  C   UNL     1      -0.474   2.847  -1.709  0.00  0.00    +0.009 A 
ATOM     27  C   UNL     1      -1.137   3.305  -2.832  0.00  0.00    +0.041 A 
ATOM     28  C   UNL     1      -2.078   2.504  -3.454  0.00  0.00    +0.158 A 
ATOM     29  C   UNL     1      -2.351   1.240  -2.954  0.00  0.00    +0.159 A 
ATOM     30  C   UNL     1      -1.681   0.783  -1.832  0.00  0.00    +0.047 A 
ATOM     31  F   UNL     1      -3.269   0.456  -3.560  0.00  0.00    -0.202 F 
ATOM     32  F   UNL     1      -2.731   2.953  -4.549  0.00  0.00    -0.202 F 
ENDBRANCH  24  25
BRANCH  24  33
ATOM     33  O   UNL     1       1.328   1.580  -0.002  0.00  0.00    -0.389 OA
ATOM     34  H   UNL     1       2.001   1.328  -0.835  0.00  0.00    +0.210 HD
ENDBRANCH  24  33
ENDBRANCH  23  24
ENDBRANCH  15  23
TORSDOF 5
