REMARK  Name = ZINC51045901
REMARK  10 active torsions:
REMARK  status: ('A' for Active; 'I' for Inactive)
REMARK    1  A    between atoms: C_1  and  C_2
REMARK    2  A    between atoms: C_2  and  C_3
REMARK    3  A    between atoms: C_2  and  C_4
REMARK    4  A    between atoms: C_4  and  N_5
REMARK    5  A    between atoms: C_6  and  N_29
REMARK    6  A    between atoms: C_7  and  C_14
REMARK    7  A    between atoms: C_14  and  C_16
REMARK    8  A    between atoms: C_16  and  N_17
REMARK    9  A    between atoms: C_21  and  C_23
REMARK   10  A    between atoms: N_25  and  C_26
REMARK                            x       y       z     vdW  Elec       q    Type
REMARK                         _______ _______ _______ _____ _____    ______ ____
ROOT
ATOM      1  N   UNL     1      -2.063  -0.312  -1.321  0.00  0.00    -0.281 N 
ATOM      2  C   UNL     1      -2.697   0.891  -1.189  0.00  0.00    +0.116 A 
ATOM      3  C   UNL     1      -3.383   1.423  -2.295  0.00  0.00    +0.121 A 
ATOM      4  C   UNL     1      -3.380   0.647  -3.542  0.00  0.00    +0.266 A 
ATOM      5  O   UNL     1      -3.957   1.059  -4.531  0.00  0.00    -0.267 OA
ATOM      6  N   UNL     1      -2.723  -0.531  -3.569  0.00  0.00    -0.274 N 
ATOM      7  H   UNL     1      -2.712  -1.054  -4.386  0.00  0.00    +0.173 HD
ATOM      8  C   UNL     1      -2.080  -0.986  -2.482  0.00  0.00    +0.331 A 
ATOM      9  O   UNL     1      -1.497  -2.050  -2.549  0.00  0.00    -0.246 OA
ENDROOT
BRANCH   2  10
ATOM     10  N   UNL     1      -2.664   1.563  -0.007  0.00  0.00    -0.344 N 
ATOM     11  H   UNL     1      -2.263   1.152   0.774  0.00  0.00    +0.144 HD
ATOM     12  H   UNL     1      -3.044   2.454   0.055  0.00  0.00    +0.144 HD
ENDBRANCH   2  10
BRANCH   3  13
ATOM     13  C   UNL     1      -4.053   2.661  -2.209  0.00  0.00    +0.185 C 
ATOM     14  O   UNL     1      -3.954   3.337  -1.205  0.00  0.00    -0.290 OA
BRANCH  13  15
ATOM     15  C   UNL     1      -4.893   3.145  -3.363  0.00  0.00    +0.164 C 
BRANCH  15  16
ATOM     16  N   UNL     1      -5.480   4.449  -3.028  0.00  0.00    -0.294 NA
ATOM     17  C   UNL     1      -4.439   5.476  -2.892  0.00  0.00    +0.085 C 
ATOM     18  C   UNL     1      -5.069   6.782  -2.403  0.00  0.00    +0.016 C 
ATOM     19  C   UNL     1      -6.133   7.237  -3.406  0.00  0.00    +0.015 C 
ATOM     20  C   UNL     1      -7.179   6.130  -3.566  0.00  0.00    +0.089 C 
ATOM     21  C   UNL     1      -6.488   4.843  -4.021  0.00  0.00    +0.097 C 
BRANCH  20  22
ATOM     22  C   UNL     1      -8.198   6.546  -4.596  0.00  0.00    +0.218 C 
ATOM     23  O   UNL     1      -8.358   5.877  -5.594  0.00  0.00    -0.275 OA
ATOM     24  N   UNL     1      -8.931   7.661  -4.407  0.00  0.00    -0.312 N 
ATOM     25  H   UNL     1      -8.802   8.197  -3.608  0.00  0.00    +0.149 HD
BRANCH  24  26
ATOM     26  C   UNL     1      -9.921   8.065  -5.408  0.00  0.00    +0.073 C 
ATOM     27  C   UNL     1      -9.979   9.547  -5.787  0.00  0.00    +0.024 C 
ATOM     28  C   UNL     1     -11.091   8.931  -4.935  0.00  0.00    +0.024 C 
ENDBRANCH  24  26
ENDBRANCH  20  22
ENDBRANCH  15  16
ENDBRANCH  13  15
ENDBRANCH   3  13
BRANCH   1  29
ATOM     29  C   UNL     1      -1.345  -0.874  -0.175  0.00  0.00    +0.131 C 
BRANCH  29  31
ATOM     30  C   UNL     1       0.135   1.130   0.016  0.00  0.00    +0.009 C 
ATOM     31  C   UNL     1       0.105  -0.385  -0.192  0.00  0.00    +0.003 C 
ATOM     32  C   UNL     1       0.887  -1.069   0.931  0.00  0.00    +0.009 C 
ENDBRANCH  29  31
ENDBRANCH   1  29
TORSDOF 8
