REMARK  Name = ZINC67381597
REMARK  11 active torsions:
REMARK  status: ('A' for Active; 'I' for Inactive)
REMARK    1  A    between atoms: C_1  and  C_2
REMARK    2  A    between atoms: C_2  and  C_4
REMARK    3  A    between atoms: C_2  and  N_15
REMARK    4  A    between atoms: C_8  and  S_10
REMARK    5  A    between atoms: S_10  and  N_13
REMARK    6  A    between atoms: N_13  and  C_14
REMARK    7  A    between atoms: N_18  and  C_19
REMARK    8  A    between atoms: C_19  and  C_20
REMARK    9  A    between atoms: C_20  and  N_26
REMARK   10  A    between atoms: N_26  and  C_27
REMARK   11  A    between atoms: N_26  and  C_28
REMARK                            x       y       z     vdW  Elec       q    Type
REMARK                         _______ _______ _______ _____ _____    ______ ____
ROOT
ATOM      1  N   UNL     1       0.488  -0.342  -1.495  0.00  0.00    -0.293 N 
ATOM      2  C   UNL     1       1.830  -0.447  -1.446  0.00  0.00    +0.300 C 
ATOM      3  O   UNL     1       2.429  -0.124  -0.438  0.00  0.00    -0.253 OA
ATOM      4  N   UNL     1       2.510  -0.908  -2.515  0.00  0.00    -0.301 N 
ATOM      5  H   UNL     1       0.010  -0.599  -2.299  0.00  0.00    +0.151 HD
ATOM      6  H   UNL     1       2.032  -1.166  -3.319  0.00  0.00    +0.150 HD
ENDROOT
BRANCH   1   8
ATOM      7  C   UNL     1      -0.277   1.690  -0.368  0.00  0.00    +0.033 C 
ATOM      8  C   UNL     1      -0.251   0.160  -0.334  0.00  0.00    +0.102 C 
BRANCH   8   9
ATOM      9  C   UNL     1      -1.662  -0.368  -0.369  0.00  0.00    -0.026 A 
ATOM     10  C   UNL     1      -2.341  -0.447  -1.571  0.00  0.00    +0.005 A 
ATOM     11  C   UNL     1      -3.635  -0.930  -1.603  0.00  0.00    +0.002 A 
ATOM     12  C   UNL     1      -4.250  -1.336  -0.434  0.00  0.00    +0.028 A 
ATOM     13  C   UNL     1      -3.572  -1.258   0.767  0.00  0.00    +0.106 A 
ATOM     14  C   UNL     1      -2.276  -0.778   0.799  0.00  0.00    +0.034 A 
BRANCH  13  15
ATOM     15  S   UNL     1      -4.357  -1.775   2.258  0.00  0.00    +0.058 S 
ATOM     16  O   UNL     1      -3.704  -1.092   3.319  0.00  0.00    -0.153 OA
ATOM     17  O   UNL     1      -5.757  -1.676   2.035  0.00  0.00    -0.153 OA
BRANCH  15  18
ATOM     18  N   UNL     1      -4.022  -3.385   2.455  0.00  0.00    -0.193 NA
ATOM     19  C   UNL     1      -2.643  -3.824   2.680  0.00  0.00    +0.127 C 
ATOM     20  H   UNL     1      -4.739  -4.037   2.421  0.00  0.00    +0.148 HD
ENDBRANCH  15  18
ENDBRANCH  13  15
ENDBRANCH   8   9
ENDBRANCH   1   8
BRANCH   4  21
ATOM     21  C   UNL     1       3.969  -1.022  -2.462  0.00  0.00    +0.094 C 
BRANCH  21  22
ATOM     22  C   UNL     1       4.475  -1.700  -3.737  0.00  0.00    -0.050 C 
ATOM     23  C   UNL     1       5.983  -1.935  -3.626  0.00  0.00    -0.010 C 
ATOM     24  C   UNL     1       6.696  -0.594  -3.443  0.00  0.00    -0.001 C 
ATOM     25  C   UNL     1       6.408   0.305  -4.648  0.00  0.00    -0.000 C 
ATOM     26  C   UNL     1       4.900   0.540  -4.759  0.00  0.00    -0.001 C 
ATOM     27  C   UNL     1       4.187  -0.801  -4.941  0.00  0.00    -0.010 C 
BRANCH  22  28
ATOM     28  N   UNL     1       3.790  -2.987  -3.912  0.00  0.00    +0.381 N 
ATOM     29  C   UNL     1       4.301  -3.654  -5.117  0.00  0.00    -0.096 C 
ATOM     30  C   UNL     1       4.038  -3.837  -2.739  0.00  0.00    -0.096 C 
ATOM     31  H   UNL     1       2.798  -2.830  -4.009  0.00  0.00    -0.082 HD
ENDBRANCH  22  28
ENDBRANCH  21  22
ENDBRANCH   4  21
TORSDOF 7
