REMARK  Name = ZINC25795671
REMARK  10 active torsions:
REMARK  status: ('A' for Active; 'I' for Inactive)
REMARK    1  A    between atoms: C_1  and  C_2
REMARK    2  A    between atoms: C_8  and  N_10
REMARK    3  A    between atoms: C_11  and  C_13
REMARK    4  A    between atoms: C_13  and  N_14
REMARK    5  A    between atoms: N_14  and  C_15
REMARK    6  A    between atoms: N_14  and  C_16
REMARK    7  A    between atoms: C_16  and  C_18
REMARK    8  A    between atoms: C_16  and  C_19
REMARK    9  A    between atoms: C_22  and  S_25
REMARK   10  A    between atoms: S_25  and  N_28
REMARK                            x       y       z     vdW  Elec       q    Type
REMARK                         _______ _______ _______ _____ _____    ______ ____
ROOT
ATOM      1  N   UNL     1      -4.667   0.783   3.843  0.00  0.00    +0.388 N 
ATOM      2  C   UNL     1      -4.787   2.128   4.421  0.00  0.00    -0.095 C 
ATOM      3  H   UNL     1      -3.929   0.224   4.436  0.00  0.00    -0.081 HD
ENDROOT
BRANCH   1   4
ATOM      4  C   UNL     1      -5.945   0.062   3.918  0.00  0.00    -0.041 C 
ATOM      5  C   UNL     1      -5.758  -1.365   3.398  0.00  0.00    -0.008 C 
BRANCH   4   6
ATOM      6  C   UNL     1      -6.413   0.017   5.350  0.00  0.00    -0.061 A 
ATOM      7  C   UNL     1      -5.504  -0.203   6.367  0.00  0.00    +0.004 A 
ATOM      8  C   UNL     1      -5.933  -0.239   7.681  0.00  0.00    +0.029 A 
ATOM      9  C   UNL     1      -7.272  -0.065   7.976  0.00  0.00    +0.105 A 
ATOM     10  C   UNL     1      -8.182   0.149   6.958  0.00  0.00    +0.029 A 
ATOM     11  C   UNL     1      -7.753   0.191   5.645  0.00  0.00    +0.004 A 
BRANCH   9  12
ATOM     12  S   UNL     1      -7.819  -0.118   9.650  0.00  0.00    +0.056 S 
ATOM     13  O   UNL     1      -6.696   0.212  10.455  0.00  0.00    -0.153 OA
ATOM     14  O   UNL     1      -9.036   0.616   9.703  0.00  0.00    -0.153 OA
BRANCH  12  15
ATOM     15  N   UNL     1      -8.201  -1.692   9.992  0.00  0.00    -0.204 NA
ATOM     16  H   UNL     1      -8.549  -1.768  11.032  0.00  0.00    +0.144 HD
ATOM     17  H   UNL     1      -7.310  -2.323   9.856  0.00  0.00    +0.144 HD
ENDBRANCH  12  15
ENDBRANCH   9  12
ENDBRANCH   4   6
ENDBRANCH   1   4
BRANCH   1  18
ATOM     18  C   UNL     1      -4.179   0.846   2.459  0.00  0.00    +0.019 C 
BRANCH  18  20
ATOM     19  N   UNL     1      -2.109   1.512   1.280  0.00  0.00    -0.314 N 
ATOM     20  C   UNL     1      -2.765   1.368   2.448  0.00  0.00    +0.197 C 
ATOM     21  O   UNL     1      -2.218   1.658   3.491  0.00  0.00    -0.278 OA
ATOM     22  H   UNL     1      -2.606   1.249   0.334  0.00  0.00    +0.149 HD
BRANCH  19  29
ATOM     23  C   UNL     1       0.002  -0.004   0.002  0.00  0.00    +0.009 C 
ATOM     24  C   UNL     1      -0.019   1.526   0.010  0.00  0.00    +0.006 C 
ATOM     25  C   UNL     1       1.417   2.055  -0.000  0.00  0.00    +0.005 C 
ATOM     26  C   UNL     1       1.396   3.585   0.008  0.00  0.00    +0.000 C 
ATOM     27  C   UNL     1       0.680   4.079   1.267  0.00  0.00    +0.002 C 
ATOM     28  C   UNL     1      -0.756   3.549   1.278  0.00  0.00    +0.022 C 
ATOM     29  C   UNL     1      -0.735   2.019   1.269  0.00  0.00    +0.076 C 
ENDBRANCH  19  29
ENDBRANCH  18  20
ENDBRANCH   1  18
TORSDOF 7
