REMARK  Name = ZINC64340459
REMARK  7 active torsions:
REMARK  status: ('A' for Active; 'I' for Inactive)
REMARK    1  A    between atoms: C_2  and  C_3
REMARK    2  A    between atoms: C_3  and  N_4
REMARK    3  A    between atoms: C_5  and  C_7
REMARK    4  A    between atoms: C_7  and  C_9
REMARK    5  A    between atoms: C_7  and  N_19
REMARK    6  A    between atoms: C_9  and  C_10
REMARK    7  A    between atoms: C_20  and  C_22
REMARK                            x       y       z     vdW  Elec       q    Type
REMARK                         _______ _______ _______ _____ _____    ______ ____
ROOT
ATOM      1  C   UNL     1       2.999   3.825  -0.006  0.00  0.00    +0.163 C 
ENDROOT
BRANCH   1   3
ATOM      2  N   UNL     1       1.357   1.975  -0.000  0.00  0.00    -0.303 N 
ATOM      3  C   UNL     1       1.585   3.303   0.005  0.00  0.00    +0.234 C 
ATOM      4  O   UNL     1       0.652   4.079   0.018  0.00  0.00    -0.274 OA
ATOM      5  H   UNL     1       2.102   1.355  -0.011  0.00  0.00    +0.150 HD
BRANCH   2   6
ATOM      6  C   UNL     1      -0.018   1.468   0.010  0.00  0.00    +0.193 C 
BRANCH   6   8
ATOM      7  C   UNL     1       0.018  -1.178  -0.004  0.00  0.00    +0.005 C 
ATOM      8  C   UNL     1       0.002  -0.004   0.002  0.00  0.00    -0.087 C 
ENDBRANCH   6   8
ENDBRANCH   2   6
ENDBRANCH   1   3
BRANCH   1   9
ATOM      9  N   UNL     1       3.003   5.214  -0.471  0.00  0.00    -0.299 N 
ATOM     10  C   UNL     1       2.314   6.154   0.207  0.00  0.00    +0.251 C 
ATOM     11  O   UNL     1       1.689   5.848   1.205  0.00  0.00    -0.270 OA
ATOM     12  H   UNL     1       3.502   5.457  -1.267  0.00  0.00    +0.150 HD
BRANCH  10  13
ATOM     13  C   UNL     1       2.319   7.544  -0.259  0.00  0.00    +0.074 A 
ATOM     14  C   UNL     1       1.689   8.651   0.289  0.00  0.00    +0.021 A 
ATOM     15  C   UNL     1       1.879   9.837  -0.378  0.00  0.00    +0.008 A 
ATOM     16  C   UNL     1       2.647   9.849  -1.496  0.00  0.00    +0.046 A 
ATOM     17  S   UNL     1       3.142   8.253  -1.672  0.00  0.00    -0.092 S 
ENDBRANCH  10  13
ENDBRANCH   1   9
BRANCH   1  18
ATOM     18  C   UNL     1       3.577   3.759   1.409  0.00  0.00    +0.065 C 
BRANCH  18  19
ATOM     19  C   UNL     1       5.029   4.164   1.377  0.00  0.00    -0.039 C 
ATOM     20  C   UNL     1       5.535   5.394   1.623  0.00  0.00    -0.001 A 
ATOM     21  C   UNL     1       4.910   6.674   1.977  0.00  0.00    +0.010 A 
ATOM     22  C   UNL     1       5.696   7.758   2.163  0.00  0.00    +0.001 A 
ATOM     23  C   UNL     1       7.089   7.691   2.025  0.00  0.00    +0.002 A 
ATOM     24  C   UNL     1       7.736   6.551   1.702  0.00  0.00    +0.026 A 
ATOM     25  C   UNL     1       7.008   5.349   1.484  0.00  0.00    +0.043 A 
ATOM     26  N   UNL     1       7.397   4.138   1.165  0.00  0.00    -0.380 N 
ATOM     27  C   UNL     1       6.214   3.276   1.072  0.00  0.00    +0.144 C 
ATOM     28  H   UNL     1       8.315   3.859   1.020  0.00  0.00    +0.160 HD
ENDBRANCH  18  19
ENDBRANCH   1  18
TORSDOF 7
