REMARK  Name = ZINC39627531
REMARK  10 active torsions:
REMARK  status: ('A' for Active; 'I' for Inactive)
REMARK    1  A    between atoms: C_1  and  N_2
REMARK    2  A    between atoms: N_2  and  C_3
REMARK    3  A    between atoms: N_2  and  C_4
REMARK    4  A    between atoms: C_4  and  C_5
REMARK    5  A    between atoms: C_5  and  C_6
REMARK    6  A    between atoms: C_6  and  N_7
REMARK    7  A    between atoms: C_8  and  C_10
REMARK    8  A    between atoms: C_21  and  C_23
REMARK    9  A    between atoms: C_25  and  O_30
REMARK   10  A    between atoms: O_30  and  C_31
REMARK                            x       y       z     vdW  Elec       q    Type
REMARK                         _______ _______ _______ _____ _____    ______ ____
ROOT
ATOM      1  C   UNL     1      -6.189  -0.511  -4.601  0.00  0.00    +0.100 C 
ATOM      2  C   UNL     1      -6.291   1.021  -4.427  0.00  0.00    +0.121 C 
ATOM      3  N   UNL     1      -7.663   1.358  -4.875  0.00  0.00    -0.296 N 
ATOM      4  C   UNL     1      -8.503   0.253  -4.356  0.00  0.00    +0.115 C 
ATOM      5  C   UNL     1      -7.643  -1.012  -4.553  0.00  0.00    -0.004 C 
ATOM      6  C   UNL     1      -7.834  -1.967  -3.379  0.00  0.00    -0.010 C 
ATOM      7  C   UNL     1      -9.271  -2.497  -3.387  0.00  0.00    -0.082 C 
ATOM      8  N   UNL     1      -9.533  -3.189  -4.655  0.00  0.00    +0.379 N 
ATOM      9  C   UNL     1      -9.438  -2.240  -5.771  0.00  0.00    -0.082 C 
ATOM     10  C   UNL     1      -8.008  -1.700  -5.864  0.00  0.00    -0.010 C 
ATOM     11  C   UNL     1      -8.057   2.428  -5.594  0.00  0.00    +0.248 C 
ATOM     12  O   UNL     1      -9.240   2.617  -5.803  0.00  0.00    -0.270 OA
ATOM     13  H   UNL     1      -8.854  -3.924  -4.781  0.00  0.00    -0.086 HD
ATOM     14  H   UNL     1     -10.458  -3.589  -4.633  0.00  0.00    -0.086 HD
ENDROOT
BRANCH  11  15
ATOM     15  C   UNL     1      -7.052   3.372  -6.127  0.00  0.00    +0.054 A 
ATOM     16  C   UNL     1      -5.906   3.666  -5.387  0.00  0.00    +0.059 A 
ATOM     17  C   UNL     1      -4.969   4.550  -5.893  0.00  0.00    +0.121 A 
ATOM     18  C   UNL     1      -5.169   5.142  -7.133  0.00  0.00    +0.047 A 
ATOM     19  C   UNL     1      -6.304   4.852  -7.868  0.00  0.00    +0.019 A 
ATOM     20  C   UNL     1      -7.243   3.967  -7.375  0.00  0.00    +0.030 A 
ATOM     21 BR   UNL     1      -8.790   3.569  -8.388  0.00  0.00    -0.050 Br
BRANCH  17  22
ATOM     22  O   UNL     1      -3.851   4.839  -5.175  0.00  0.00    -0.495 OA
ATOM     23  C   UNL     1      -2.927   5.760  -5.758  0.00  0.00    +0.277 C 
ENDBRANCH  17  22
ENDBRANCH  11  15
BRANCH   1  25
ATOM     24  N   UNL     1      -4.687  -2.247  -3.679  0.00  0.00    -0.315 N 
ATOM     25  C   UNL     1      -5.389  -1.115  -3.475  0.00  0.00    +0.218 C 
ATOM     26  O   UNL     1      -5.377  -0.581  -2.386  0.00  0.00    -0.275 OA
ATOM     27  H   UNL     1      -4.697  -2.674  -4.550  0.00  0.00    +0.149 HD
BRANCH  24  28
ATOM     28  C   UNL     1      -3.909  -2.834  -2.585  0.00  0.00    +0.102 C 
BRANCH  28  29
ATOM     29  C   UNL     1      -3.214  -4.104  -3.079  0.00  0.00    +0.000 C 
BRANCH  29  30
ATOM     30  C   UNL     1      -2.401  -4.717  -1.936  0.00  0.00    -0.078 C 
BRANCH  30  32
ATOM     31  C   UNL     1      -0.749  -5.586  -3.442  0.00  0.00    -0.097 C 
ATOM     32  N   UNL     1      -1.733  -5.937  -2.410  0.00  0.00    +0.376 N 
ATOM     33  C   UNL     1      -1.051  -6.590  -1.284  0.00  0.00    -0.097 C 
ATOM     34  H   UNL     1      -2.419  -6.566  -2.799  0.00  0.00    -0.083 HD
ENDBRANCH  30  32
ENDBRANCH  29  30
ENDBRANCH  28  29
ENDBRANCH  24  28
ENDBRANCH   1  25
TORSDOF 7
