REMARK  Name = ZINC31808870
REMARK  4 active torsions:
REMARK  status: ('A' for Active; 'I' for Inactive)
REMARK    1  A    between atoms: C_1  and  C_2
REMARK    2  A    between atoms: C_2  and  C_3
REMARK    3  A    between atoms: C_2  and  C_4
REMARK    4  A    between atoms: C_4  and  N_5
REMARK                            x       y       z     vdW  Elec       q    Type
REMARK                         _______ _______ _______ _____ _____    ______ ____
ROOT
ATOM      1  N   UNL     1       1.989  -0.050  -1.089  0.00  0.00    -0.268 N 
ATOM      2  C   UNL     1       2.367   1.241  -1.417  0.00  0.00    +0.059 A 
ATOM      3  C   UNL     1       3.738   1.419  -1.193  0.00  0.00    -0.005 A 
ATOM      4  C   UNL     1       4.372   2.617  -1.439  0.00  0.00    +0.007 A 
ATOM      5  C   UNL     1       3.589   3.659  -1.926  0.00  0.00    +0.002 A 
ATOM      6  C   UNL     1       2.238   3.497  -2.151  0.00  0.00    +0.022 A 
ATOM      7  C   UNL     1       1.591   2.294  -1.906  0.00  0.00    +0.063 A 
ATOM      8 CL   UNL     1      -0.110   2.107  -2.195  0.00  0.00    -0.082 Cl
ATOM      9  C   UNL     1       4.249   0.111  -0.679  0.00  0.00    +0.112 C 
ATOM     10  C   UNL     1       3.029  -0.783  -0.642  0.00  0.00    +0.235 C 
ATOM     11  O   UNL     1       2.994  -1.941  -0.281  0.00  0.00    -0.274 OA
ATOM     12  C   UNL     1       5.308  -0.474  -1.612  0.00  0.00    +0.122 C 
ATOM     13  C   UNL     1       6.651   0.160  -1.377  0.00  0.00    +0.220 C 
ATOM     14  O   UNL     1       7.373   0.374  -2.327  0.00  0.00    -0.275 OA
ATOM     15  N   UNL     1       7.078   0.498  -0.142  0.00  0.00    -0.270 N 
ATOM     16  C   UNL     1       6.170   0.436   0.914  0.00  0.00    +0.125 A 
ATOM     17  C   UNL     1       4.827   0.253   0.701  0.00  0.00    +0.032 A 
ATOM     18  C   UNL     1       4.198   0.233   1.937  0.00  0.00    +0.141 A 
ATOM     19  N   UNL     1       5.112   0.406   2.864  0.00  0.00    -0.180 NA
ATOM     20  N   UNL     1       6.360   0.545   2.236  0.00  0.00    -0.264 N 
ATOM     21  H   UNL     1       7.210   0.694   2.681  0.00  0.00    +0.190 HD
ATOM     22  H   UNL     1       7.994   0.778   0.007  0.00  0.00    +0.156 HD
ENDROOT
BRANCH   1  23
ATOM     23  C   UNL     1       0.619  -0.557  -1.207  0.00  0.00    +0.116 C 
BRANCH  23  25
ATOM     24  C   UNL     1       1.307  -2.201  -2.958  0.00  0.00    +0.009 C 
ATOM     25  C   UNL     1       0.373  -1.032  -2.640  0.00  0.00    +0.001 C 
ATOM     26  C   UNL     1      -1.081  -1.487  -2.784  0.00  0.00    +0.009 C 
ENDBRANCH  23  25
ENDBRANCH   1  23
TORSDOF 2
