REMARK  Name = ZINC12529285
REMARK  10 active torsions:
REMARK  status: ('A' for Active; 'I' for Inactive)
REMARK    1  A    between atoms: C_1  and  C_2
REMARK    2  A    between atoms: C_2  and  C_3
REMARK    3  A    between atoms: C_3  and  C_28
REMARK    4  A    between atoms: N_4  and  N_5
REMARK    5  A    between atoms: C_10  and  C_13
REMARK    6  A    between atoms: C_13  and  C_14
REMARK    7  A    between atoms: N_16  and  C_17
REMARK    8  A    between atoms: C_21  and  C_23
REMARK    9  A    between atoms: C_31  and  O_34
REMARK   10  A    between atoms: O_34  and  C_35
REMARK                            x       y       z     vdW  Elec       q    Type
REMARK                         _______ _______ _______ _____ _____    ______ ____
ROOT
ATOM      1  N   UNL     1       2.665  -0.457  -0.123  0.00  0.00    -0.126 NA
ATOM      2  C   UNL     1       3.965  -0.665  -0.108  0.00  0.00    +0.183 C 
ATOM      3  N   UNL     1       4.769  -1.105  -1.139  0.00  0.00    -0.263 N 
ATOM      4  C   UNL     1       6.072  -1.274  -1.000  0.00  0.00    +0.233 C 
ATOM      5  O   UNL     1       6.773  -1.661  -1.911  0.00  0.00    -0.274 OA
ATOM      6  C   UNL     1       6.638  -0.955   0.375  0.00  0.00    +0.149 C 
ATOM      7  S   UNL     1       5.104  -0.435   1.249  0.00  0.00    -0.075 S 
ATOM      8  H   UNL     1       4.362  -1.296  -1.998  0.00  0.00    +0.157 HD
ENDROOT
BRANCH   1  10
ATOM      9  C   UNL     1       0.700  -0.470  -1.214  0.00  0.00    +0.070 C 
ATOM     10  N   UNL     1       1.989  -0.676  -1.199  0.00  0.00    -0.151 NA
BRANCH   9  11
ATOM     11  C   UNL     1      -0.071  -0.720  -2.441  0.00  0.00    -0.002 A 
ATOM     12  C   UNL     1      -1.452  -0.495  -2.461  0.00  0.00    +0.013 A 
ATOM     13  C   UNL     1      -2.169  -0.730  -3.614  0.00  0.00    +0.046 A 
ATOM     14  C   UNL     1      -1.524  -1.190  -4.754  0.00  0.00    +0.120 A 
ATOM     15  C   UNL     1      -0.154  -1.416  -4.740  0.00  0.00    +0.046 A 
ATOM     16  C   UNL     1       0.574  -1.178  -3.595  0.00  0.00    +0.013 A 
BRANCH  14  17
ATOM     17  O   UNL     1      -2.236  -1.421  -5.888  0.00  0.00    -0.495 OA
ATOM     18  C   UNL     1      -1.511  -1.893  -7.025  0.00  0.00    +0.277 C 
ENDBRANCH  14  17
ENDBRANCH   9  11
BRANCH   9  20
ATOM     19  C   UNL     1      -0.012   1.553   0.031  0.00  0.00    +0.010 C 
ATOM     20  C   UNL     1       0.002   0.023   0.028  0.00  0.00    +0.054 C 
ENDBRANCH   9  20
ENDBRANCH   1  10
BRANCH   6  21
ATOM     21  C   UNL     1       7.260  -2.194   1.021  0.00  0.00    +0.120 C 
BRANCH  21  22
ATOM     22  C   UNL     1       7.914  -1.808   2.322  0.00  0.00    +0.219 C 
ATOM     23  O   UNL     1       7.887  -0.654   2.696  0.00  0.00    -0.275 OA
ATOM     24  N   UNL     1       8.531  -2.744   3.071  0.00  0.00    -0.285 N 
ATOM     25  H   UNL     1       8.495  -3.677   2.806  0.00  0.00    +0.155 HD
BRANCH  24  26
ATOM     26  C   UNL     1       9.222  -2.370   4.229  0.00  0.00    +0.034 A 
ATOM     27  C   UNL     1       8.747  -1.331   5.018  0.00  0.00    +0.025 A 
ATOM     28  C   UNL     1       9.431  -0.964   6.160  0.00  0.00    +0.022 A 
ATOM     29  C   UNL     1      10.589  -1.632   6.519  0.00  0.00    +0.053 A 
ATOM     30  C   UNL     1      11.065  -2.668   5.734  0.00  0.00    +0.075 A 
ATOM     31  C   UNL     1      10.381  -3.042   4.594  0.00  0.00    +0.037 A 
ATOM     32 CL   UNL     1      11.447  -1.167   7.955  0.00  0.00    -0.083 Cl
BRANCH  30  33
ATOM     33  C   UNL     1      12.326  -3.392   6.128  0.00  0.00    +0.419 C 
ATOM     34  F   UNL     1      12.603  -4.391   5.188  0.00  0.00    -0.166 F 
ATOM     35  F   UNL     1      13.390  -2.485   6.172  0.00  0.00    -0.166 F 
ATOM     36  F   UNL     1      12.156  -3.973   7.389  0.00  0.00    -0.166 F 
ENDBRANCH  30  33
ENDBRANCH  24  26
ENDBRANCH  21  22
ENDBRANCH   6  21
TORSDOF 8
