REMARK  Name = ZINC42880369
REMARK  5 active torsions:
REMARK  status: ('A' for Active; 'I' for Inactive)
REMARK    1  A    between atoms: C_1  and  N_2
REMARK    2  A    between atoms: C_6  and  N_9
REMARK    3  A    between atoms: N_9  and  C_10
REMARK    4  A    between atoms: C_10  and  C_11
REMARK    5  A    between atoms: C_16  and  O_17
REMARK                            x       y       z     vdW  Elec       q    Type
REMARK                         _______ _______ _______ _____ _____    ______ ____
ROOT
ATOM      1  C   UNL     1       2.138  -3.805   2.088  0.00  0.00    +0.120 C 
ENDROOT
BRANCH   1   2
ATOM      2  C   UNL     1       2.855  -4.268   3.330  0.00  0.00    +0.011 A 
ATOM      3  C   UNL     1       2.309  -5.271   4.109  0.00  0.00    +0.058 A 
ATOM      4  C   UNL     1       2.965  -5.699   5.251  0.00  0.00    +0.167 A 
ATOM      5  C   UNL     1       4.177  -5.117   5.615  0.00  0.00    +0.170 A 
ATOM      6  C   UNL     1       4.722  -4.112   4.833  0.00  0.00    +0.095 A 
ATOM      7  C   UNL     1       4.064  -3.691   3.688  0.00  0.00    +0.125 A 
ATOM      8  O   UNL     1       4.616  -5.706   6.766  0.00  0.00    -0.452 OA
ATOM      9  C   UNL     1       3.464  -6.367   7.323  0.00  0.00    +0.466 C 
ATOM     10  O   UNL     1       2.645  -6.653   6.175  0.00  0.00    -0.453 OA
BRANCH   7  11
ATOM     11  O   UNL     1       4.602  -2.708   2.917  0.00  0.00    -0.506 OA
ATOM     12  H   UNL     1       4.327  -1.816   3.169  0.00  0.00    +0.292 HD
ENDBRANCH   7  11
ENDBRANCH   1   2
BRANCH   1  13
ATOM     13  N   UNL     1       1.516  -2.499   2.339  0.00  0.00    -0.311 NA
ATOM     14  H   UNL     1       2.201  -1.826   2.650  0.00  0.00    +0.122 HD
BRANCH  13  20
ATOM     15  C   UNL     1      -0.018   1.465   0.010  0.00  0.00    -0.096 C 
ATOM     16  N   UNL     1       0.002  -0.004   0.002  0.00  0.00    +0.379 N 
ATOM     17  C   UNL     1      -1.376  -0.511   0.004  0.00  0.00    -0.079 C 
ATOM     18  C   UNL     1      -1.361  -2.038  -0.087  0.00  0.00    -0.017 C 
ATOM     19  C   UNL     1      -0.605  -2.608   1.117  0.00  0.00    +0.015 C 
ATOM     20  C   UNL     1       0.807  -2.015   1.147  0.00  0.00    +0.037 C 
ATOM     21  C   UNL     1       0.712  -0.489   1.192  0.00  0.00    -0.060 C 
ATOM     22  H   UNL     1       0.477  -0.328  -0.827  0.00  0.00    -0.082 HD
ENDBRANCH  13  20
ENDBRANCH   1  13
TORSDOF 4
