REMARK  Name = ZINC03103427
REMARK  11 active torsions:
REMARK  status: ('A' for Active; 'I' for Inactive)
REMARK    1  A    between atoms: C_1  and  C_2
REMARK    2  A    between atoms: C_2  and  O_3
REMARK    3  A    between atoms: O_3  and  C_4
REMARK    4  A    between atoms: C_4  and  C_6
REMARK    5  A    between atoms: C_6  and  C_7
REMARK    6  A    between atoms: C_6  and  N_19
REMARK    7  A    between atoms: C_6  and  N_48
REMARK    8  A    between atoms: C_11  and  C_12
REMARK    9  A    between atoms: C_11  and  N_48
REMARK   10  A    between atoms: C_12  and  C_13
REMARK   11  A    between atoms: C_20  and  C_22
REMARK                            x       y       z     vdW  Elec       q    Type
REMARK                         _______ _______ _______ _____ _____    ______ ____
ROOT
ATOM      1  C   UNL     1      -0.741   1.601   3.692  0.00  0.00    +0.195 C 
ENDROOT
BRANCH   1   2
ATOM      2  C   UNL     1      -1.950   0.701   3.956  0.00  0.00    +0.406 C 
ATOM      3  F   UNL     1      -1.526  -0.628   4.061  0.00  0.00    -0.170 F 
ATOM      4  F   UNL     1      -2.569   1.090   5.148  0.00  0.00    -0.170 F 
ATOM      5  F   UNL     1      -2.858   0.819   2.898  0.00  0.00    -0.170 F 
ENDBRANCH   1   2
BRANCH   1   6
ATOM      6  N   UNL     1      -1.160   3.005   3.731  0.00  0.00    -0.305 N 
ATOM      7  C   UNL     1      -2.036   3.472   2.820  0.00  0.00    +0.245 C 
ATOM      8  O   UNL     1      -2.551   2.710   2.025  0.00  0.00    -0.270 OA
ATOM      9  H   UNL     1      -0.806   3.598   4.412  0.00  0.00    +0.148 HD
BRANCH   7  10
ATOM     10  C   UNL     1      -2.371   4.911   2.787  0.00  0.00    +0.055 A 
ATOM     11  C   UNL     1      -1.786   5.788   3.701  0.00  0.00    +0.014 A 
ATOM     12  C   UNL     1      -2.098   7.131   3.661  0.00  0.00    +0.001 A 
ATOM     13  C   UNL     1      -2.999   7.608   2.725  0.00  0.00    +0.001 A 
ATOM     14  C   UNL     1      -3.587   6.745   1.819  0.00  0.00    +0.021 A 
ATOM     15  C   UNL     1      -3.279   5.398   1.843  0.00  0.00    +0.053 A 
ATOM     16 CL   UNL     1      -4.019   4.315   0.706  0.00  0.00    -0.083 Cl
ENDBRANCH   7  10
ENDBRANCH   1   6
BRANCH   1  17
ATOM     17  N   UNL     1       0.279   1.358   4.730  0.00  0.00    +0.407 N 
ATOM     18  H   UNL     1       0.711   0.440   4.571  0.00  0.00    -0.081 HD
ATOM     19  H   UNL     1      -0.168   1.371   5.654  0.00  0.00    -0.081 HD
BRANCH  17  20
ATOM     20  C   UNL     1       1.320   2.401   4.679  0.00  0.00    -0.074 C 
BRANCH  20  21
ATOM     21  C   UNL     1       2.429   2.052   5.673  0.00  0.00    +0.016 C 
BRANCH  21  22
ATOM     22  C   UNL     1       3.497   3.114   5.628  0.00  0.00    -0.049 A 
ATOM     23  C   UNL     1       4.563   2.986   4.758  0.00  0.00    +0.003 A 
ATOM     24  C   UNL     1       5.540   3.962   4.713  0.00  0.00    +0.000 A 
ATOM     25  C   UNL     1       5.457   5.062   5.546  0.00  0.00    +0.000 A 
ATOM     26  C   UNL     1       4.394   5.188   6.421  0.00  0.00    +0.000 A 
ATOM     27  C   UNL     1       3.414   4.214   6.462  0.00  0.00    +0.003 A 
ENDBRANCH  21  22
ENDBRANCH  20  21
ENDBRANCH  17  20
ENDBRANCH   1  17
BRANCH   1  28
ATOM     28  C   UNL     1      -0.166   1.286   2.335  0.00  0.00    +0.322 C 
ATOM     29  O   UNL     1       0.907   0.739   2.246  0.00  0.00    -0.250 OA
BRANCH  28  30
ATOM     30  O   UNL     1      -0.846   1.613   1.225  0.00  0.00    -0.465 OA
BRANCH  30  32
ATOM     31  C   UNL     1      -1.148   1.726  -1.188  0.00  0.00    +0.048 C 
ATOM     32  C   UNL     1      -0.232   1.279  -0.047  0.00  0.00    +0.229 C 
ENDBRANCH  30  32
ENDBRANCH  28  30
ENDBRANCH   1  28
TORSDOF 10
