REMARK  Name = ZINC39699326
REMARK  10 active torsions:
REMARK  status: ('A' for Active; 'I' for Inactive)
REMARK    1  A    between atoms: C_1  and  C_2
REMARK    2  A    between atoms: C_4  and  C_42
REMARK    3  A    between atoms: C_7  and  C_14
REMARK    4  A    between atoms: C_14  and  C_16
REMARK    5  A    between atoms: C_14  and  N_28
REMARK    6  A    between atoms: N_21  and  C_22
REMARK    7  A    between atoms: N_28  and  C_29
REMARK    8  A    between atoms: N_28  and  C_35
REMARK    9  A    between atoms: C_29  and  C_30
REMARK   10  A    between atoms: C_35  and  C_36
REMARK                            x       y       z     vdW  Elec       q    Type
REMARK                         _______ _______ _______ _____ _____    ______ ____
ROOT
ATOM      1  C   UNL     1       1.385  -5.767   1.768  0.00  0.00    -0.010 C 
ENDROOT
BRANCH   1   8
ATOM      2  C   UNL     1      -4.005  -8.776   6.022  0.00  0.00    +0.044 C 
ATOM      3  C   UNL     1      -3.038  -7.857   5.321  0.00  0.00    -0.048 A 
ATOM      4  C   UNL     1      -2.418  -6.848   6.060  0.00  0.00    +0.007 A 
ATOM      5  C   UNL     1      -1.537  -5.990   5.484  0.00  0.00    -0.042 A 
ATOM      6  C   UNL     1      -1.239  -6.135   4.059  0.00  0.00    -0.004 A 
ATOM      7  C   UNL     1      -0.361  -5.296   3.439  0.00  0.00    -0.006 C 
ATOM      8  C   UNL     1      -0.113  -5.521   1.960  0.00  0.00    +0.088 C 
ATOM      9  C   UNL     1      -0.858  -6.655   1.294  0.00  0.00    +0.223 C 
ATOM     10  O   UNL     1      -0.696  -6.880   0.109  0.00  0.00    -0.275 OA
ATOM     11  N   UNL     1      -1.686  -7.402   2.004  0.00  0.00    -0.285 N 
ATOM     12  C   UNL     1      -1.908  -7.209   3.304  0.00  0.00    +0.041 A 
ATOM     13  C   UNL     1      -2.800  -8.047   3.997  0.00  0.00    +0.027 A 
ATOM     14  C   UNL     1      -0.879  -4.906   6.299  0.00  0.00    +0.044 C 
ATOM     15  H   UNL     1      -2.155  -8.125   1.558  0.00  0.00    +0.155 HD
ENDBRANCH   1   8
BRANCH   1  16
ATOM     16  C   UNL     1       1.646  -6.228   0.333  0.00  0.00    +0.183 C 
ATOM     17  N   UNL     1       3.082  -6.498   0.124  0.00  0.00    -0.229 N 
ATOM     18  N   UNL     1       3.499  -5.604  -0.869  0.00  0.00    -0.064 NA
ATOM     19  N   UNL     1       2.591  -4.880  -1.266  0.00  0.00    -0.061 NA
ATOM     20  N   UNL     1       1.370  -5.139  -0.624  0.00  0.00    -0.213 N 
ATOM     21  H   UNL     1       3.624  -7.160   0.582  0.00  0.00    +0.172 HD
BRANCH  20  22
ATOM     22  C   UNL     1       0.088  -4.469  -0.852  0.00  0.00    +0.096 C 
ATOM     23  C   UNL     1      -0.382  -4.741  -2.283  0.00  0.00    +0.024 C 
ATOM     24  C   UNL     1      -1.721  -4.041  -2.522  0.00  0.00    +0.002 C 
ATOM     25  C   UNL     1      -1.553  -2.534  -2.318  0.00  0.00    +0.000 C 
ATOM     26  C   UNL     1      -1.084  -2.262  -0.887  0.00  0.00    +0.002 C 
ATOM     27  C   UNL     1       0.256  -2.962  -0.648  0.00  0.00    +0.024 C 
ENDBRANCH  20  22
ENDBRANCH   1  16
BRANCH   1  28
ATOM     28  N   UNL     1       1.834  -6.806   2.705  0.00  0.00    +0.389 N 
ATOM     29  H   UNL     1       2.656  -7.259   2.335  0.00  0.00    -0.081 HD
BRANCH  28  30
ATOM     30  C   UNL     1       2.155  -6.191   4.000  0.00  0.00    -0.035 C 
BRANCH  30  31
ATOM     31  C   UNL     1       3.571  -5.676   3.974  0.00  0.00    -0.027 A 
ATOM     32  C   UNL     1       4.019  -4.423   3.716  0.00  0.00    +0.009 A 
ATOM     33  C   UNL     1       5.379  -4.177   3.750  0.00  0.00    +0.008 A 
ATOM     34  C   UNL     1       6.225  -5.196   4.039  0.00  0.00    +0.045 A 
ATOM     35  S   UNL     1       5.094  -6.556   4.284  0.00  0.00    -0.103 S 
ENDBRANCH  30  31
ENDBRANCH  28  30
BRANCH  28  36
ATOM     36  C   UNL     1       0.766  -7.798   2.885  0.00  0.00    -0.046 C 
BRANCH  36  37
ATOM     37  C   UNL     1       0.789  -8.789   1.721  0.00  0.00    +0.102 C 
ATOM     38  C   UNL     1      -0.289  -9.873   1.934  0.00  0.00    +0.032 C 
ATOM     39  C   UNL     1       0.432 -11.157   1.440  0.00  0.00    +0.030 C 
ATOM     40  C   UNL     1       1.891 -10.860   1.870  0.00  0.00    +0.160 C 
ATOM     41  O   UNL     1       2.061  -9.446   1.667  0.00  0.00    -0.378 OA
ENDBRANCH  36  37
ENDBRANCH  28  36
ENDBRANCH   1  28
TORSDOF 8
