REMARK  Name = ZINC36612883
REMARK  6 active torsions:
REMARK  status: ('A' for Active; 'I' for Inactive)
REMARK    1  A    between atoms: C_2  and  C_14
REMARK    2  A    between atoms: C_5  and  O_8
REMARK    3  A    between atoms: O_8  and  C_9
REMARK    4  A    between atoms: C_9  and  C_10
REMARK    5  A    between atoms: C_14  and  N_15
REMARK    6  A    between atoms: N_15  and  C_16
REMARK                            x       y       z     vdW  Elec       q    Type
REMARK                         _______ _______ _______ _____ _____    ______ ____
ROOT
ATOM      1  C   UNL     1      -0.017   1.378   0.010  0.00  0.00    +0.020 A 
ATOM      2  C   UNL     1       1.170   2.087   0.002  0.00  0.00    -0.062 A 
ATOM      3  C   UNL     1       2.379   1.416  -0.013  0.00  0.00    +0.020 A 
ATOM      4  C   UNL     1       2.404   0.034  -0.021  0.00  0.00    +0.061 A 
ATOM      5  C   UNL     1       1.214  -0.680  -0.013  0.00  0.00    +0.149 A 
ATOM      6  C   UNL     1       0.002  -0.004   0.002  0.00  0.00    +0.061 A 
ATOM      7 BR   UNL     1      -1.622  -0.973   0.013  0.00  0.00    -0.046 Br
ATOM      8 BR   UNL     1       4.058  -0.883  -0.043  0.00  0.00    -0.046 Br
ENDROOT
BRANCH   5   9
ATOM      9  O   UNL     1       1.235  -2.039  -0.022  0.00  0.00    -0.481 OA
BRANCH   9  10
ATOM     10  C   UNL     1       1.258  -2.696   1.247  0.00  0.00    +0.324 C 
BRANCH  10  11
ATOM     11  C   UNL     1       1.280  -4.188   1.041  0.00  0.00    +0.248 C 
ATOM     12  O   UNL     1       1.276  -4.645  -0.083  0.00  0.00    -0.272 OA
ATOM     13  N   UNL     1       1.303  -5.016   2.104  0.00  0.00    -0.327 N 
ATOM     14  H   UNL     1       1.306  -4.650   3.003  0.00  0.00    +0.145 HD
ATOM     15  H   UNL     1       1.317  -5.976   1.971  0.00  0.00    +0.145 HD
ENDBRANCH  10  11
ENDBRANCH   9  10
ENDBRANCH   5   9
BRANCH   2  16
ATOM     16  C   UNL     1       1.147   3.594   0.010  0.00  0.00    -0.046 C 
BRANCH  16  17
ATOM     17  N   UNL     1       1.152   4.076   1.397  0.00  0.00    +0.384 N 
ATOM     18  H   UNL     1       0.338   3.725   1.879  0.00  0.00    -0.085 HD
ATOM     19  H   UNL     1       1.985   3.751   1.864  0.00  0.00    -0.085 HD
BRANCH  17  20
ATOM     20  C   UNL     1       1.129   5.545   1.405  0.00  0.00    -0.071 C 
ATOM     21  C   UNL     1       2.422   6.079   0.786  0.00  0.00    -0.016 C 
ATOM     22  C   UNL     1       2.245   7.556   0.428  0.00  0.00    -0.002 C 
ATOM     23  C   UNL     1       0.885   7.759  -0.242  0.00  0.00    -0.000 C 
ATOM     24  C   UNL     1      -0.013   8.597   0.669  0.00  0.00    -0.000 C 
ATOM     25  C   UNL     1      -0.529   7.726   1.817  0.00  0.00    -0.000 C 
ATOM     26  C   UNL     1       0.589   7.517   2.841  0.00  0.00    -0.002 C 
ATOM     27  C   UNL     1       1.008   6.046   2.846  0.00  0.00    -0.016 C 
ENDBRANCH  17  20
ENDBRANCH  16  17
ENDBRANCH   2  16
TORSDOF 6
