REMARK  Name = ZINC09328636
REMARK  5 active torsions:
REMARK  status: ('A' for Active; 'I' for Inactive)
REMARK    1  A    between atoms: C_1  and  O_2
REMARK    2  A    between atoms: O_2  and  C_3
REMARK    3  A    between atoms: C_5  and  C_10
REMARK    4  A    between atoms: C_8  and  O_9
REMARK    5  A    between atoms: C_28  and  N_70
REMARK                            x       y       z     vdW  Elec       q    Type
REMARK                         _______ _______ _______ _____ _____    ______ ____
ROOT
ATOM      1  C   UNL     1       6.268  -2.218  -1.133  0.00  0.00    +0.069 C 
ATOM      2  N   UNL     1       5.822  -1.046  -0.815  0.00  0.00    -0.185 NA
ATOM      3  N   UNL     1       6.332  -0.029  -1.600  0.00  0.00    -0.207 N 
ATOM      4  C   UNL     1       7.060  -0.628  -2.743  0.00  0.00    +0.136 C 
ATOM      5  C   UNL     1       7.201  -2.097  -2.321  0.00  0.00    +0.086 C 
ATOM      6  C   UNL     1       8.393   0.071  -2.812  0.00  0.00    +0.017 A 
ATOM      7  C   UNL     1       9.411  -0.492  -3.559  0.00  0.00    +0.009 A 
ATOM      8  C   UNL     1      10.638   0.136  -3.651  0.00  0.00    +0.001 A 
ATOM      9  C   UNL     1      10.846   1.335  -2.994  0.00  0.00    +0.004 A 
ATOM     10  C   UNL     1       9.835   1.897  -2.245  0.00  0.00    +0.046 A 
ATOM     11  C   UNL     1       8.596   1.265  -2.138  0.00  0.00    +0.128 A 
ATOM     12  O   UNL     1       7.656   1.864  -1.361  0.00  0.00    -0.467 OA
ATOM     13  C   UNL     1       6.298   1.424  -1.414  0.00  0.00    +0.189 C 
ATOM     14  C   UNL     1       5.579   2.086  -2.589  0.00  0.00    +0.052 C 
ATOM     15  C   UNL     1       4.115   1.637  -2.605  0.00  0.00    -0.072 C 
ATOM     16  C   UNL     1       4.120   1.330  -0.201  0.00  0.00    -0.072 C 
ATOM     17  C   UNL     1       5.583   1.768  -0.109  0.00  0.00    +0.052 C 
ATOM     18  N   UNL     1       3.479   2.035  -1.331  0.00  0.00    +0.385 N 
ATOM     19  H   UNL     1       3.596   3.047  -1.202  0.00  0.00    -0.081 HD
ENDROOT
BRANCH  18  20
ATOM     20  C   UNL     1       2.035   1.721  -1.369  0.00  0.00    -0.037 C 
ATOM     21  C   UNL     1       1.823   0.224  -1.581  0.00  0.00    -0.010 C 
ATOM     22  C   UNL     1       0.330  -0.022  -1.829  0.00  0.00    +0.003 C 
ATOM     23  C   UNL     1      -0.032   0.551  -3.198  0.00  0.00    +0.035 C 
ATOM     24  C   UNL     1       0.445   1.974  -3.319  0.00  0.00    -0.046 A 
ATOM     25  C   UNL     1       1.400   2.510  -2.484  0.00  0.00    -0.058 A 
ATOM     26  C   UNL     1       1.801   3.828  -2.654  0.00  0.00    +0.002 A 
ATOM     27  C   UNL     1       1.247   4.607  -3.649  0.00  0.00    +0.000 A 
ATOM     28  C   UNL     1       0.286   4.071  -4.485  0.00  0.00    +0.000 A 
ATOM     29  C   UNL     1      -0.113   2.760  -4.319  0.00  0.00    +0.004 A 
ENDBRANCH  18  20
BRANCH   1  32
ATOM     30  C   UNL     1       4.727  -4.645   1.283  0.00  0.00    +0.162 A 
ATOM     31  C   UNL     1       5.053  -3.461   0.647  0.00  0.00    +0.059 A 
ATOM     32  C   UNL     1       5.923  -3.476  -0.446  0.00  0.00    +0.001 A 
ATOM     33  C   UNL     1       6.470  -4.685  -0.882  0.00  0.00    +0.013 A 
ATOM     34  C   UNL     1       6.146  -5.861  -0.238  0.00  0.00    +0.050 A 
ATOM     35  C   UNL     1       5.277  -5.846   0.843  0.00  0.00    +0.158 A 
BRANCH  30  37
ATOM     36  C   UNL     1       3.350  -3.367   2.741  0.00  0.00    +0.277 C 
ATOM     37  O   UNL     1       3.876  -4.635   2.344  0.00  0.00    -0.491 OA
ENDBRANCH  30  37
BRANCH  35  38
ATOM     38  O   UNL     1       4.960  -7.009   1.474  0.00  0.00    -0.503 OA
ATOM     39  H   UNL     1       5.553  -7.233   2.205  0.00  0.00    +0.292 HD
ENDBRANCH  35  38
ENDBRANCH   1  32
TORSDOF 4
