REMARK  Name = ZINC20873296
REMARK  6 active torsions:
REMARK  status: ('A' for Active; 'I' for Inactive)
REMARK    1  A    between atoms: C_3  and  O_20
REMARK    2  A    between atoms: C_4  and  C_8
REMARK    3  A    between atoms: C_8  and  N_9
REMARK    4  A    between atoms: N_9  and  C_10
REMARK    5  A    between atoms: O_20  and  C_21
REMARK    6  A    between atoms: C_21  and  C_22
REMARK                            x       y       z     vdW  Elec       q    Type
REMARK                         _______ _______ _______ _____ _____    ______ ____
ROOT
ATOM      1  C   UNL     1      -1.218   1.751   0.017  0.00  0.00    +0.023 A 
ATOM      2  C   UNL     1      -0.013   1.076   0.008  0.00  0.00    +0.047 A 
ATOM      3  C   UNL     1       1.179   1.786   0.000  0.00  0.00    +0.123 A 
ATOM      4  C   UNL     1       1.157   3.173   0.008  0.00  0.00    -0.021 A 
ATOM      5  C   UNL     1      -0.050   3.844   0.022  0.00  0.00    +0.025 A 
ATOM      6  C   UNL     1      -1.237   3.134   0.029  0.00  0.00    +0.041 A 
ATOM      7 CL   UNL     1      -2.753   3.980   0.048  0.00  0.00    -0.084 Cl
ENDROOT
BRANCH   4   8
ATOM      8  C   UNL     1       2.450   3.947  -0.001  0.00  0.00    -0.043 C 
BRANCH   8   9
ATOM      9  N   UNL     1       2.981   3.999  -1.370  0.00  0.00    +0.384 N 
ATOM     10  H   UNL     1       3.163   2.977  -1.732  0.00  0.00    -0.085 HD
ATOM     11  H   UNL     1       2.252   4.496  -2.027  0.00  0.00    -0.085 HD
BRANCH   9  12
ATOM     12  C   UNL     1       4.244   4.748  -1.417  0.00  0.00    -0.065 C 
ATOM     13  C   UNL     1       3.946   6.243  -1.546  0.00  0.00    -0.024 C 
ATOM     14  C   UNL     1       5.261   7.023  -1.595  0.00  0.00    +0.005 C 
ATOM     15  C   UNL     1       6.083   6.561  -2.800  0.00  0.00    -0.010 C 
ATOM     16  C   UNL     1       5.292   6.815  -4.085  0.00  0.00    +0.007 C 
ATOM     17  C   UNL     1       3.977   6.035  -4.035  0.00  0.00    -0.010 C 
ATOM     18  C   UNL     1       3.155   6.497  -2.831  0.00  0.00    +0.005 C 
ATOM     19  C   UNL     1       4.274   4.540  -3.907  0.00  0.00    +0.005 C 
ATOM     20  C   UNL     1       5.066   4.286  -2.622  0.00  0.00    -0.024 C 
ATOM     21  C   UNL     1       6.381   5.066  -2.671  0.00  0.00    +0.005 C 
ENDBRANCH   9  12
ENDBRANCH   8   9
ENDBRANCH   4   8
BRANCH   3  22
ATOM     22  O   UNL     1       2.366   1.124  -0.014  0.00  0.00    -0.483 OA
BRANCH  22  23
ATOM     23  C   UNL     1       2.312  -0.304  -0.020  0.00  0.00    +0.324 C 
BRANCH  23  24
ATOM     24  C   UNL     1       3.713  -0.860  -0.035  0.00  0.00    +0.248 C 
ATOM     25  O   UNL     1       4.663  -0.107  -0.040  0.00  0.00    -0.272 OA
ATOM     26  N   UNL     1       3.909  -2.193  -0.043  0.00  0.00    -0.327 N 
ATOM     27  H   UNL     1       4.931  -2.598  -0.054  0.00  0.00    +0.145 HD
ATOM     28  H   UNL     1       3.046  -2.876  -0.039  0.00  0.00    +0.145 HD
ENDBRANCH  23  24
ENDBRANCH  22  23
ENDBRANCH   3  22
TORSDOF 6
