REMARK  Name = ZINC48353962
REMARK  8 active torsions:
REMARK  status: ('A' for Active; 'I' for Inactive)
REMARK    1  A    between atoms: C_1  and  C_2
REMARK    2  A    between atoms: N_7  and  C_9
REMARK    3  A    between atoms: C_9  and  C_10
REMARK    4  A    between atoms: C_9  and  C_11
REMARK    5  A    between atoms: C_9  and  C_12
REMARK    6  A    between atoms: C_12  and  N_13
REMARK    7  A    between atoms: N_13  and  S_14
REMARK    8  A    between atoms: S_14  and  C_17
REMARK                            x       y       z     vdW  Elec       q    Type
REMARK                         _______ _______ _______ _____ _____    ______ ____
ROOT
ATOM      1  S   UNL     1       2.627  -5.967   0.939  0.00  0.00    +0.058 S 
ATOM      2  O   UNL     1       3.384  -6.023  -0.263  0.00  0.00    -0.153 OA
ATOM      3  O   UNL     1       3.127  -6.452   2.177  0.00  0.00    -0.153 OA
ENDROOT
BRANCH   1   4
ATOM      4  C   UNL     1       1.125  -6.834   0.628  0.00  0.00    +0.106 A 
ATOM      5  C   UNL     1       0.407  -7.377   1.678  0.00  0.00    +0.030 A 
ATOM      6  C   UNL     1      -0.768  -8.056   1.438  0.00  0.00    +0.026 A 
ATOM      7  C   UNL     1      -1.243  -8.202   0.133  0.00  0.00    +0.041 A 
ATOM      8  C   UNL     1      -0.517  -7.654  -0.912  0.00  0.00    -0.023 A 
ATOM      9  C   UNL     1       0.657  -6.969  -0.666  0.00  0.00    +0.034 A 
ATOM     10  C   UNL     1      -1.240  -7.949  -2.207  0.00  0.00    +0.056 C 
ATOM     11  C   UNL     1      -2.487  -8.742  -1.782  0.00  0.00    +0.120 C 
ATOM     12  N   UNL     1      -2.398  -8.845  -0.323  0.00  0.00    -0.255 N 
ATOM     13  C   UNL     1      -3.297  -9.469   0.464  0.00  0.00    +0.304 C 
ATOM     14  O   UNL     1      -3.133  -9.499   1.669  0.00  0.00    -0.253 OA
ATOM     15  N   UNL     1      -4.378 -10.059  -0.084  0.00  0.00    -0.313 N 
ATOM     16  H   UNL     1      -4.509 -10.034  -1.045  0.00  0.00    +0.146 HD
ATOM     17  H   UNL     1      -5.025 -10.507   0.482  0.00  0.00    +0.146 HD
ENDBRANCH   1   4
BRANCH   1  18
ATOM     18  N   UNL     1       2.234  -4.377   1.177  0.00  0.00    -0.191 NA
ATOM     19  H   UNL     1       2.540  -3.702   0.551  0.00  0.00    +0.148 HD
BRANCH  18  20
ATOM     20  C   UNL     1       1.423  -3.988   2.334  0.00  0.00    +0.093 C 
BRANCH  20  21
ATOM     21  C   UNL     1       1.549  -2.480   2.562  0.00  0.00    -0.057 C 
ATOM     22  C   UNL     1       0.797  -2.092   3.837  0.00  0.00    -0.009 C 
ATOM     23  C   UNL     1       0.950  -1.732   1.369  0.00  0.00    -0.009 C 
BRANCH  21  29
ATOM     24  C   UNL     1       4.684   1.214   3.266  0.00  0.00    +0.005 C 
ATOM     25  C   UNL     1       4.563  -0.290   3.010  0.00  0.00    -0.031 C 
ATOM     26  C   UNL     1       5.239  -1.058   4.150  0.00  0.00    -0.001 C 
ATOM     27  C   UNL     1       5.045  -2.560   3.925  0.00  0.00    -0.018 C 
ATOM     28  C   UNL     1       3.549  -2.867   3.825  0.00  0.00    -0.078 C 
ATOM     29  N   UNL     1       2.967  -2.123   2.702  0.00  0.00    +0.384 N 
ATOM     30  C   UNL     1       3.085  -0.680   2.943  0.00  0.00    -0.075 C 
ATOM     31  H   UNL     1       3.457  -2.361   1.852  0.00  0.00    -0.081 HD
ENDBRANCH  21  29
ENDBRANCH  20  21
ENDBRANCH  18  20
ENDBRANCH   1  18
TORSDOF 5
