REMARK  Name = ZINC28886441
REMARK  5 active torsions:
REMARK  status: ('A' for Active; 'I' for Inactive)
REMARK    1  A    between atoms: C_8  and  C_24
REMARK    2  A    between atoms: N_10  and  C_12
REMARK    3  A    between atoms: C_12  and  C_13
REMARK    4  A    between atoms: C_13  and  C_14
REMARK    5  A    between atoms: N_16  and  C_17
REMARK                            x       y       z     vdW  Elec       q    Type
REMARK                         _______ _______ _______ _____ _____    ______ ____
ROOT
ATOM      1  C   UNL     1       9.079   9.995   0.425  0.00  0.00    +0.000 A 
ATOM      2  C   UNL     1       8.892   9.045   1.413  0.00  0.00    +0.000 A 
ATOM      3  C   UNL     1       7.660   8.440   1.559  0.00  0.00    +0.002 A 
ATOM      4  C   UNL     1       6.608   8.780   0.721  0.00  0.00    -0.061 A 
ATOM      5  C   UNL     1       6.796   9.724  -0.265  0.00  0.00    -0.047 A 
ATOM      6  C   UNL     1       8.034  10.332  -0.410  0.00  0.00    +0.004 A 
ATOM      7  C   UNL     1       5.685  10.120  -1.203  0.00  0.00    +0.029 C 
ATOM      8  C   UNL     1       4.338   9.675  -0.635  0.00  0.00    +0.024 C 
ATOM      9  N   UNL     1       4.434   8.254  -0.262  0.00  0.00    +0.391 N 
ATOM     10  C   UNL     1       5.280   8.098   0.926  0.00  0.00    -0.042 C 
ATOM     11  H   UNL     1       4.902   7.705  -1.092  0.00  0.00    -0.080 HD
ENDROOT
BRANCH   8  12
ATOM     12  C   UNL     1       3.261   9.852  -1.675  0.00  0.00    +0.197 C 
ATOM     13  O   UNL     1       3.069   8.987  -2.502  0.00  0.00    -0.278 OA
ATOM     14  N   UNL     1       2.513  10.973  -1.684  0.00  0.00    -0.331 N 
ATOM     15  H   UNL     1       1.727  11.103  -2.443  0.00  0.00    +0.145 HD
ATOM     16  H   UNL     1       2.687  11.758  -0.933  0.00  0.00    +0.145 HD
ENDBRANCH   8  12
BRANCH   9  17
ATOM     17  C   UNL     1       3.102   7.676  -0.039  0.00  0.00    -0.068 C 
BRANCH  17  18
ATOM     18  C   UNL     1       3.231   6.168   0.182  0.00  0.00    +0.078 C 
BRANCH  18  19
ATOM     19  C   UNL     1       1.865   5.575   0.410  0.00  0.00    +0.215 C 
ATOM     20  O   UNL     1       0.884   6.289   0.397  0.00  0.00    -0.276 OA
ATOM     21  N   UNL     1       1.732   4.252   0.629  0.00  0.00    -0.286 N 
ATOM     22  H   UNL     1       2.626   3.618   0.722  0.00  0.00    +0.155 HD
BRANCH  21  23
ATOM     23  C   UNL     1       0.457   3.685   0.737  0.00  0.00    +0.035 A 
ATOM     24  C   UNL     1      -0.597   4.195  -0.010  0.00  0.00    +0.023 A 
ATOM     25  C   UNL     1      -1.854   3.634   0.099  0.00  0.00    +0.003 A 
ATOM     26  C   UNL     1      -2.066   2.569   0.954  0.00  0.00    +0.020 A 
ATOM     27  C   UNL     1      -1.017   2.054   1.696  0.00  0.00    +0.043 A 
ATOM     28  C   UNL     1       0.244   2.612   1.591  0.00  0.00    +0.043 A 
ATOM     29 CL   UNL     1      -1.286   0.712   2.764  0.00  0.00    -0.083 Cl
ENDBRANCH  21  23
ENDBRANCH  18  19
ENDBRANCH  17  18
ENDBRANCH   9  17
TORSDOF 5
