REMARK  Name = ZINC12473843
REMARK  15 active torsions:
REMARK  status: ('A' for Active; 'I' for Inactive)
REMARK    1  A    between atoms: C_1  and  C_2
REMARK    2  A    between atoms: C_5  and  N_9
REMARK    3  A    between atoms: C_7  and  C_8
REMARK    4  A    between atoms: N_9  and  C_10
REMARK    5  A    between atoms: C_10  and  C_12
REMARK    6  A    between atoms: C_10  and  C_19
REMARK    7  A    between atoms: C_15  and  O_18
REMARK    8  A    between atoms: N_21  and  C_22
REMARK    9  A    between atoms: C_22  and  C_23
REMARK   10  A    between atoms: C_23  and  C_24
REMARK   11  A    between atoms: C_24  and  C_25
REMARK   12  A    between atoms: C_24  and  C_26
REMARK   13  A    between atoms: C_27  and  C_29
REMARK   14  A    between atoms: C_30  and  N_37
REMARK   15  A    between atoms: C_31  and  C_34
REMARK                            x       y       z     vdW  Elec       q    Type
REMARK                         _______ _______ _______ _____ _____    ______ ____
ROOT
ATOM      1  N   UNL     1       2.663   3.934   0.211  0.00  0.00    -0.251 N 
ATOM      2  C   UNL     1       2.594   5.131   0.827  0.00  0.00    +0.262 C 
ATOM      3  O   UNL     1       3.448   5.451   1.633  0.00  0.00    -0.269 OA
ENDROOT
BRANCH   1   8
ATOM      4  C   UNL     1      -1.049   2.611  -3.869  0.00  0.00    +0.044 C 
ATOM      5  C   UNL     1      -0.064   2.966  -2.785  0.00  0.00    -0.047 A 
ATOM      6  C   UNL     1      -0.451   2.916  -1.458  0.00  0.00    +0.005 A 
ATOM      7  C   UNL     1       0.452   3.235  -0.462  0.00  0.00    +0.024 A 
ATOM      8  C   UNL     1       1.747   3.611  -0.795  0.00  0.00    +0.038 A 
ATOM      9  C   UNL     1       2.130   3.666  -2.129  0.00  0.00    +0.027 A 
ATOM     10  C   UNL     1       1.222   3.346  -3.120  0.00  0.00    -0.046 A 
ATOM     11  C   UNL     1       1.637   3.405  -4.567  0.00  0.00    +0.044 C 
ENDBRANCH   1   8
BRANCH   2  12
ATOM     12  C   UNL     1       1.492   6.046   0.526  0.00  0.00    +0.116 A 
ATOM     13  C   UNL     1       1.161   7.262   1.127  0.00  0.00    +0.076 A 
ATOM     14  C   UNL     1       0.030   7.849   0.560  0.00  0.00    +0.155 A 
ATOM     15  N   UNL     1      -0.583   7.239  -0.430  0.00  0.00    -0.203 NA
ATOM     16  S   UNL     1       0.217   5.911  -0.711  0.00  0.00    +0.019 S 
BRANCH  14  17
ATOM     17  C   UNL     1      -0.472   9.140   1.065  0.00  0.00    +0.262 C 
ATOM     18  O   UNL     1       0.100   9.698   1.981  0.00  0.00    -0.269 OA
ATOM     19  N   UNL     1      -1.566   9.701   0.511  0.00  0.00    -0.324 N 
ATOM     20  H   UNL     1      -2.022   9.255  -0.219  0.00  0.00    +0.145 HD
ATOM     21  H   UNL     1      -1.896  10.550   0.844  0.00  0.00    +0.145 HD
ENDBRANCH  14  17
BRANCH  13  22
ATOM     22  N   UNL     1       1.879   7.824   2.175  0.00  0.00    -0.355 N 
ATOM     23  H   UNL     1       2.658   7.368   2.529  0.00  0.00    +0.142 HD
ATOM     24  H   UNL     1       1.600   8.673   2.553  0.00  0.00    +0.142 HD
ENDBRANCH  13  22
ENDBRANCH   2  12
BRANCH   1  25
ATOM     25  C   UNL     1       3.698   2.971   0.596  0.00  0.00    +0.197 C 
BRANCH  25  26
ATOM     26  C   UNL     1       3.665   1.795  -0.346  0.00  0.00    -0.018 A 
ATOM     27  C   UNL     1       2.510   1.046  -0.474  0.00  0.00    +0.009 A 
ATOM     28  C   UNL     1       2.475  -0.029  -1.341  0.00  0.00    +0.046 A 
ATOM     29  C   UNL     1       3.604  -0.364  -2.074  0.00  0.00    +0.117 A 
ATOM     30  C   UNL     1       4.764   0.385  -1.939  0.00  0.00    +0.046 A 
ATOM     31  C   UNL     1       4.791   1.463  -1.076  0.00  0.00    +0.009 A 
BRANCH  29  32
ATOM     32  O   UNL     1       3.575  -1.426  -2.922  0.00  0.00    -0.507 OA
ATOM     33  H   UNL     1       3.833  -2.263  -2.514  0.00  0.00    +0.292 HD
ENDBRANCH  29  32
ENDBRANCH  25  26
BRANCH  25  34
ATOM     34  C   UNL     1       3.444   2.496   2.003  0.00  0.00    +0.238 C 
ATOM     35  O   UNL     1       2.492   2.919   2.623  0.00  0.00    -0.273 OA
ATOM     36  N   UNL     1       4.274   1.600   2.572  0.00  0.00    -0.313 N 
ATOM     37  H   UNL     1       5.036   1.261   2.075  0.00  0.00    +0.149 HD
BRANCH  36  38
ATOM     38  C   UNL     1       4.027   1.137   3.940  0.00  0.00    +0.104 C 
BRANCH  38  39
ATOM     39  C   UNL     1       5.108   0.132   4.341  0.00  0.00    +0.022 C 
BRANCH  39  40
ATOM     40  C   UNL     1       4.850  -0.351   5.770  0.00  0.00    -0.016 C 
ATOM     41  C   UNL     1       5.856  -1.447   6.127  0.00  0.00    +0.007 C 
ATOM     42  C   UNL     1       5.007   0.821   6.741  0.00  0.00    +0.007 C 
ENDBRANCH  39  40
ENDBRANCH  38  39
ENDBRANCH  36  38
ENDBRANCH  25  34
ENDBRANCH   1  25
TORSDOF 11
