REMARK  Name = ZINC12217880
REMARK  10 active torsions:
REMARK  status: ('A' for Active; 'I' for Inactive)
REMARK    1  A    between atoms: C_1  and  C_2
REMARK    2  A    between atoms: C_4  and  C_10
REMARK    3  A    between atoms: C_7  and  O_8
REMARK    4  A    between atoms: O_8  and  C_9
REMARK    5  A    between atoms: C_10  and  N_72
REMARK    6  A    between atoms: C_13  and  C_16
REMARK    7  A    between atoms: C_13  and  O_37
REMARK    8  A    between atoms: C_23  and  C_25
REMARK    9  A    between atoms: C_29  and  C_36
REMARK   10  A    between atoms: C_32  and  C_35
REMARK                            x       y       z     vdW  Elec       q    Type
REMARK                         _______ _______ _______ _____ _____    ______ ____
ROOT
ATOM      1  C   UNL     1      -2.136   0.099  -1.261  0.00  0.00    -0.075 C 
ATOM      2  C   UNL     1      -1.480  -0.288   0.067  0.00  0.00    +0.021 C 
ATOM      3  C   UNL     1       0.028  -0.035  -0.022  0.00  0.00    +0.088 C 
ATOM      4  C   UNL     1       0.604  -0.838  -1.191  0.00  0.00    +0.021 C 
ATOM      5  C   UNL     1      -0.112  -0.435  -2.482  0.00  0.00    -0.075 C 
ATOM      6  N   UNL     1      -1.555  -0.726  -2.341  0.00  0.00    +0.383 N 
ATOM      7  H   UNL     1      -1.673  -1.718  -2.103  0.00  0.00    -0.081 HD
ENDROOT
BRANCH   3   8
ATOM      8  C   UNL     1       0.687  -0.468   1.262  0.00  0.00    -0.015 A 
ATOM      9  C   UNL     1       0.139  -1.506   2.003  0.00  0.00    +0.010 A 
ATOM     10  C   UNL     1       0.725  -1.918   3.180  0.00  0.00    +0.047 A 
ATOM     11  C   UNL     1       1.879  -1.291   3.635  0.00  0.00    +0.136 A 
ATOM     12  C   UNL     1       2.431  -0.240   2.880  0.00  0.00    +0.021 A 
ATOM     13  C   UNL     1       1.824   0.159   1.686  0.00  0.00    +0.018 A 
ATOM     14  C   UNL     1       3.617   0.197   3.616  0.00  0.00    +0.063 A 
ATOM     15  C   UNL     1       3.688  -0.594   4.718  0.00  0.00    +0.191 A 
ATOM     16  O   UNL     1       2.659  -1.467   4.719  0.00  0.00    -0.450 OA
BRANCH  15  17
ATOM     17  C   UNL     1       4.729  -0.512   5.752  0.00  0.00    +0.282 C 
ATOM     18  O   UNL     1       5.536   0.399   5.732  0.00  0.00    -0.267 OA
ATOM     19  N   UNL     1       4.790  -1.445   6.723  0.00  0.00    -0.290 N 
ATOM     20  C   UNL     1       3.928  -2.637   6.682  0.00  0.00    +0.139 C 
ATOM     21  C   UNL     1       4.808  -3.877   6.881  0.00  0.00    +0.133 C 
ATOM     22  O   UNL     1       5.601  -3.706   8.058  0.00  0.00    -0.371 OA
ATOM     23  C   UNL     1       6.513  -2.607   7.996  0.00  0.00    +0.133 C 
ATOM     24  C   UNL     1       5.724  -1.305   7.851  0.00  0.00    +0.139 C 
ATOM     25  C   UNL     1       7.348  -2.562   9.277  0.00  0.00    +0.039 C 
ATOM     26  C   UNL     1       3.920  -5.113   7.037  0.00  0.00    +0.039 C 
ENDBRANCH  15  17
ENDBRANCH   3   8
BRANCH   3  27
ATOM     27  O   UNL     1       0.267   1.358  -0.235  0.00  0.00    -0.384 OA
ATOM     28  H   UNL     1       1.203   1.591  -0.301  0.00  0.00    +0.211 HD
ENDBRANCH   3  27
BRANCH   6  29
ATOM     29  C   UNL     1      -2.251  -0.453  -3.615  0.00  0.00    -0.043 C 
BRANCH  29  33
ATOM     30  C   UNL     1      -2.765  -4.895  -5.859  0.00  0.00    +0.047 C 
ATOM     31  C   UNL     1      -2.041  -3.581  -5.717  0.00  0.00    -0.009 A 
ATOM     32  C   UNL     1      -2.458  -2.661  -4.775  0.00  0.00    +0.008 A 
ATOM     33  C   UNL     1      -1.794  -1.455  -4.643  0.00  0.00    -0.063 A 
ATOM     34  C   UNL     1      -0.714  -1.166  -5.457  0.00  0.00    +0.005 A 
ATOM     35  C   UNL     1      -0.289  -2.085  -6.396  0.00  0.00    +0.046 A 
ATOM     36  C   UNL     1      -0.954  -3.296  -6.530  0.00  0.00    +0.123 A 
BRANCH  36  37
ATOM     37  O   UNL     1      -0.541  -4.200  -7.457  0.00  0.00    -0.495 OA
ATOM     38  C   UNL     1       0.584  -3.838  -8.260  0.00  0.00    +0.277 C 
ENDBRANCH  36  37
ENDBRANCH  29  33
ENDBRANCH   6  29
TORSDOF 6
