REMARK  Name = ZINC63271386
REMARK  4 active torsions:
REMARK  status: ('A' for Active; 'I' for Inactive)
REMARK    1  A    between atoms: N_17  and  C_18
REMARK    2  A    between atoms: C_18  and  C_19
REMARK    3  A    between atoms: N_21  and  C_22
REMARK    4  A    between atoms: C_22  and  C_23
REMARK                            x       y       z     vdW  Elec       q    Type
REMARK                         _______ _______ _______ _____ _____    ______ ____
ROOT
ATOM      1  C   UNL     1      -0.010   1.351   0.010  0.00  0.00    +0.001 A 
ATOM      2  C   UNL     1       1.172   2.104   0.008  0.00  0.00    +0.002 A 
ATOM      3  C   UNL     1       2.396   1.536  -0.007  0.00  0.00    +0.026 A 
ATOM      4  C   UNL     1       2.535   0.122  -0.021  0.00  0.00    +0.043 A 
ATOM      5  N   UNL     1       3.597  -0.651  -0.017  0.00  0.00    -0.376 N 
ATOM      6  C   UNL     1       3.160  -2.042  -0.115  0.00  0.00    +0.124 C 
ATOM      7  C   UNL     1       3.674  -2.887   1.056  0.00  0.00    +0.138 C 
ATOM      8  N   UNL     1       2.879  -4.124   1.104  0.00  0.00    -0.283 N 
ATOM      9  C   UNL     1       1.425  -4.071   1.288  0.00  0.00    +0.114 C 
ATOM     10  C   UNL     1       0.798  -3.236   0.155  0.00  0.00    +0.052 C 
ATOM     11  C   UNL     1       1.644  -1.995  -0.018  0.00  0.00    -0.036 C 
ATOM     12  C   UNL     1       1.299  -0.699  -0.013  0.00  0.00    -0.001 A 
ATOM     13  C   UNL     1       0.008  -0.001  -0.000  0.00  0.00    +0.010 A 
ATOM     14  C   UNL     1       3.492  -5.317   0.976  0.00  0.00    +0.303 C 
ATOM     15  O   UNL     1       4.682  -5.366   0.728  0.00  0.00    -0.253 OA
ATOM     16  N   UNL     1       2.788  -6.456   1.124  0.00  0.00    -0.291 N 
ATOM     17  H   UNL     1       1.827  -6.419   1.249  0.00  0.00    +0.151 HD
ATOM     18  H   UNL     1       4.517  -0.350   0.042  0.00  0.00    +0.160 HD
ENDROOT
BRANCH  16  19
ATOM     19  C   UNL     1       3.473  -7.751   1.094  0.00  0.00    +0.201 C 
BRANCH  19  20
ATOM     20  C   UNL     1       2.467  -8.857   1.280  0.00  0.00    +0.231 C 
ATOM     21  O   UNL     1       1.292  -8.590   1.423  0.00  0.00    -0.274 OA
ATOM     22  N   UNL     1       2.872 -10.142   1.288  0.00  0.00    -0.310 N 
ATOM     23  H   UNL     1       3.811 -10.355   1.173  0.00  0.00    +0.149 HD
BRANCH  22  24
ATOM     24  C   UNL     1       1.893 -11.217   1.468  0.00  0.00    +0.141 C 
BRANCH  24  25
ATOM     25  C   UNL     1       2.598 -12.549   1.438  0.00  0.00    -0.012 A 
ATOM     26  C   UNL     1       2.775 -13.223   0.239  0.00  0.00    +0.008 A 
ATOM     27  C   UNL     1       3.430 -14.445   0.260  0.00  0.00    +0.020 A 
ATOM     28  C   UNL     1       3.881 -14.947   1.466  0.00  0.00    +0.111 A 
ATOM     29  N   UNL     1       3.695 -14.279   2.587  0.00  0.00    -0.263 NA
ATOM     30  C   UNL     1       3.082 -13.111   2.604  0.00  0.00    +0.115 A 
ENDBRANCH  24  25
ENDBRANCH  22  24
ENDBRANCH  19  20
ENDBRANCH  16  19
TORSDOF 4
