REMARK  Name = ZINC23078006
REMARK  12 active torsions:
REMARK  status: ('A' for Active; 'I' for Inactive)
REMARK    1  A    between atoms: C_1  and  C_2
REMARK    2  A    between atoms: C_5  and  S_8
REMARK    3  A    between atoms: S_8  and  C_11
REMARK    4  A    between atoms: C_14  and  N_17
REMARK    5  A    between atoms: N_17  and  N_18
REMARK    6  A    between atoms: C_19  and  C_21
REMARK    7  A    between atoms: C_21  and  C_23
REMARK    8  A    between atoms: C_21  and  N_26
REMARK    9  A    between atoms: C_23  and  C_24
REMARK   10  A    between atoms: C_23  and  C_25
REMARK   11  A    between atoms: C_27  and  C_29
REMARK   12  A    between atoms: C_33  and  C_35
REMARK                            x       y       z     vdW  Elec       q    Type
REMARK                         _______ _______ _______ _____ _____    ______ ____
ROOT
ATOM      1  N   UNL     1       2.399   9.562  -0.080  0.00  0.00    -0.235 N 
ATOM      2  C   UNL     1       2.380   8.220  -0.206  0.00  0.00    +0.250 C 
ATOM      3  O   UNL     1       3.398   7.622  -0.483  0.00  0.00    -0.272 OA
ATOM      4  H   UNL     1       1.497  10.096   0.251  0.00  0.00    +0.173 HD
ENDROOT
BRANCH   1   5
ATOM      5  N   UNL     1       3.569  10.276  -0.371  0.00  0.00    -0.264 N 
ATOM      6  H   UNL     1       4.472   9.741  -0.703  0.00  0.00    +0.170 HD
BRANCH   5  10
ATOM      7  C   UNL     1       3.629  14.421   0.017  0.00  0.00    +0.094 A 
ATOM      8  C   UNL     1       4.764  13.751  -0.400  0.00  0.00    +0.029 A 
ATOM      9  C   UNL     1       4.748  12.376  -0.529  0.00  0.00    +0.026 A 
ATOM     10  C   UNL     1       3.589  11.666  -0.241  0.00  0.00    +0.045 A 
ATOM     11  C   UNL     1       2.449  12.343   0.172  0.00  0.00    +0.026 A 
ATOM     12  C   UNL     1       2.474  13.718   0.305  0.00  0.00    +0.029 A 
BRANCH   7  13
ATOM     13  S   UNL     1       3.654  16.175   0.181  0.00  0.00    +0.025 S 
ATOM     14  O   UNL     1       2.631  16.511   1.109  0.00  0.00    -0.164 OA
ATOM     15  O   UNL     1       5.012  16.545   0.377  0.00  0.00    -0.164 OA
BRANCH  13  20
ATOM     16  C   UNL     1       1.986  18.489  -5.136  0.00  0.00    +0.044 C 
ATOM     17  C   UNL     1       2.403  17.911  -3.808  0.00  0.00    -0.050 A 
ATOM     18  C   UNL     1       1.450  17.629  -2.847  0.00  0.00    +0.005 A 
ATOM     19  C   UNL     1       1.832  17.099  -1.629  0.00  0.00    +0.027 A 
ATOM     20  C   UNL     1       3.167  16.851  -1.372  0.00  0.00    +0.094 A 
ATOM     21  C   UNL     1       4.121  17.137  -2.331  0.00  0.00    +0.027 A 
ATOM     22  C   UNL     1       3.738  17.663  -3.550  0.00  0.00    +0.005 A 
ENDBRANCH  13  20
ENDBRANCH   7  13
ENDBRANCH   5  10
ENDBRANCH   1   5
BRANCH   2  23
ATOM     23  C   UNL     1       1.093   7.463  -0.003  0.00  0.00    +0.163 C 
BRANCH  23  24
ATOM     24  N   UNL     1       1.120   6.232  -0.797  0.00  0.00    -0.300 N 
ATOM     25  C   UNL     1      -0.034   5.657  -1.188  0.00  0.00    +0.245 C 
ATOM     26  O   UNL     1      -1.098   6.160  -0.882  0.00  0.00    -0.270 OA
ATOM     27  H   UNL     1       2.083   5.777  -1.073  0.00  0.00    +0.150 HD
BRANCH  25  28
ATOM     28  C   UNL     1      -0.007   4.415  -1.990  0.00  0.00    +0.037 A 
ATOM     29  C   UNL     1       1.213   3.835  -2.342  0.00  0.00    +0.013 A 
ATOM     30  C   UNL     1       1.231   2.676  -3.091  0.00  0.00    +0.001 A 
ATOM     31  C   UNL     1       0.044   2.089  -3.492  0.00  0.00    +0.003 A 
ATOM     32  C   UNL     1      -1.168   2.661  -3.150  0.00  0.00    -0.050 A 
ATOM     33  C   UNL     1      -1.200   3.817  -2.397  0.00  0.00    +0.016 A 
ATOM     34  C   UNL     1      -2.456   2.018  -3.596  0.00  0.00    +0.044 C 
ENDBRANCH  25  28
ENDBRANCH  23  24
BRANCH  23  35
ATOM     35  C   UNL     1       0.937   7.111   1.478  0.00  0.00    +0.012 C 
ATOM     36  C   UNL     1       0.859   8.398   2.302  0.00  0.00    +0.009 C 
ATOM     37  C   UNL     1      -0.345   6.300   1.677  0.00  0.00    +0.009 C 
ENDBRANCH  23  35
ENDBRANCH   2  23
TORSDOF 8
