REMARK  Name = ZINC45626243
REMARK  6 active torsions:
REMARK  status: ('A' for Active; 'I' for Inactive)
REMARK    1  A    between atoms: C_4  and  N_7
REMARK    2  A    between atoms: C_8  and  C_20
REMARK    3  A    between atoms: N_9  and  N_10
REMARK    4  A    between atoms: C_11  and  C_12
REMARK    5  A    between atoms: C_15  and  O_19
REMARK    6  A    between atoms: C_17  and  O_18
REMARK                            x       y       z     vdW  Elec       q    Type
REMARK                         _______ _______ _______ _____ _____    ______ ____
ROOT
ATOM      1  N   UNL     1       3.615  -0.656  -0.130  0.00  0.00    -0.297 N 
ATOM      2  C   UNL     1       3.631  -2.039  -0.155  0.00  0.00    +0.160 C 
ATOM      3  N   UNL     1       2.500  -2.710  -0.163  0.00  0.00    -0.261 N 
ATOM      4  H   UNL     1       2.909  -0.171  -0.584  0.00  0.00    +0.154 HD
ATOM      5  H   UNL     1       2.510  -3.679  -0.106  0.00  0.00    +0.190 HD
ENDROOT
BRANCH   2   6
ATOM      6  C   UNL     1       4.915  -2.760  -0.173  0.00  0.00    +0.172 A 
ATOM      7  N   UNL     1       5.054  -4.125  -0.182  0.00  0.00    -0.336 N 
ATOM      8  H   UNL     1       4.337  -4.778  -0.178  0.00  0.00    +0.167 HD
ATOM      9  C   UNL     1       6.407  -4.393  -0.198  0.00  0.00    +0.067 A 
ATOM     10  C   UNL     1       7.158  -5.561  -0.212  0.00  0.00    +0.028 A 
ATOM     11  C   UNL     1       8.535  -5.488  -0.227  0.00  0.00    +0.002 A 
ATOM     12  C   UNL     1       9.175  -4.256  -0.227  0.00  0.00    +0.002 A 
ATOM     13  C   UNL     1       8.456  -3.096  -0.213  0.00  0.00    +0.030 A 
ATOM     14  C   UNL     1       7.056  -3.143  -0.199  0.00  0.00    +0.090 A 
ATOM     15  N   UNL     1       6.099  -2.195  -0.189  0.00  0.00    -0.225 NA
ENDBRANCH   2   6
BRANCH   1  19
ATOM     16  C   UNL     1       6.601   1.425   1.892  0.00  0.00    +0.000 A 
ATOM     17  C   UNL     1       6.042   1.961   0.747  0.00  0.00    +0.002 A 
ATOM     18  C   UNL     1       5.052   1.273   0.073  0.00  0.00    +0.023 A 
ATOM     19  C   UNL     1       4.617   0.042   0.548  0.00  0.00    +0.032 A 
ATOM     20  C   UNL     1       5.181  -0.493   1.699  0.00  0.00    +0.023 A 
ATOM     21  C   UNL     1       6.171   0.199   2.368  0.00  0.00    +0.002 A 
ENDBRANCH   1  19
BRANCH   3  22
ATOM     22  N   UNL     1       1.377  -2.080  -0.247  0.00  0.00    -0.180 NA
ATOM     23  C   UNL     1       0.249  -2.739  -0.156  0.00  0.00    +0.144 C 
BRANCH  23  24
ATOM     24  C   UNL     1      -1.026  -2.042  -0.364  0.00  0.00    +0.036 A 
ATOM     25  C   UNL     1      -2.237  -2.717  -0.167  0.00  0.00    +0.016 A 
ATOM     26  C   UNL     1      -3.429  -2.059  -0.363  0.00  0.00    +0.046 A 
ATOM     27  C   UNL     1      -3.437  -0.725  -0.757  0.00  0.00    +0.120 A 
ATOM     28  C   UNL     1      -2.244  -0.046  -0.955  0.00  0.00    +0.091 A 
ATOM     29  C   UNL     1      -1.037  -0.693  -0.756  0.00  0.00    +0.129 A 
BRANCH  29  30
ATOM     30  O   UNL     1       0.132  -0.028  -0.944  0.00  0.00    -0.506 OA
ATOM     31  H   UNL     1       0.433  -0.015  -1.863  0.00  0.00    +0.292 HD
ENDBRANCH  29  30
BRANCH  27  32
ATOM     32  O   UNL     1      -4.619  -0.084  -0.949  0.00  0.00    -0.507 OA
ATOM     33  H   UNL     1      -4.963   0.351  -0.157  0.00  0.00    +0.292 HD
ENDBRANCH  27  32
ENDBRANCH  23  24
ENDBRANCH   3  22
TORSDOF 6
