REMARK  Name = ZINC28889980
REMARK  11 active torsions:
REMARK  status: ('A' for Active; 'I' for Inactive)
REMARK    1  A    between atoms: C_1  and  C_2
REMARK    2  A    between atoms: C_2  and  C_4
REMARK    3  A    between atoms: C_2  and  N_14
REMARK    4  A    between atoms: N_9  and  C_10
REMARK    5  A    between atoms: C_10  and  C_11
REMARK    6  A    between atoms: C_10  and  C_12
REMARK    7  A    between atoms: C_10  and  C_13
REMARK    8  A    between atoms: N_14  and  C_15
REMARK    9  A    between atoms: C_15  and  C_16
REMARK   10  A    between atoms: C_21  and  C_22
REMARK   11  A    between atoms: C_22  and  N_23
REMARK                            x       y       z     vdW  Elec       q    Type
REMARK                         _______ _______ _______ _____ _____    ______ ____
ROOT
ATOM      1  N   UNL     1      -0.345  -3.969  -1.224  0.00  0.00    +0.389 N 
ATOM      2  H   UNL     1      -0.485  -4.974  -0.799  0.00  0.00    -0.084 HD
ATOM      3  H   UNL     1       0.726  -3.794  -1.404  0.00  0.00    -0.084 HD
ENDROOT
BRANCH   1   5
ATOM      4  C   UNL     1      -0.431  -2.793  -3.370  0.00  0.00    -0.004 C 
ATOM      5  C   UNL     1      -1.078  -3.867  -2.493  0.00  0.00    +0.014 C 
BRANCH   5   6
ATOM      6  C   UNL     1      -1.033  -5.193  -3.207  0.00  0.00    +0.206 C 
ATOM      7  O   UNL     1      -0.448  -6.131  -2.709  0.00  0.00    -0.277 OA
ATOM      8  N   UNL     1      -1.643  -5.337  -4.401  0.00  0.00    -0.242 N 
ATOM      9  C   UNL     1      -1.602  -6.523  -5.039  0.00  0.00    +0.306 C 
ATOM     10  O   UNL     1      -1.016  -7.463  -4.540  0.00  0.00    -0.252 OA
ATOM     11  N   UNL     1      -2.212  -6.667  -6.233  0.00  0.00    -0.294 N 
ATOM     12  H   UNL     1      -2.173  -4.486  -4.853  0.00  0.00    +0.159 HD
ATOM     13  H   UNL     1      -2.743  -5.816  -6.685  0.00  0.00    +0.151 HD
BRANCH  11  14
ATOM     14  C   UNL     1      -2.168  -7.956  -6.927  0.00  0.00    +0.028 C 
ATOM     15  C   UNL     1      -2.815  -9.030  -6.050  0.00  0.00    +0.031 C 
ATOM     16  C   UNL     1      -2.932  -7.849  -8.249  0.00  0.00    +0.031 C 
ATOM     17  C   UNL     1      -0.713  -8.335  -7.208  0.00  0.00    +0.031 C 
ENDBRANCH  11  14
ENDBRANCH   5   6
ENDBRANCH   1   5
BRANCH   1  18
ATOM     18  C   UNL     1      -0.828  -2.976  -0.255  0.00  0.00    -0.045 C 
BRANCH  18  19
ATOM     19  C   UNL     1      -0.055  -3.111   1.031  0.00  0.00    -0.059 A 
ATOM     20  C   UNL     1      -0.604  -3.796   2.099  0.00  0.00    +0.002 A 
ATOM     21  C   UNL     1       0.104  -3.915   3.280  0.00  0.00    +0.000 A 
ATOM     22  C   UNL     1       1.362  -3.354   3.392  0.00  0.00    +0.000 A 
ATOM     23  C   UNL     1       1.913  -2.673   2.323  0.00  0.00    +0.005 A 
ATOM     24  C   UNL     1       1.206  -2.554   1.141  0.00  0.00    -0.025 A 
BRANCH  24  25
ATOM     25  C   UNL     1       1.806  -1.812  -0.025  0.00  0.00    +0.178 C 
BRANCH  25  26
ATOM     26  N   UNL     1       1.339  -0.424  -0.013  0.00  0.00    -0.267 N 
ATOM     27  C   UNL     1       2.119   0.677  -0.015  0.00  0.00    +0.108 A 
ATOM     28  C   UNL     1       1.307   1.759  -0.001  0.00  0.00    +0.041 A 
ATOM     29  C   UNL     1      -0.016   1.304   0.009  0.00  0.00    +0.134 A 
ATOM     30  N   UNL     1       0.002  -0.004   0.002  0.00  0.00    -0.179 NA
ENDBRANCH  25  26
ENDBRANCH  24  25
ENDBRANCH  18  19
ENDBRANCH   1  18
TORSDOF 7
