REMARK  Name = ZINC19219215
REMARK  10 active torsions:
REMARK  status: ('A' for Active; 'I' for Inactive)
REMARK    1  A    between atoms: C_1  and  C_2
REMARK    2  A    between atoms: C_8  and  O_34
REMARK    3  A    between atoms: N_15  and  C_18
REMARK    4  A    between atoms: C_18  and  C_19
REMARK    5  A    between atoms: C_19  and  C_21
REMARK    6  A    between atoms: C_19  and  O_33
REMARK    7  A    between atoms: C_24  and  O_31
REMARK    8  A    between atoms: C_25  and  N_27
REMARK    9  A    between atoms: C_28  and  C_30
REMARK   10  A    between atoms: O_31  and  C_32
REMARK                            x       y       z     vdW  Elec       q    Type
REMARK                         _______ _______ _______ _____ _____    ______ ____
ROOT
ATOM      1  C   UNL     1       7.863  -4.454  -7.252  0.00  0.00    +0.044 C 
ATOM      2  C   UNL     1       7.287  -3.901  -5.973  0.00  0.00    -0.050 A 
ATOM      3  C   UNL     1       5.931  -4.010  -5.723  0.00  0.00    +0.007 A 
ATOM      4  C   UNL     1       5.405  -3.507  -4.550  0.00  0.00    +0.046 A 
ATOM      5  C   UNL     1       6.234  -2.890  -3.619  0.00  0.00    +0.127 A 
ATOM      6  C   UNL     1       7.589  -2.776  -3.876  0.00  0.00    +0.023 A 
ATOM      7  C   UNL     1       8.112  -3.287  -5.053  0.00  0.00    +0.013 A 
ATOM      8  C   UNL     1       8.520  -2.097  -2.903  0.00  0.00    +0.152 C 
ATOM      9  C   UNL     1       7.854  -2.007  -1.528  0.00  0.00    +0.084 C 
ATOM     10  C   UNL     1       6.432  -1.468  -1.714  0.00  0.00    +0.110 C 
ATOM     11  O   UNL     1       5.680  -2.413  -2.474  0.00  0.00    -0.485 OA
ATOM     12  C   UNL     1       6.484  -0.131  -2.455  0.00  0.00    +0.029 C 
ATOM     13  C   UNL     1       5.066   0.433  -2.581  0.00  0.00    -0.075 C 
ATOM     14  N   UNL     1       4.490   0.614  -1.242  0.00  0.00    +0.382 N 
ATOM     15  C   UNL     1       4.383  -0.667  -0.533  0.00  0.00    -0.075 C 
ATOM     16  C   UNL     1       5.779  -1.266  -0.345  0.00  0.00    +0.029 C 
ATOM     17  H   UNL     1       5.172   1.260  -0.669  0.00  0.00    -0.082 HD
ENDROOT
BRANCH   8  18
ATOM     18  O   UNL     1       9.729  -2.852  -2.797  0.00  0.00    -0.387 OA
ATOM     19  H   UNL     1      10.533  -2.510  -2.129  0.00  0.00    +0.210 HD
ENDBRANCH   8  18
BRANCH  14  20
ATOM     20  C   UNL     1       3.186   1.285  -1.317  0.00  0.00    -0.042 C 
BRANCH  20  21
ATOM     21  C   UNL     1       2.566   1.352   0.080  0.00  0.00    +0.128 C 
BRANCH  21  22
ATOM     22  C   UNL     1       1.229   2.043   0.004  0.00  0.00    -0.019 A 
ATOM     23  C   UNL     1       1.168   3.424  -0.052  0.00  0.00    +0.010 A 
ATOM     24  C   UNL     1      -0.055   4.063  -0.122  0.00  0.00    +0.048 A 
ATOM     25  C   UNL     1      -1.225   3.321  -0.136  0.00  0.00    +0.141 A 
ATOM     26  C   UNL     1      -1.165   1.931  -0.085  0.00  0.00    +0.076 A 
ATOM     27  C   UNL     1       0.066   1.296  -0.009  0.00  0.00    +0.033 A 
BRANCH  26  28
ATOM     28  N   UNL     1      -2.345   1.175  -0.105  0.00  0.00    -0.283 N 
ATOM     29  C   UNL     1      -2.322  -0.099  -0.546  0.00  0.00    +0.214 C 
ATOM     30  O   UNL     1      -1.304  -0.558  -1.019  0.00  0.00    -0.276 OA
ATOM     31  C   UNL     1      -3.560  -0.952  -0.450  0.00  0.00    +0.109 C 
ATOM     32  H   UNL     1      -3.290   1.621   0.238  0.00  0.00    +0.155 HD
ENDBRANCH  26  28
BRANCH  25  33
ATOM     33  O   UNL     1      -2.429   3.949  -0.206  0.00  0.00    -0.493 OA
ATOM     34  C   UNL     1      -2.414   5.377  -0.262  0.00  0.00    +0.277 C 
ENDBRANCH  25  33
ENDBRANCH  21  22
BRANCH  21  35
ATOM     35  O   UNL     1       3.431   2.083   0.951  0.00  0.00    -0.389 OA
ATOM     36  H   UNL     1       3.151   2.236   2.003  0.00  0.00    +0.210 HD
ENDBRANCH  21  35
ENDBRANCH  20  21
ENDBRANCH  14  20
TORSDOF 7
