REMARK  Name = ZINC66864354
REMARK  6 active torsions:
REMARK  status: ('A' for Active; 'I' for Inactive)
REMARK    1  A    between atoms: C_3  and  C_6
REMARK    2  A    between atoms: C_6  and  C_8
REMARK    3  A    between atoms: C_6  and  N_15
REMARK    4  A    between atoms: C_16  and  C_18
REMARK    5  A    between atoms: C_18  and  N_19
REMARK    6  A    between atoms: C_23  and  C_25
REMARK                            x       y       z     vdW  Elec       q    Type
REMARK                         _______ _______ _______ _____ _____    ______ ____
ROOT
ATOM      1  N   UNL     1       4.587   1.010   0.851  0.00  0.00    -0.306 N 
ATOM      2  C   UNL     1       4.641   1.268   2.173  0.00  0.00    +0.197 C 
ATOM      3  O   UNL     1       4.007   2.191   2.638  0.00  0.00    -0.278 OA
ATOM      4  H   UNL     1       5.094   0.272   0.480  0.00  0.00    +0.150 HD
ENDROOT
BRANCH   1   5
ATOM      5  C   UNL     1       3.761   1.845  -0.024  0.00  0.00    +0.140 C 
BRANCH   5   6
ATOM      6  C   UNL     1       4.303   1.790  -1.429  0.00  0.00    -0.022 A 
ATOM      7  C   UNL     1       4.760   0.592  -1.947  0.00  0.00    +0.008 A 
ATOM      8  C   UNL     1       5.258   0.540  -3.235  0.00  0.00    +0.038 A 
ATOM      9  C   UNL     1       5.298   1.689  -4.008  0.00  0.00    +0.123 A 
ATOM     10  C   UNL     1       4.840   2.888  -3.488  0.00  0.00    +0.038 A 
ATOM     11  C   UNL     1       4.338   2.936  -2.202  0.00  0.00    +0.008 A 
ATOM     12  F   UNL     1       5.784   1.639  -5.267  0.00  0.00    -0.205 F 
ENDBRANCH   5   6
BRANCH   5  15
ATOM     13  C   UNL     1      -0.016   1.351   0.009  0.00  0.00    +0.008 A 
ATOM     14  C   UNL     1       1.183   2.038   0.002  0.00  0.00    +0.013 A 
ATOM     15  C   UNL     1       2.343   1.336  -0.013  0.00  0.00    +0.014 A 
ATOM     16  S   UNL     1       1.754  -0.349  -0.017  0.00  0.00    -0.099 S 
ATOM     17  C   UNL     1       0.002  -0.004   0.002  0.00  0.00    +0.045 A 
ENDBRANCH   5  15
ENDBRANCH   1   5
BRANCH   2  18
ATOM     18  C   UNL     1       5.491   0.409   3.074  0.00  0.00    +0.020 C 
BRANCH  18  19
ATOM     19  N   UNL     1       5.381   0.892   4.457  0.00  0.00    +0.393 N 
ATOM     20  C   UNL     1       4.016   0.634   4.982  0.00  0.00    -0.077 C 
ATOM     21  C   UNL     1       4.218   0.653   6.518  0.00  0.00    -0.020 C 
ATOM     22  C   UNL     1       5.596  -0.026   6.694  0.00  0.00    -0.008 C 
ATOM     23  C   UNL     1       6.301   0.136   5.335  0.00  0.00    +0.020 C 
ATOM     24  H   UNL     1       5.591   1.878   4.500  0.00  0.00    -0.080 HD
BRANCH  23  25
ATOM     25  C   UNL     1       7.587   0.902   5.512  0.00  0.00    +0.197 C 
ATOM     26  O   UNL     1       7.734   1.974   4.964  0.00  0.00    -0.278 OA
ATOM     27  N   UNL     1       8.572   0.395   6.279  0.00  0.00    -0.331 N 
ATOM     28  H   UNL     1       8.454  -0.462   6.716  0.00  0.00    +0.145 HD
ATOM     29  H   UNL     1       9.400   0.888   6.392  0.00  0.00    +0.145 HD
ENDBRANCH  23  25
ENDBRANCH  18  19
ENDBRANCH   2  18
TORSDOF 6
