REMARK  Name = ZINC60343151
REMARK  12 active torsions:
REMARK  status: ('A' for Active; 'I' for Inactive)
REMARK    1  A    between atoms: C_1  and  C_2
REMARK    2  A    between atoms: C_2  and  C_4
REMARK    3  A    between atoms: C_2  and  N_24
REMARK    4  A    between atoms: N_10  and  C_11
REMARK    5  A    between atoms: C_11  and  C_12
REMARK    6  A    between atoms: N_17  and  C_18
REMARK    7  A    between atoms: C_18  and  C_19
REMARK    8  A    between atoms: C_25  and  O_27
REMARK    9  A    between atoms: O_27  and  C_28
REMARK   10  A    between atoms: C_28  and  C_29
REMARK   11  A    between atoms: C_28  and  C_30
REMARK   12  A    between atoms: C_28  and  C_31
REMARK                            x       y       z     vdW  Elec       q    Type
REMARK                         _______ _______ _______ _____ _____    ______ ____
ROOT
ATOM      1  C   UNL     1       0.718  -0.497  -1.257  0.00  0.00    -0.047 C 
ATOM      2  C   UNL     1       2.188  -0.074  -1.206  0.00  0.00    -0.014 C 
ATOM      3  C   UNL     1       2.900  -0.570  -2.467  0.00  0.00    -0.003 C 
ATOM      4  C   UNL     1       2.179  -0.017  -3.700  0.00  0.00    -0.019 C 
ATOM      5  C   UNL     1       0.710  -0.443  -3.659  0.00  0.00    -0.078 C 
ATOM      6  N   UNL     1       0.079   0.085  -2.443  0.00  0.00    +0.388 N 
ATOM      7  H   UNL     1       0.181   1.088  -2.420  0.00  0.00    -0.081 HD
ENDROOT
BRANCH   1   9
ATOM      8  C   UNL     1      -0.019   1.526   0.010  0.00  0.00    +0.026 C 
ATOM      9  C   UNL     1       0.002  -0.004   0.002  0.00  0.00    +0.060 C 
BRANCH   9  10
ATOM     10  N   UNL     1       0.711  -0.489   1.189  0.00  0.00    -0.280 N 
ATOM     11  C   UNL     1       0.051  -0.633   2.355  0.00  0.00    +0.401 C 
ATOM     12  O   UNL     1      -1.131  -0.361   2.423  0.00  0.00    -0.226 OA
ATOM     13  H   UNL     1       1.654  -0.707   1.135  0.00  0.00    +0.152 HD
BRANCH  11  14
ATOM     14  O   UNL     1       0.702  -1.079   3.446  0.00  0.00    -0.445 OA
BRANCH  14  15
ATOM     15  C   UNL     1      -0.059  -1.208   4.649  0.00  0.00    +0.107 C 
ATOM     16  C   UNL     1      -1.206  -2.195   4.423  0.00  0.00    +0.055 C 
ATOM     17  C   UNL     1       0.844  -1.724   5.771  0.00  0.00    +0.055 C 
ATOM     18  C   UNL     1      -0.629   0.157   5.040  0.00  0.00    +0.055 C 
ENDBRANCH  14  15
ENDBRANCH  11  14
ENDBRANCH   9  10
ENDBRANCH   1   9
BRANCH   6  19
ATOM     19  C   UNL     1      -1.349  -0.259  -2.446  0.00  0.00    +0.019 C 
BRANCH  19  20
ATOM     20  C   UNL     1      -2.031   0.438  -3.595  0.00  0.00    +0.204 C 
ATOM     21  O   UNL     1      -1.391   1.152  -4.337  0.00  0.00    -0.277 OA
ATOM     22  N   UNL     1      -3.353   0.269  -3.796  0.00  0.00    -0.242 N 
ATOM     23  C   UNL     1      -3.963   0.893  -4.824  0.00  0.00    +0.306 C 
ATOM     24  O   UNL     1      -3.322   1.608  -5.568  0.00  0.00    -0.252 OA
ATOM     25  N   UNL     1      -5.285   0.724  -5.025  0.00  0.00    -0.294 N 
ATOM     26  H   UNL     1      -3.865  -0.302  -3.202  0.00  0.00    +0.159 HD
ATOM     27  H   UNL     1      -5.797   0.153  -4.431  0.00  0.00    +0.151 HD
BRANCH  25  28
ATOM     28  C   UNL     1      -5.948   1.402  -6.142  0.00  0.00    +0.148 C 
BRANCH  28  29
ATOM     29  C   UNL     1      -7.413   1.049  -6.145  0.00  0.00    +0.007 A 
ATOM     30  C   UNL     1      -8.445   1.678  -5.531  0.00  0.00    +0.013 A 
ATOM     31  C   UNL     1      -9.722   1.170  -5.675  0.00  0.00    +0.008 A 
ATOM     32  C   UNL     1      -9.906   0.058  -6.427  0.00  0.00    +0.045 A 
ATOM     33  S   UNL     1      -8.242  -0.303  -6.966  0.00  0.00    -0.100 S 
ENDBRANCH  28  29
ENDBRANCH  25  28
ENDBRANCH  19  20
ENDBRANCH   6  19
TORSDOF 8
