REMARK  Name = ZINC02433149
REMARK  10 active torsions:
REMARK  status: ('A' for Active; 'I' for Inactive)
REMARK    1  A    between atoms: C_1  and  C_2
REMARK    2  A    between atoms: C_3  and  C_35
REMARK    3  A    between atoms: C_5  and  N_11
REMARK    4  A    between atoms: C_6  and  C_7
REMARK    5  A    between atoms: C_7  and  O_9
REMARK    6  A    between atoms: O_9  and  C_10
REMARK    7  A    between atoms: C_12  and  C_14
REMARK    8  A    between atoms: C_14  and  N_15
REMARK    9  A    between atoms: C_18  and  O_34
REMARK   10  A    between atoms: C_25  and  C_27
REMARK                            x       y       z     vdW  Elec       q    Type
REMARK                         _______ _______ _______ _____ _____    ______ ____
ROOT
ATOM      1  N   UNL     1       0.108  -6.809   2.242  0.00  0.00    +0.390 N 
ATOM      2  C   UNL     1       1.357  -6.989   1.493  0.00  0.00    -0.075 C 
ATOM      3  C   UNL     1       1.350  -8.352   0.797  0.00  0.00    +0.016 C 
ATOM      4  C   UNL     1       1.213  -9.454   1.851  0.00  0.00    +0.066 C 
ATOM      5  C   UNL     1       1.149 -10.819   1.170  0.00  0.00    +0.035 C 
ATOM      6  C   UNL     1      -0.068 -10.876   0.244  0.00  0.00    +0.003 C 
ATOM      7  C   UNL     1      -1.340 -10.654   1.065  0.00  0.00    +0.000 C 
ATOM      8  C   UNL     1      -1.278  -9.280   1.735  0.00  0.00    +0.005 C 
ATOM      9  C   UNL     1      -0.063  -9.215   2.663  0.00  0.00    +0.011 C 
ATOM     10  C   UNL     1       0.007  -7.822   3.299  0.00  0.00    -0.031 C 
ATOM     11  H   UNL     1      -0.675  -6.901   1.612  0.00  0.00    -0.080 HD
ENDROOT
BRANCH  10  12
ATOM     12  C   UNL     1      -1.239  -7.578   4.111  0.00  0.00    -0.060 A 
ATOM     13  C   UNL     1      -2.411  -7.202   3.482  0.00  0.00    +0.005 A 
ATOM     14  C   UNL     1      -3.554  -6.979   4.227  0.00  0.00    +0.038 A 
ATOM     15  C   UNL     1      -3.524  -7.131   5.603  0.00  0.00    +0.123 A 
ATOM     16  C   UNL     1      -2.349  -7.508   6.231  0.00  0.00    +0.038 A 
ATOM     17  C   UNL     1      -1.209  -7.736   5.484  0.00  0.00    +0.005 A 
ATOM     18  F   UNL     1      -4.641  -6.912   6.331  0.00  0.00    -0.205 F 
ENDBRANCH  10  12
BRANCH   4  19
ATOM     19  O   UNL     1       2.344  -9.418   2.724  0.00  0.00    -0.388 OA
ATOM     20  H   UNL     1       3.191  -9.553   2.276  0.00  0.00    +0.210 HD
ENDBRANCH   4  19
BRANCH   1  21
ATOM     21  C   UNL     1       0.092  -5.470   2.847  0.00  0.00    +0.020 C 
BRANCH  21  23
ATOM     22  N   UNL     1       0.055  -3.118   2.081  0.00  0.00    -0.281 N 
ATOM     23  C   UNL     1       0.072  -4.427   1.760  0.00  0.00    +0.201 C 
ATOM     24  O   UNL     1       0.072  -4.765   0.595  0.00  0.00    -0.278 OA
ATOM     25  H   UNL     1       0.055  -2.848   3.013  0.00  0.00    +0.155 HD
BRANCH  22  30
ATOM     26  C   UNL     1      -0.018   1.503   0.010  0.00  0.00    +0.045 C 
ATOM     27  C   UNL     1       0.002  -0.004   0.002  0.00  0.00    -0.025 A 
ATOM     28  C   UNL     1       0.007  -0.712  -1.142  0.00  0.00    -0.008 A 
ATOM     29  S   UNL     1       0.033  -2.400  -0.580  0.00  0.00    -0.078 S 
ATOM     30  C   UNL     1       0.037  -2.159   1.081  0.00  0.00    +0.086 A 
ATOM     31  C   UNL     1       0.024  -0.778   1.223  0.00  0.00    +0.091 A 
ATOM     32  C   UNL     1      -0.007  -0.199  -2.559  0.00  0.00    +0.052 C 
BRANCH  31  33
ATOM     33  C   UNL     1       0.028  -0.139   2.540  0.00  0.00    +0.342 C 
ATOM     34  O   UNL     1      -1.024   0.112   3.097  0.00  0.00    -0.245 OA
BRANCH  33  35
ATOM     35  O   UNL     1       1.198   0.171   3.136  0.00  0.00    -0.464 OA
ATOM     36  C   UNL     1       1.127   0.793   4.420  0.00  0.00    +0.280 C 
ENDBRANCH  33  35
ENDBRANCH  31  33
ENDBRANCH  22  30
ENDBRANCH  21  23
ENDBRANCH   1  21
TORSDOF 7
