REMARK  Name = ZINC17288703
REMARK  6 active torsions:
REMARK  status: ('A' for Active; 'I' for Inactive)
REMARK    1  A    between atoms: C_1  and  C_2
REMARK    2  A    between atoms: C_2  and  N_59
REMARK    3  A    between atoms: N_14  and  C_17
REMARK    4  A    between atoms: N_23  and  C_24
REMARK    5  A    between atoms: C_27  and  S_30
REMARK    6  A    between atoms: S_30  and  C_31
REMARK                            x       y       z     vdW  Elec       q    Type
REMARK                         _______ _______ _______ _____ _____    ______ ____
ROOT
ATOM      1  C   UNL     1      -3.640  -0.432   0.968  0.00  0.00    -0.060 C 
ATOM      2  C   UNL     1      -2.340   0.323   0.681  0.00  0.00    +0.089 C 
ATOM      3  N   UNL     1      -1.214  -0.622   0.694  0.00  0.00    -0.303 N 
ATOM      4  C   UNL     1      -1.401  -1.672  -0.317  0.00  0.00    +0.089 C 
ATOM      5  C   UNL     1      -2.701  -2.427  -0.031  0.00  0.00    -0.060 C 
ATOM      6  C   UNL     1      -0.012   0.037   0.508  0.00  0.00    +0.221 A 
ATOM      7  N   UNL     1      -0.023   1.356   0.352  0.00  0.00    -0.198 NA
ATOM      8  C   UNL     1       1.104   2.035   0.172  0.00  0.00    +0.139 A 
ATOM      9  C   UNL     1       2.321   1.324   0.148  0.00  0.00    +0.079 A 
ATOM     10  C   UNL     1       3.676   1.685  -0.016  0.00  0.00    +0.148 A 
ATOM     11  N   UNL     1       4.402   0.605   0.047  0.00  0.00    -0.172 NA
ATOM     12  N   UNL     1       3.577  -0.508   0.253  0.00  0.00    -0.214 N 
ATOM     13  C   UNL     1       2.283  -0.073   0.317  0.00  0.00    +0.170 A 
ATOM     14  N   UNL     1       1.106  -0.670   0.493  0.00  0.00    -0.194 NA
ATOM     15  N   UNL     1       1.083   3.406   0.010  0.00  0.00    -0.299 N 
ATOM     16  H   UNL     1       1.916   3.901  -0.041  0.00  0.00    +0.154 HD
ATOM     17  N   UNL     1      -3.826  -1.470  -0.068  0.00  0.00    +0.382 N 
ATOM     18  H   UNL     1      -3.851  -1.020  -0.991  0.00  0.00    -0.082 HD
ENDROOT
BRANCH  12  19
ATOM     19  C   UNL     1       4.004  -1.836   0.372  0.00  0.00    +0.068 A 
ATOM     20  C   UNL     1       3.347  -2.703   1.236  0.00  0.00    +0.028 A 
ATOM     21  C   UNL     1       3.768  -4.014   1.347  0.00  0.00    +0.002 A 
ATOM     22  C   UNL     1       4.848  -4.460   0.609  0.00  0.00    +0.000 A 
ATOM     23  C   UNL     1       5.508  -3.598  -0.248  0.00  0.00    +0.002 A 
ATOM     24  C   UNL     1       5.089  -2.288  -0.368  0.00  0.00    +0.028 A 
ENDBRANCH  12  19
BRANCH  15  25
ATOM     25  C   UNL     1      -0.140   4.083  -0.081  0.00  0.00    +0.032 A 
ATOM     26  C   UNL     1      -1.229   3.469  -0.686  0.00  0.00    +0.024 A 
ATOM     27  C   UNL     1      -2.436   4.134  -0.771  0.00  0.00    +0.017 A 
ATOM     28  C   UNL     1      -2.558   5.421  -0.262  0.00  0.00    +0.013 A 
ATOM     29  C   UNL     1      -1.466   6.037   0.338  0.00  0.00    +0.017 A 
ATOM     30  C   UNL     1      -0.261   5.369   0.428  0.00  0.00    +0.024 A 
BRANCH  28  31
ATOM     31  S   UNL     1      -4.096   6.272  -0.377  0.00  0.00    -0.056 S 
BRANCH  31  32
ATOM     32  C   UNL     1      -5.189   5.093  -1.217  0.00  0.00    +0.404 C 
ATOM     33  F   UNL     1      -4.662   4.784  -2.475  0.00  0.00    -0.197 F 
ATOM     34  F   UNL     1      -5.289   3.925  -0.453  0.00  0.00    -0.197 F 
ENDBRANCH  31  32
ENDBRANCH  28  31
ENDBRANCH  15  25
BRANCH  17  36
ATOM     35  C   UNL     1      -5.152  -3.418  -0.748  0.00  0.00    -0.017 C 
ATOM     36  C   UNL     1      -5.103  -2.182   0.153  0.00  0.00    -0.082 C 
ENDBRANCH  17  36
TORSDOF 5
