REMARK  Name = ZINC14175302
REMARK  2 active torsions:
REMARK  status: ('A' for Active; 'I' for Inactive)
REMARK    1  A    between atoms: C_10  and  C_12
REMARK    2  A    between atoms: C_12  and  N_13
REMARK                            x       y       z     vdW  Elec       q    Type
REMARK                         _______ _______ _______ _____ _____    ______ ____
ROOT
ATOM      1  N   UNL     1       1.390  -0.473  -0.014  0.00  0.00    -0.290 N 
ATOM      2  C   UNL     1       2.007  -0.686  -1.205  0.00  0.00    +0.203 A 
ATOM      3  N   UNL     1       3.244  -1.100  -1.262  0.00  0.00    -0.230 NA
ATOM      4  C   UNL     1       3.937  -1.337  -0.150  0.00  0.00    +0.116 A 
ATOM      5  C   UNL     1       3.382  -1.151   1.123  0.00  0.00    +0.076 A 
ATOM      6  C   UNL     1       2.026  -0.691   1.153  0.00  0.00    +0.263 A 
ATOM      7  O   UNL     1       1.458  -0.500   2.215  0.00  0.00    -0.267 OA
ATOM      8  C   UNL     1       4.263  -1.451   2.261  0.00  0.00    -0.023 A 
ATOM      9  C   UNL     1       5.506  -1.874   1.973  0.00  0.00    -0.004 A 
ATOM     10  S   UNL     1       5.583  -1.897   0.197  0.00  0.00    -0.073 S 
ATOM     11  C   UNL     1       6.313  -2.153   3.213  0.00  0.00    +0.043 C 
ATOM     12  C   UNL     1       5.265  -2.258   4.342  0.00  0.00    +0.010 C 
ATOM     13  C   UNL     1       4.116  -1.396   3.785  0.00  0.00    +0.037 C 
ENDROOT
BRANCH   1  14
ATOM     14  C   UNL     1       0.002  -0.004   0.002  0.00  0.00    +0.222 C 
BRANCH  14  24
ATOM     15  C   UNL     1      -4.547   1.446  -1.484  0.00  0.00    +0.013 A 
ATOM     16  C   UNL     1      -5.309   2.065  -2.414  0.00  0.00    +0.046 A 
ATOM     17  S   UNL     1      -4.384   3.564  -2.710  0.00  0.00    -0.101 S 
ATOM     18  C   UNL     1      -3.055   3.252  -1.578  0.00  0.00    -0.004 A 
ATOM     19  C   UNL     1      -3.372   2.047  -1.033  0.00  0.00    -0.020 A 
ATOM     20  C   UNL     1      -2.463   1.419   0.015  0.00  0.00    +0.143 C 
ATOM     21  N   UNL     1      -1.195   2.161   0.019  0.00  0.00    -0.295 N 
ATOM     22  C   UNL     1      -1.226   3.631   0.028  0.00  0.00    +0.113 C 
ATOM     23  C   UNL     1      -1.864   4.107  -1.287  0.00  0.00    +0.061 C 
ATOM     24  C   UNL     1      -0.018   1.503   0.010  0.00  0.00    +0.236 C 
ATOM     25  O   UNL     1       1.024   2.123   0.004  0.00  0.00    -0.274 OA
ENDBRANCH  14  24
ENDBRANCH   1  14
TORSDOF 2
