REMARK  Name = ZINC35315028
REMARK  4 active torsions:
REMARK  status: ('A' for Active; 'I' for Inactive)
REMARK    1  A    between atoms: C_1  and  C_2
REMARK    2  A    between atoms: C_3  and  C_27
REMARK    3  A    between atoms: C_8  and  C_10
REMARK    4  A    between atoms: C_11  and  N_26
REMARK                            x       y       z     vdW  Elec       q    Type
REMARK                         _______ _______ _______ _____ _____    ______ ____
ROOT
ATOM      1  C   UNL     1       0.069  -3.303   4.543  0.00  0.00    +0.097 A 
ATOM      2  C   UNL     1       0.066  -3.002   5.886  0.00  0.00    +0.053 A 
ATOM      3  C   UNL     1       0.086  -4.101   6.844  0.00  0.00    +0.028 A 
ATOM      4  C   UNL     1       0.086  -4.018   8.250  0.00  0.00    +0.022 A 
ATOM      5  C   UNL     1       0.109  -5.197   8.996  0.00  0.00    +0.003 A 
ATOM      6  C   UNL     1       0.113  -5.184  10.404  0.00  0.00    +0.059 A 
ATOM      7  C   UNL     1       0.139  -6.361  11.092  0.00  0.00    +0.167 A 
ATOM      8  C   UNL     1       0.160  -7.597  10.423  0.00  0.00    +0.168 A 
ATOM      9  C   UNL     1       0.155  -7.666   9.058  0.00  0.00    +0.075 A 
ATOM     10  C   UNL     1       0.131  -6.486   8.300  0.00  0.00    +0.051 A 
ATOM     11  N   UNL     1       0.128  -6.507   6.965  0.00  0.00    -0.349 N 
ATOM     12  C   UNL     1       0.107  -5.398   6.266  0.00  0.00    +0.088 A 
ATOM     13  S   UNL     1       0.091  -5.084   4.516  0.00  0.00    -0.064 S 
ATOM     14  O   UNL     1       0.183  -8.592  11.359  0.00  0.00    -0.453 OA
ATOM     15  C   UNL     1       0.595  -7.960  12.584  0.00  0.00    +0.466 C 
ATOM     16  O   UNL     1       0.149  -6.599  12.438  0.00  0.00    -0.453 OA
ATOM     17  H   UNL     1       0.141  -7.360   6.503  0.00  0.00    +0.166 HD
ENDROOT
BRANCH   1  25
ATOM     18  C   UNL     1      -0.018   1.503   0.010  0.00  0.00    +0.066 C 
ATOM     19  C   UNL     1       0.002  -0.004   0.002  0.00  0.00    +0.050 A 
ATOM     20  C   UNL     1       0.006  -0.706  -1.158  0.00  0.00    +0.011 A 
ATOM     21  S   UNL     1       0.032  -2.379  -0.535  0.00  0.00    -0.057 S 
ATOM     22  C   UNL     1       0.035  -2.015   1.108  0.00  0.00    +0.165 A 
ATOM     23  N   UNL     1       0.023  -0.700   1.124  0.00  0.00    -0.230 NA
ATOM     24  N   UNL     1       0.052  -2.891   2.186  0.00  0.00    -0.260 N 
ATOM     25  C   UNL     1       0.051  -2.410   3.445  0.00  0.00    +0.258 C 
ATOM     26  O   UNL     1       0.037  -1.208   3.638  0.00  0.00    -0.269 OA
ATOM     27  C   UNL     1      -0.008  -0.210  -2.581  0.00  0.00    +0.053 C 
ATOM     28  H   UNL     1       0.064  -3.849   2.032  0.00  0.00    +0.157 HD
ENDBRANCH   1  25
BRANCH   2  29
ATOM     29  N   UNL     1       0.044  -1.684   6.317  0.00  0.00    -0.356 N 
ATOM     30  H   UNL     1       0.031  -0.962   5.670  0.00  0.00    +0.142 HD
ATOM     31  H   UNL     1       0.043  -1.484   7.266  0.00  0.00    +0.142 HD
ENDBRANCH   2  29
TORSDOF 2
