REMARK  Name = ZINC36202723
REMARK  10 active torsions:
REMARK  status: ('A' for Active; 'I' for Inactive)
REMARK    1  A    between atoms: C_3  and  C_6
REMARK    2  A    between atoms: C_6  and  N_7
REMARK    3  A    between atoms: N_7  and  C_8
REMARK    4  A    between atoms: N_7  and  C_14
REMARK    5  A    between atoms: C_8  and  C_9
REMARK    6  A    between atoms: C_14  and  C_15
REMARK    7  A    between atoms: C_18  and  C_20
REMARK    8  A    between atoms: C_20  and  C_21
REMARK    9  A    between atoms: C_20  and  C_26
REMARK   10  A    between atoms: C_20  and  O_31
REMARK                            x       y       z     vdW  Elec       q    Type
REMARK                         _______ _______ _______ _____ _____    ______ ____
ROOT
ATOM      1  C   UNL     1       5.949   0.410   2.835  0.00  0.00    +0.089 A 
ATOM      2  C   UNL     1       6.182  -0.738   3.498  0.00  0.00    +0.043 A 
ATOM      3  C   UNL     1       6.624  -0.381   4.793  0.00  0.00    +0.048 A 
ATOM      4  C   UNL     1       6.634   0.963   4.844  0.00  0.00    +0.147 A 
ATOM      5  O   UNL     1       6.231   1.437   3.654  0.00  0.00    -0.463 OA
ENDROOT
BRANCH   1   6
ATOM      6  C   UNL     1       5.462   0.524   1.414  0.00  0.00    -0.002 C 
BRANCH   6   7
ATOM      7  N   UNL     1       3.994   0.561   1.401  0.00  0.00    +0.392 N 
ATOM      8  H   UNL     1       3.633  -0.247   1.887  0.00  0.00    -0.080 HD
BRANCH   7   9
ATOM      9  C   UNL     1       3.516   0.551   0.012  0.00  0.00    -0.002 C 
BRANCH   9  12
ATOM     10  C   UNL     1       3.856  -2.875  -1.304  0.00  0.00    +0.041 A 
ATOM     11  C   UNL     1       3.157  -1.898  -0.558  0.00  0.00    +0.042 A 
ATOM     12  C   UNL     1       3.874  -0.763  -0.633  0.00  0.00    +0.089 A 
ATOM     13  O   UNL     1       4.964  -0.998  -1.382  0.00  0.00    -0.470 OA
ATOM     14  C   UNL     1       4.958  -2.277  -1.792  0.00  0.00    +0.195 A 
ENDBRANCH   9  12
ENDBRANCH   7   9
BRANCH   7  15
ATOM     15  C   UNL     1       3.529   1.783   2.070  0.00  0.00    -0.041 C 
BRANCH  15  16
ATOM     16  C   UNL     1       2.026   1.753   2.185  0.00  0.00    -0.057 A 
ATOM     17  C   UNL     1       1.238   2.381   1.240  0.00  0.00    +0.009 A 
ATOM     18  C   UNL     1      -0.110   2.335   1.372  0.00  0.00    +0.045 A 
ATOM     19  S   UNL     1      -0.301   1.381   2.869  0.00  0.00    -0.105 S 
ATOM     20  C   UNL     1       1.428   1.104   3.214  0.00  0.00    +0.047 A 
ENDBRANCH  15  16
ENDBRANCH   7  15
ENDBRANCH   6   7
ENDBRANCH   1   6
BRANCH   4  21
ATOM     21  C   UNL     1       7.037   1.797   6.034  0.00  0.00    +0.186 C 
BRANCH  21  22
ATOM     22  C   UNL     1       7.618   3.103   5.558  0.00  0.00    +0.034 A 
ATOM     23  C   UNL     1       8.565   3.878   6.141  0.00  0.00    +0.015 A 
ATOM     24  C   UNL     1       8.950   5.050   5.517  0.00  0.00    +0.008 A 
ATOM     25  C   UNL     1       8.369   5.389   4.340  0.00  0.00    +0.045 A 
ATOM     26  S   UNL     1       7.245   4.027   4.077  0.00  0.00    -0.098 S 
ENDBRANCH  21  22
BRANCH  21  27
ATOM     27  C   UNL     1       5.826   2.067   6.889  0.00  0.00    +0.034 A 
ATOM     28  C   UNL     1       5.755   2.264   8.229  0.00  0.00    +0.015 A 
ATOM     29  C   UNL     1       4.521   2.500   8.806  0.00  0.00    +0.008 A 
ATOM     30  C   UNL     1       3.420   2.527   8.017  0.00  0.00    +0.045 A 
ATOM     31  S   UNL     1       4.116   2.220   6.402  0.00  0.00    -0.098 S 
ENDBRANCH  21  27
BRANCH  21  32
ATOM     32  O   UNL     1       8.014   1.091   6.801  0.00  0.00    -0.371 OA
ATOM     33  H   UNL     1       7.708   0.239   7.140  0.00  0.00    +0.212 HD
ENDBRANCH  21  32
ENDBRANCH   4  21
TORSDOF 10
