REMARK  Name = ZINC53112675
REMARK  7 active torsions:
REMARK  status: ('A' for Active; 'I' for Inactive)
REMARK    1  A    between atoms: C_3  and  O_20
REMARK    2  A    between atoms: C_4  and  N_19
REMARK    3  A    between atoms: C_6  and  S_7
REMARK    4  A    between atoms: S_7  and  N_10
REMARK    5  A    between atoms: N_10  and  C_11
REMARK    6  A    between atoms: C_11  and  C_17
REMARK    7  A    between atoms: C_17  and  O_18
REMARK                            x       y       z     vdW  Elec       q    Type
REMARK                         _______ _______ _______ _____ _____    ______ ____
ROOT
ATOM      1  S   UNL     1      -2.435  -1.060  -0.191  0.00  0.00    +0.059 S 
ATOM      2  O   UNL     1      -2.525  -2.413   0.233  0.00  0.00    -0.153 OA
ATOM      3  O   UNL     1      -3.421  -0.091   0.139  0.00  0.00    -0.153 OA
ENDROOT
BRANCH   1   9
ATOM      4  C   UNL     1      -0.617   0.907   0.328  0.00  0.00    +0.032 A 
ATOM      5  C   UNL     1       0.587   1.397   0.803  0.00  0.00    +0.049 A 
ATOM      6  C   UNL     1       1.511   0.535   1.368  0.00  0.00    +0.137 A 
ATOM      7  C   UNL     1       1.226  -0.826   1.457  0.00  0.00    +0.068 A 
ATOM      8  C   UNL     1       0.018  -1.310   0.979  0.00  0.00    +0.055 A 
ATOM      9  C   UNL     1      -0.900  -0.443   0.416  0.00  0.00    +0.107 A 
BRANCH   7  10
ATOM     10  N   UNL     1       2.157  -1.702   2.027  0.00  0.00    -0.355 N 
ATOM     11  H   UNL     1       3.002  -1.362   2.361  0.00  0.00    +0.142 HD
ATOM     12  H   UNL     1       1.957  -2.649   2.088  0.00  0.00    +0.142 HD
ENDBRANCH   7  10
BRANCH   6  13
ATOM     13  O   UNL     1       2.695   1.016   1.835  0.00  0.00    -0.505 OA
ATOM     14  H   UNL     1       2.672   1.284   2.764  0.00  0.00    +0.292 HD
ENDBRANCH   6  13
ENDBRANCH   1   9
BRANCH   1  15
ATOM     15  N   UNL     1      -2.333  -1.087  -1.844  0.00  0.00    -0.182 NA
ATOM     16  H   UNL     1      -2.963  -0.579  -2.377  0.00  0.00    +0.149 HD
BRANCH  15  17
ATOM     17  C   UNL     1      -1.290  -1.880  -2.500  0.00  0.00    +0.063 C 
ATOM     18  C   UNL     1       0.086  -1.337  -2.107  0.00  0.00    +0.026 C 
ATOM     19  C   UNL     1       0.203   0.123  -2.547  0.00  0.00    +0.002 C 
ATOM     20  C   UNL     1       0.034   0.214  -4.065  0.00  0.00    +0.000 C 
ATOM     21  C   UNL     1      -1.342  -0.328  -4.458  0.00  0.00    +0.002 C 
ATOM     22  C   UNL     1      -1.459  -1.789  -4.018  0.00  0.00    +0.026 C 
BRANCH  17  23
ATOM     23  C   UNL     1      -1.407  -3.341  -2.061  0.00  0.00    +0.179 C 
BRANCH  23  24
ATOM     24  O   UNL     1      -0.852  -3.490  -0.752  0.00  0.00    -0.393 OA
ATOM     25  H   UNL     1      -0.892  -4.393  -0.409  0.00  0.00    +0.209 HD
ENDBRANCH  23  24
ENDBRANCH  17  23
ENDBRANCH  15  17
ENDBRANCH   1  15
TORSDOF 7
