REMARK  Name = ZINC49347952
REMARK  4 active torsions:
REMARK  status: ('A' for Active; 'I' for Inactive)
REMARK    1  A    between atoms: C_7  and  N_9
REMARK    2  A    between atoms: C_10  and  C_12
REMARK    3  A    between atoms: C_12  and  N_13
REMARK    4  A    between atoms: C_14  and  C_16
REMARK                            x       y       z     vdW  Elec       q    Type
REMARK                         _______ _______ _______ _____ _____    ______ ____
ROOT
ATOM      1  N   UNL     1      -1.339  -0.510   0.307  0.00  0.00    -0.310 N 
ATOM      2  C   UNL     1      -1.709  -1.735  -0.118  0.00  0.00    +0.230 C 
ATOM      3  O   UNL     1      -0.933  -2.417  -0.752  0.00  0.00    -0.274 OA
ATOM      4  H   UNL     1      -1.960   0.036   0.814  0.00  0.00    +0.149 HD
ENDROOT
BRANCH   1  11
ATOM      5  C   UNL     1      -0.019   1.534   0.011  0.00  0.00    +0.046 C 
ATOM      6  C   UNL     1       1.453   2.038  -0.001  0.00  0.00    +0.168 C 
ATOM      7  S   UNL     1       2.228   0.842   1.167  0.00  0.00    -0.029 S 
ATOM      8  O   UNL     1       3.462   0.398   0.622  0.00  0.00    -0.174 OA
ATOM      9  O   UNL     1       2.199   1.392   2.478  0.00  0.00    -0.174 OA
ATOM     10  C   UNL     1       1.001  -0.524   1.063  0.00  0.00    +0.188 C 
ATOM     11  C   UNL     1       0.002  -0.004   0.002  0.00  0.00    +0.095 C 
ENDBRANCH   1  11
BRANCH   2  12
ATOM     12  C   UNL     1      -3.088  -2.256   0.196  0.00  0.00    +0.200 C 
BRANCH  12  13
ATOM     13  N   UNL     1      -3.244  -3.598  -0.371  0.00  0.00    -0.305 N 
ATOM     14  C   UNL     1      -4.404  -4.265  -0.214  0.00  0.00    +0.245 C 
ATOM     15  O   UNL     1      -5.320  -3.754   0.395  0.00  0.00    -0.273 OA
ATOM     16  H   UNL     1      -2.511  -4.006  -0.858  0.00  0.00    +0.149 HD
BRANCH  14  17
ATOM     17  C   UNL     1      -4.564  -5.645  -0.797  0.00  0.00    +0.229 C 
ATOM     18  C   UNL     1      -4.502  -5.566  -2.325  0.00  0.00    +0.201 C 
ATOM     19  O   UNL     1      -4.766  -6.861  -2.873  0.00  0.00    -0.374 OA
ATOM     20  C   UNL     1      -6.032  -7.402  -2.482  0.00  0.00    +0.188 C 
ATOM     21  C   UNL     1      -6.094  -7.481  -0.954  0.00  0.00    +0.189 C 
ATOM     22  O   UNL     1      -5.829  -6.186  -0.405  0.00  0.00    -0.363 OA
ENDBRANCH  14  17
ENDBRANCH  12  13
ENDBRANCH   2  12
TORSDOF 4
