REMARK  Name = ZINC37976236
REMARK  7 active torsions:
REMARK  status: ('A' for Active; 'I' for Inactive)
REMARK    1  A    between atoms: C_1  and  C_2
REMARK    2  A    between atoms: C_5  and  C_7
REMARK    3  A    between atoms: C_7  and  C_9
REMARK    4  A    between atoms: C_7  and  N_10
REMARK    5  A    between atoms: N_10  and  C_11
REMARK    6  A    between atoms: C_11  and  C_12
REMARK    7  A    between atoms: N_14  and  C_15
REMARK                            x       y       z     vdW  Elec       q    Type
REMARK                         _______ _______ _______ _____ _____    ______ ____
ROOT
ATOM      1  C   UNL     1       3.673  -4.148  -1.014  0.00  0.00    +0.016 C 
ENDROOT
BRANCH   1   2
ATOM      2  C   UNL     1       4.828  -3.858  -1.938  0.00  0.00    +0.200 C 
ATOM      3  O   UNL     1       4.927  -2.769  -2.462  0.00  0.00    -0.278 OA
ATOM      4  N   UNL     1       5.750  -4.810  -2.183  0.00  0.00    -0.287 N 
ATOM      5  H   UNL     1       5.708  -5.658  -1.714  0.00  0.00    +0.155 HD
BRANCH   4   6
ATOM      6  C   UNL     1       6.768  -4.575  -3.115  0.00  0.00    +0.033 A 
ATOM      7  C   UNL     1       7.235  -5.612  -3.911  0.00  0.00    +0.024 A 
ATOM      8  C   UNL     1       8.239  -5.378  -4.830  0.00  0.00    +0.017 A 
ATOM      9  C   UNL     1       8.779  -4.110  -4.957  0.00  0.00    +0.018 A 
ATOM     10  C   UNL     1       8.316  -3.075  -4.165  0.00  0.00    +0.017 A 
ATOM     11  C   UNL     1       7.308  -3.303  -3.248  0.00  0.00    +0.024 A 
ATOM     12 BR   UNL     1      10.154  -3.793  -6.216  0.00  0.00    -0.050 Br
ENDBRANCH   4   6
ENDBRANCH   1   2
BRANCH   1  13
ATOM     13  N   UNL     1       2.816  -2.959  -0.914  0.00  0.00    +0.391 N 
ATOM     14  H   UNL     1       2.463  -2.721  -1.829  0.00  0.00    -0.084 HD
ATOM     15  H   UNL     1       3.353  -2.187  -0.549  0.00  0.00    -0.084 HD
BRANCH  13  16
ATOM     16  C   UNL     1       1.690  -3.242  -0.013  0.00  0.00    -0.007 C 
ATOM     17  C   UNL     1       2.218  -3.481   1.403  0.00  0.00    -0.006 C 
BRANCH  16  22
ATOM     18  C   UNL     1      -0.023   1.502   0.000  0.00  0.00    +0.086 C 
ATOM     19  C   UNL     1       0.001  -0.004   0.001  0.00  0.00    +0.102 A 
ATOM     20  C   UNL     1      -1.077  -0.808   0.010  0.00  0.00    +0.044 A 
ATOM     21  C   UNL     1      -0.597  -2.138   0.006  0.00  0.00    +0.043 A 
ATOM     22  C   UNL     1       0.746  -2.067  -0.006  0.00  0.00    +0.091 A 
ATOM     23  O   UNL     1       1.103  -0.773  -0.015  0.00  0.00    -0.467 OA
ENDBRANCH  16  22
ENDBRANCH  13  16
ENDBRANCH   1  13
TORSDOF 5
