REMARK  Name = ZINC59110005
REMARK  16 active torsions:
REMARK  status: ('A' for Active; 'I' for Inactive)
REMARK    1  A    between atoms: C_1  and  C_2
REMARK    2  A    between atoms: C_6  and  N_9
REMARK    3  A    between atoms: C_7  and  C_8
REMARK    4  A    between atoms: N_9  and  C_10
REMARK    5  A    between atoms: C_10  and  N_12
REMARK    6  A    between atoms: N_12  and  C_13
REMARK    7  A    between atoms: C_13  and  C_14
REMARK    8  A    between atoms: C_14  and  C_35
REMARK    9  A    between atoms: C_16  and  N_23
REMARK   10  A    between atoms: C_19  and  C_21
REMARK   11  A    between atoms: C_19  and  C_22
REMARK   12  A    between atoms: N_23  and  C_24
REMARK   13  A    between atoms: C_24  and  N_26
REMARK   14  A    between atoms: N_26  and  C_27
REMARK   15  A    between atoms: C_31  and  C_34
REMARK   16  A    between atoms: C_32  and  C_33
REMARK                            x       y       z     vdW  Elec       q    Type
REMARK                         _______ _______ _______ _____ _____    ______ ____
ROOT
ATOM      1  C   UNL     1      -0.164  -6.385   4.892  0.00  0.00    -0.014 C 
ATOM      2  C   UNL     1       0.881  -5.505   5.559  0.00  0.00    +0.030 C 
ATOM      3  C   UNL     1       1.259  -5.967   6.955  0.00  0.00    +0.073 C 
ATOM      4  C   UNL     1       1.665  -7.430   6.976  0.00  0.00    +0.028 C 
ATOM      5  C   UNL     1       0.649  -8.356   6.327  0.00  0.00    -0.033 C 
ATOM      6  C   UNL     1       0.164  -7.863   4.978  0.00  0.00    +0.014 C 
ATOM      7  C   UNL     1      -0.526  -8.622   7.272  0.00  0.00    +0.011 C 
ATOM      8  C   UNL     1       1.351  -9.718   6.098  0.00  0.00    +0.011 C 
ATOM      9  C   UNL     1      -1.561  -6.094   5.446  0.00  0.00    +0.013 C 
ENDROOT
BRANCH   3  10
ATOM     10  N   UNL     1       0.221  -5.670   7.935  0.00  0.00    -0.323 N 
ATOM     11  H   UNL     1      -0.698  -5.550   7.647  0.00  0.00    +0.148 HD
BRANCH  10  12
ATOM     12  C   UNL     1       0.537  -5.564   9.241  0.00  0.00    +0.135 C 
ATOM     13  S   UNL     1       2.158  -5.776   9.749  0.00  0.00    -0.019 S 
BRANCH  12  14
ATOM     14  N   UNL     1      -0.423  -5.289  10.147  0.00  0.00    -0.297 N 
ATOM     15  H   UNL     1      -1.350  -5.233   9.868  0.00  0.00    +0.154 HD
BRANCH  14  16
ATOM     16  C   UNL     1      -0.081  -5.085  11.488  0.00  0.00    +0.036 A 
ATOM     17  C   UNL     1       0.906  -5.862  12.080  0.00  0.00    +0.023 A 
ATOM     18  C   UNL     1       1.241  -5.658  13.404  0.00  0.00    +0.002 A 
ATOM     19  C   UNL     1       0.595  -4.682  14.140  0.00  0.00    +0.004 A 
ATOM     20  C   UNL     1      -0.388  -3.907  13.553  0.00  0.00    -0.046 A 
ATOM     21  C   UNL     1      -0.724  -4.102  12.228  0.00  0.00    -0.026 A 
ATOM     22  C   UNL     1      -1.792  -3.253  11.587  0.00  0.00    +0.046 C 
ATOM     23  C   UNL     1      -1.090  -2.844  14.359  0.00  0.00    +0.044 C 
ENDBRANCH  14  16
ENDBRANCH  12  14
ENDBRANCH  10  12
ENDBRANCH   3  10
BRANCH   1  24
ATOM     24  C   UNL     1      -0.192  -6.005   3.390  0.00  0.00    +0.110 C 
BRANCH  24  25
ATOM     25  N   UNL     1      -0.506  -4.580   3.253  0.00  0.00    -0.326 N 
ATOM     26  H   UNL     1      -0.659  -4.039   4.044  0.00  0.00    +0.148 HD
BRANCH  25  27
ATOM     27  C   UNL     1      -0.585  -4.022   2.029  0.00  0.00    +0.135 C 
ATOM     28  S   UNL     1      -0.316  -4.978   0.634  0.00  0.00    -0.019 S 
BRANCH  27  29
ATOM     29  N   UNL     1      -0.874  -2.712   1.903  0.00  0.00    -0.297 N 
ATOM     30  H   UNL     1      -0.974  -2.159   2.694  0.00  0.00    +0.154 HD
BRANCH  29  36
ATOM     31  C   UNL     1      -0.135   1.042  -1.184  0.00  0.00    +0.044 C 
ATOM     32  C   UNL     1      -0.683  -0.331  -0.892  0.00  0.00    -0.046 A 
ATOM     33  C   UNL     1      -1.342  -1.037  -1.883  0.00  0.00    +0.004 A 
ATOM     34  C   UNL     1      -1.846  -2.297  -1.619  0.00  0.00    +0.002 A 
ATOM     35  C   UNL     1      -1.692  -2.856  -0.365  0.00  0.00    +0.023 A 
ATOM     36  C   UNL     1      -1.031  -2.150   0.632  0.00  0.00    +0.036 A 
ATOM     37  C   UNL     1      -0.521  -0.886   0.362  0.00  0.00    -0.026 A 
ATOM     38  C   UNL     1       0.203  -0.119   1.438  0.00  0.00    +0.046 C 
ENDBRANCH  29  36
ENDBRANCH  27  29
ENDBRANCH  25  27
ENDBRANCH  24  25
ENDBRANCH   1  24
TORSDOF 9
