REMARK  Name = ZINC49148631
REMARK  12 active torsions:
REMARK  status: ('A' for Active; 'I' for Inactive)
REMARK    1  A    between atoms: C_1  and  C_2
REMARK    2  A    between atoms: C_2  and  C_3
REMARK    3  A    between atoms: C_3  and  C_5
REMARK    4  A    between atoms: C_3  and  N_8
REMARK    5  A    between atoms: C_5  and  C_6
REMARK    6  A    between atoms: C_5  and  C_7
REMARK    7  A    between atoms: N_8  and  S_9
REMARK    8  A    between atoms: S_9  and  C_12
REMARK    9  A    between atoms: C_15  and  C_22
REMARK   10  A    between atoms: C_17  and  C_18
REMARK   11  A    between atoms: C_19  and  C_20
REMARK   12  A    between atoms: C_20  and  N_21
REMARK                            x       y       z     vdW  Elec       q    Type
REMARK                         _______ _______ _______ _____ _____    ______ ____
ROOT
ATOM      1  C   UNL     1       1.660   2.687  -0.919  0.00  0.00    +0.121 A 
ATOM      2  C   UNL     1       2.379   3.713  -0.339  0.00  0.00    +0.030 A 
ATOM      3  C   UNL     1       1.729   4.682   0.405  0.00  0.00    +0.005 A 
ATOM      4  C   UNL     1       0.357   4.629   0.572  0.00  0.00    -0.049 A 
ATOM      5  C   UNL     1      -0.373   3.609  -0.002  0.00  0.00    +0.022 A 
ATOM      6  C   UNL     1       0.276   2.632  -0.758  0.00  0.00    +0.051 A 
ATOM      7  C   UNL     1      -0.342   5.689   1.384  0.00  0.00    +0.044 C 
ENDROOT
BRANCH   1   8
ATOM      8  S   UNL     1       2.489   1.454  -1.866  0.00  0.00    +0.060 S 
ATOM      9  O   UNL     1       3.876   1.758  -1.804  0.00  0.00    -0.153 OA
ATOM     10  O   UNL     1       1.787   1.347  -3.097  0.00  0.00    -0.153 OA
BRANCH   8  11
ATOM     11  N   UNL     1       2.285   0.012  -1.078  0.00  0.00    -0.187 NA
ATOM     12  H   UNL     1       1.800  -0.710  -1.506  0.00  0.00    +0.148 HD
BRANCH  11  13
ATOM     13  C   UNL     1       2.838  -0.173   0.266  0.00  0.00    +0.079 C 
BRANCH  13  14
ATOM     14  C   UNL     1       1.698  -0.402   1.260  0.00  0.00    +0.001 C 
ATOM     15  C   UNL     1       0.960  -1.693   0.900  0.00  0.00    +0.009 C 
ATOM     16  C   UNL     1       2.269  -0.518   2.674  0.00  0.00    +0.009 C 
ENDBRANCH  13  14
BRANCH  13  18
ATOM     17  C   UNL     1       4.967  -1.114  -0.642  0.00  0.00    +0.005 C 
ATOM     18  C   UNL     1       3.771  -1.386   0.272  0.00  0.00    +0.017 C 
ENDBRANCH  13  18
ENDBRANCH  11  13
ENDBRANCH   8  11
ENDBRANCH   1   8
BRANCH   6  19
ATOM     19  C   UNL     1      -0.476   1.573  -1.362  0.00  0.00    -0.066 C 
ATOM     20  C   UNL     1      -1.093   0.705  -1.857  0.00  0.00    -0.117 C 
BRANCH  20  21
ATOM     21  C   UNL     1      -1.866  -0.383  -2.478  0.00  0.00    +0.005 C 
BRANCH  21  22
ATOM     22  N   UNL     1      -3.291  -0.214  -2.160  0.00  0.00    +0.385 N 
ATOM     23  H   UNL     1      -3.418  -0.239  -1.160  0.00  0.00    -0.089 HD
ATOM     24  H   UNL     1      -3.612   0.673  -2.518  0.00  0.00    -0.089 HD
ATOM     25  H   UNL     1      -3.821  -0.960  -2.586  0.00  0.00    -0.089 HD
ENDBRANCH  21  22
ENDBRANCH  20  21
ENDBRANCH   6  19
TORSDOF 8
