REMARK  Name = ZINC64380731
REMARK  10 active torsions:
REMARK  status: ('A' for Active; 'I' for Inactive)
REMARK    1  A    between atoms: C_1  and  C_2
REMARK    2  A    between atoms: C_2  and  C_3
REMARK    3  A    between atoms: C_2  and  C_4
REMARK    4  A    between atoms: C_4  and  C_6
REMARK    5  A    between atoms: C_4  and  N_22
REMARK    6  A    between atoms: N_8  and  C_9
REMARK    7  A    between atoms: C_9  and  C_10
REMARK    8  A    between atoms: C_10  and  C_11
REMARK    9  A    between atoms: C_15  and  O_20
REMARK   10  A    between atoms: O_20  and  C_21
REMARK                            x       y       z     vdW  Elec       q    Type
REMARK                         _______ _______ _______ _____ _____    ______ ____
ROOT
ATOM      1  C   UNL     1      -2.076   0.052   1.343  0.00  0.00    +0.235 C 
ATOM      2  O   UNL     1      -3.142   0.616   1.214  0.00  0.00    -0.274 OA
ATOM      3  N   UNL     1      -1.487  -0.008   2.553  0.00  0.00    -0.313 N 
ATOM      4  H   UNL     1      -0.668  -0.514   2.669  0.00  0.00    +0.149 HD
ENDROOT
BRANCH   1   5
ATOM      5  C   UNL     1      -1.411  -0.582   0.148  0.00  0.00    +0.183 C 
BRANCH   5   6
ATOM      6  N   UNL     1      -2.330  -0.558  -0.992  0.00  0.00    -0.205 N 
ATOM      7  C   UNL     1      -2.709  -1.728  -1.557  0.00  0.00    +0.264 C 
ATOM      8  O   UNL     1      -2.378  -2.796  -1.078  0.00  0.00    -0.269 OA
ATOM      9  C   UNL     1      -3.540  -1.661  -2.775  0.00  0.00    +0.060 A 
ATOM     10  C   UNL     1      -4.192  -2.765  -3.308  0.00  0.00    +0.015 A 
ATOM     11  C   UNL     1      -4.947  -2.616  -4.454  0.00  0.00    +0.001 A 
ATOM     12  C   UNL     1      -5.056  -1.379  -5.069  0.00  0.00    +0.002 A 
ATOM     13  C   UNL     1      -4.412  -0.271  -4.548  0.00  0.00    +0.025 A 
ATOM     14  C   UNL     1      -3.654  -0.404  -3.400  0.00  0.00    +0.055 A 
ATOM     15  N   UNL     1      -2.983   0.660  -2.808  0.00  0.00    -0.264 N 
ATOM     16  N   UNL     1      -2.785   0.639  -1.453  0.00  0.00    -0.157 NA
ATOM     17  H   UNL     1      -2.665   1.403  -3.344  0.00  0.00    +0.168 HD
ATOM     18  H   UNL     1      -3.616   0.924  -0.957  0.00  0.00    +0.168 HD
ENDBRANCH   5   6
BRANCH   5  20
ATOM     19  C   UNL     1       0.588  -0.504  -1.348  0.00  0.00    +0.009 C 
ATOM     20  C   UNL     1      -0.143   0.199  -0.203  0.00  0.00    +0.014 C 
ATOM     21  C   UNL     1      -0.520   1.618  -0.634  0.00  0.00    +0.009 C 
ENDBRANCH   5  20
ENDBRANCH   1   5
BRANCH   3  22
ATOM     22  C   UNL     1      -2.083   0.692   3.694  0.00  0.00    +0.108 C 
BRANCH  22  23
ATOM     23  C   UNL     1      -1.223   0.464   4.939  0.00  0.00    +0.052 C 
BRANCH  23  24
ATOM     24  C   UNL     1      -1.837   1.183   6.112  0.00  0.00    -0.040 C 
ATOM     25  C   UNL     1      -2.669   0.661   7.039  0.00  0.00    -0.001 A 
ATOM     26  C   UNL     1      -3.231  -0.683   7.225  0.00  0.00    +0.013 A 
ATOM     27  C   UNL     1      -4.055  -0.912   8.270  0.00  0.00    +0.046 A 
ATOM     28  C   UNL     1      -4.388   0.106   9.184  0.00  0.00    +0.122 A 
ATOM     29  C   UNL     1      -3.907   1.371   9.075  0.00  0.00    +0.071 A 
ATOM     30  C   UNL     1      -3.033   1.716   8.014  0.00  0.00    +0.046 A 
ATOM     31  N   UNL     1      -2.446   2.847   7.699  0.00  0.00    -0.380 N 
ATOM     32  C   UNL     1      -1.639   2.634   6.492  0.00  0.00    +0.144 C 
ATOM     33  H   UNL     1      -2.529   3.683   8.184  0.00  0.00    +0.160 HD
BRANCH  28  34
ATOM     34  O   UNL     1      -5.222  -0.188  10.212  0.00  0.00    -0.495 OA
ATOM     35  C   UNL     1      -5.706  -1.530  10.291  0.00  0.00    +0.277 C 
ENDBRANCH  28  34
ENDBRANCH  23  24
ENDBRANCH  22  23
ENDBRANCH   3  22
TORSDOF 7
