REMARK  Name = ZINC23375104
REMARK  13 active torsions:
REMARK  status: ('A' for Active; 'I' for Inactive)
REMARK    1  A    between atoms: C_1  and  N_2
REMARK    2  A    between atoms: N_5  and  C_8
REMARK    3  A    between atoms: C_8  and  C_9
REMARK    4  A    between atoms: C_9  and  C_11
REMARK    5  A    between atoms: C_9  and  O_30
REMARK    6  A    between atoms: C_11  and  O_12
REMARK    7  A    between atoms: O_12  and  C_13
REMARK    8  A    between atoms: C_15  and  O_28
REMARK    9  A    between atoms: C_18  and  C_19
REMARK   10  A    between atoms: C_19  and  N_20
REMARK   11  A    between atoms: N_20  and  C_21
REMARK   12  A    between atoms: C_21  and  C_22
REMARK   13  A    between atoms: O_28  and  C_29
REMARK                            x       y       z     vdW  Elec       q    Type
REMARK                         _______ _______ _______ _____ _____    ______ ____
ROOT
ATOM      1  C   UNL     1       3.398  -7.757   2.337  0.00  0.00    +0.125 A 
ATOM      2  C   UNL     1       2.837  -8.627   1.415  0.00  0.00    +0.091 A 
ATOM      3  C   UNL     1       3.009  -9.994   1.561  0.00  0.00    +0.124 A 
ATOM      4  C   UNL     1       3.744 -10.490   2.629  0.00  0.00    +0.046 A 
ATOM      5  C   UNL     1       4.302  -9.621   3.547  0.00  0.00    +0.009 A 
ATOM      6  C   UNL     1       4.136  -8.257   3.401  0.00  0.00    -0.022 A 
ENDROOT
BRANCH   3   7
ATOM      7  O   UNL     1       2.459 -10.849   0.659  0.00  0.00    -0.495 OA
ATOM      8  C   UNL     1       2.678 -12.245   0.871  0.00  0.00    +0.277 C 
ENDBRANCH   3   7
BRANCH   1   9
ATOM      9  O   UNL     1       3.231  -6.416   2.197  0.00  0.00    -0.489 OA
BRANCH   9  10
ATOM     10  C   UNL     1       2.459  -5.972   1.079  0.00  0.00    +0.261 C 
BRANCH  10  11
ATOM     11  C   UNL     1       2.381  -4.444   1.088  0.00  0.00    +0.166 C 
BRANCH  11  12
ATOM     12  O   UNL     1       3.686  -3.899   0.887  0.00  0.00    -0.387 OA
ATOM     13  H   UNL     1       4.096  -4.159   0.051  0.00  0.00    +0.210 HD
ENDBRANCH  11  12
BRANCH  11  14
ATOM     14  C   UNL     1       1.453  -3.974  -0.034  0.00  0.00    +0.119 C 
BRANCH  14  19
ATOM     15  C   UNL     1      -0.018   1.465   0.010  0.00  0.00    -0.096 C 
ATOM     16  N   UNL     1       0.002  -0.004   0.002  0.00  0.00    +0.379 N 
ATOM     17  C   UNL     1       0.688  -0.477  -1.207  0.00  0.00    -0.064 C 
ATOM     18  C   UNL     1       0.693  -2.008  -1.226  0.00  0.00    +0.066 C 
ATOM     19  N   UNL     1       1.378  -2.507  -0.025  0.00  0.00    -0.303 NA
ATOM     20  C   UNL     1       0.717  -2.021   1.194  0.00  0.00    +0.066 C 
ATOM     21  C   UNL     1       0.713  -0.490   1.192  0.00  0.00    -0.064 C 
ATOM     22  H   UNL     1      -0.945  -0.353   0.010  0.00  0.00    -0.082 HD
ENDBRANCH  14  19
ENDBRANCH  11  14
ENDBRANCH  10  11
ENDBRANCH   9  10
ENDBRANCH   1   9
BRANCH   6  23
ATOM     23  C   UNL     1       4.753  -7.312   4.400  0.00  0.00    -0.043 C 
BRANCH  23  24
ATOM     24  N   UNL     1       3.729  -6.880   5.361  0.00  0.00    +0.382 N 
ATOM     25  H   UNL     1       2.983  -6.411   4.870  0.00  0.00    -0.085 HD
ATOM     26  H   UNL     1       3.360  -7.686   5.843  0.00  0.00    -0.085 HD
BRANCH  24  27
ATOM     27  C   UNL     1       4.330  -5.959   6.335  0.00  0.00    -0.079 C 
BRANCH  27  28
ATOM     28  C   UNL     1       3.264  -5.509   7.336  0.00  0.00    -0.024 C 
ATOM     29  C   UNL     1       2.200  -4.679   6.612  0.00  0.00    +0.030 C 
ATOM     30  C   UNL     1       1.181  -4.168   7.634  0.00  0.00    +0.160 C 
ATOM     31  O   UNL     1       1.855  -3.401   8.634  0.00  0.00    -0.380 OA
ATOM     32  C   UNL     1       2.829  -4.139   9.376  0.00  0.00    +0.160 C 
ATOM     33  C   UNL     1       3.914  -4.649   8.424  0.00  0.00    +0.030 C 
ENDBRANCH  27  28
ENDBRANCH  24  27
ENDBRANCH  23  24
ENDBRANCH   6  23
TORSDOF 11
