REMARK  Name = ZINC12038676
REMARK  7 active torsions:
REMARK  status: ('A' for Active; 'I' for Inactive)
REMARK    1  A    between atoms: C_1  and  C_2
REMARK    2  A    between atoms: C_6  and  C_7
REMARK    3  A    between atoms: C_11  and  C_25
REMARK    4  A    between atoms: C_15  and  C_24
REMARK    5  A    between atoms: N_27  and  C_28
REMARK    6  A    between atoms: C_28  and  C_29
REMARK    7  A    between atoms: C_29  and  N_63
REMARK                            x       y       z     vdW  Elec       q    Type
REMARK                         _______ _______ _______ _____ _____    ______ ____
ROOT
ATOM      1  C   UNL     1      -0.154   6.121   6.554  0.00  0.00    +0.094 C 
ATOM      2  C   UNL     1       0.240   4.972   7.494  0.00  0.00    +0.074 C 
ATOM      3  C   UNL     1      -0.973   4.207   7.941  0.00  0.00    +0.041 A 
ATOM      4  C   UNL     1      -1.380   3.112   7.199  0.00  0.00    +0.103 A 
ATOM      5  C   UNL     1      -2.510   2.313   7.692  0.00  0.00    +0.194 A 
ATOM      6  O   UNL     1      -2.937   1.363   7.054  0.00  0.00    -0.287 OA
ATOM      7  C   UNL     1      -3.084   2.678   8.935  0.00  0.00    +0.073 A 
ATOM      8  C   UNL     1      -2.626   3.772   9.575  0.00  0.00    +0.025 A 
ATOM      9  N   UNL     1      -1.631   4.548   9.058  0.00  0.00    -0.315 N 
ATOM     10  C   UNL     1      -1.331   5.759   9.706  0.00  0.00    +0.060 A 
ATOM     11  C   UNL     1      -1.064   5.776  11.066  0.00  0.00    +0.027 A 
ATOM     12  C   UNL     1      -0.770   6.974  11.691  0.00  0.00    +0.002 A 
ATOM     13  C   UNL     1      -0.741   8.153  10.967  0.00  0.00    +0.001 A 
ATOM     14  C   UNL     1      -1.007   8.144   9.610  0.00  0.00    +0.017 A 
ATOM     15  C   UNL     1      -1.303   6.946   8.979  0.00  0.00    +0.032 A 
ATOM     16  S   UNL     1      -1.647   6.905   7.248  0.00  0.00    -0.114 S 
ATOM     17  C   UNL     1      -3.232   4.149  10.902  0.00  0.00    +0.064 C 
ENDROOT
BRANCH   1  23
ATOM     18  C   UNL     1       1.839   5.804   4.238  0.00  0.00    +0.044 C 
ATOM     19  C   UNL     1       0.386   5.419   4.126  0.00  0.00    -0.039 A 
ATOM     20  C   UNL     1      -0.112   4.896   2.947  0.00  0.00    +0.011 A 
ATOM     21  C   UNL     1      -1.423   4.561   2.880  0.00  0.00    +0.046 A 
ATOM     22  S   UNL     1      -1.996   4.978   4.518  0.00  0.00    -0.100 S 
ATOM     23  C   UNL     1      -0.451   5.580   5.179  0.00  0.00    +0.006 A 
ENDBRANCH   1  23
BRANCH   4  24
ATOM     24  C   UNL     1      -0.700   2.760   5.941  0.00  0.00    +0.249 C 
ATOM     25  O   UNL     1       0.315   3.345   5.613  0.00  0.00    -0.270 OA
ATOM     26  N   UNL     1      -1.202   1.789   5.152  0.00  0.00    -0.313 N 
ATOM     27  H   UNL     1      -2.055   1.381   5.369  0.00  0.00    +0.149 HD
BRANCH  26  28
ATOM     28  C   UNL     1      -0.460   1.349   3.968  0.00  0.00    +0.086 C 
BRANCH  28  29
ATOM     29  C   UNL     1      -1.300   0.338   3.186  0.00  0.00    -0.060 C 
BRANCH  29  35
ATOM     30  C   UNL     1       0.833  -0.425   2.329  0.00  0.00    -0.050 C 
ATOM     31  C   UNL     1       1.582  -0.814   1.052  0.00  0.00    +0.141 C 
ATOM     32  O   UNL     1       0.903  -1.903   0.419  0.00  0.00    -0.383 OA
ATOM     33  C   UNL     1      -0.455  -1.614   0.077  0.00  0.00    +0.141 C 
ATOM     34  C   UNL     1      -1.225  -1.234   1.345  0.00  0.00    -0.050 C 
ATOM     35  N   UNL     1      -0.559  -0.075   1.974  0.00  0.00    +0.384 N 
ATOM     36  H   UNL     1      -0.547   0.706   1.308  0.00  0.00    -0.082 HD
ENDBRANCH  29  35
ENDBRANCH  28  29
ENDBRANCH  26  28
ENDBRANCH   4  24
TORSDOF 5
