REMARK  Name = ZINC11938080
REMARK  8 active torsions:
REMARK  status: ('A' for Active; 'I' for Inactive)
REMARK    1  A    between atoms: C_1  and  C_2
REMARK    2  A    between atoms: C_6  and  N_9
REMARK    3  A    between atoms: C_7  and  C_8
REMARK    4  A    between atoms: C_14  and  N_60
REMARK    5  A    between atoms: C_19  and  C_20
REMARK    6  A    between atoms: C_19  and  N_60
REMARK    7  A    between atoms: N_22  and  C_29
REMARK    8  A    between atoms: C_29  and  C_30
REMARK                            x       y       z     vdW  Elec       q    Type
REMARK                         _______ _______ _______ _____ _____    ______ ____
ROOT
ATOM      1  N   UNL     1      -0.338  -4.190   1.849  0.00  0.00    +0.386 N 
ATOM      2  H   UNL     1      -1.033  -4.795   2.302  0.00  0.00    -0.085 HD
ATOM      3  H   UNL     1       0.099  -3.583   2.552  0.00  0.00    -0.085 HD
ENDROOT
BRANCH   1   9
ATOM      4  N   UNL     1       0.238   0.025   0.317  0.00  0.00    -0.236 N 
ATOM      5  C   UNL     1      -0.762  -0.854   0.512  0.00  0.00    +0.047 A 
ATOM      6  C   UNL     1      -0.213  -2.092   0.609  0.00  0.00    -0.020 A 
ATOM      7  C   UNL     1       1.167  -1.963   0.467  0.00  0.00    +0.137 A 
ATOM      8  N   UNL     1       1.442  -0.694   0.285  0.00  0.00    -0.174 NA
ATOM      9  C   UNL     1      -1.007  -3.355   0.834  0.00  0.00    -0.037 C 
ATOM     10  C   UNL     1      -2.403  -2.965   1.337  0.00  0.00    -0.011 C 
ATOM     11  C   UNL     1      -2.997  -1.894   0.417  0.00  0.00    +0.005 C 
ATOM     12  C   UNL     1      -2.240  -0.574   0.612  0.00  0.00    +0.056 C 
BRANCH   4  18
ATOM     13  C   UNL     1       1.606   4.578   1.579  0.00  0.00    +0.044 C 
ATOM     14  C   UNL     1       0.751   3.641   0.765  0.00  0.00    -0.046 A 
ATOM     15  C   UNL     1      -0.171   4.149  -0.131  0.00  0.00    +0.004 A 
ATOM     16  C   UNL     1      -0.958   3.293  -0.879  0.00  0.00    +0.002 A 
ATOM     17  C   UNL     1      -0.821   1.926  -0.737  0.00  0.00    +0.028 A 
ATOM     18  C   UNL     1       0.100   1.412   0.166  0.00  0.00    +0.069 A 
ATOM     19  C   UNL     1       0.889   2.275   0.916  0.00  0.00    -0.022 A 
ATOM     20  C   UNL     1       1.895   1.722   1.892  0.00  0.00    +0.046 C 
ENDBRANCH   4  18
ENDBRANCH   1   9
BRANCH   1  21
ATOM     21  C   UNL     1       0.699  -5.029   1.218  0.00  0.00    -0.044 C 
BRANCH  21  22
ATOM     22  C   UNL     1       1.365  -5.870   2.276  0.00  0.00    -0.039 A 
ATOM     23  C   UNL     1       2.546  -5.624   2.866  0.00  0.00    +0.089 A 
ATOM     24  N   UNL     1       2.826  -6.606   3.777  0.00  0.00    -0.338 N 
ATOM     25  C   UNL     1       1.806  -7.531   3.797  0.00  0.00    +0.050 A 
ATOM     26  C   UNL     1       0.843  -7.107   2.862  0.00  0.00    +0.001 A 
ATOM     27  C   UNL     1      -0.318  -7.858   2.670  0.00  0.00    +0.010 A 
ATOM     28  C   UNL     1      -0.515  -9.000   3.394  0.00  0.00    +0.001 A 
ATOM     29  C   UNL     1       0.429  -9.420   4.319  0.00  0.00    +0.002 A 
ATOM     30  C   UNL     1       1.586  -8.698   4.520  0.00  0.00    +0.026 A 
BRANCH  24  31
ATOM     31  C   UNL     1       4.031  -6.664   4.607  0.00  0.00    +0.217 C 
BRANCH  31  32
ATOM     32  C   UNL     1       5.061  -7.536   3.937  0.00  0.00    +0.230 C 
ATOM     33  O   UNL     1       4.813  -8.057   2.870  0.00  0.00    -0.274 OA
ATOM     34  N   UNL     1       6.259  -7.737   4.522  0.00  0.00    -0.328 N 
ATOM     35  H   UNL     1       6.457  -7.320   5.375  0.00  0.00    +0.145 HD
ATOM     36  H   UNL     1       6.922  -8.298   4.090  0.00  0.00    +0.145 HD
ENDBRANCH  31  32
ENDBRANCH  24  31
ENDBRANCH  21  22
ENDBRANCH   1  21
TORSDOF 6
