REMARK  Name = ZINC40151341
REMARK  10 active torsions:
REMARK  status: ('A' for Active; 'I' for Inactive)
REMARK    1  A    between atoms: C_1  and  C_2
REMARK    2  A    between atoms: C_5  and  C_8
REMARK    3  A    between atoms: N_10  and  N_11
REMARK    4  A    between atoms: C_12  and  C_13
REMARK    5  A    between atoms: C_12  and  C_26
REMARK    6  A    between atoms: C_26  and  C_28
REMARK    7  A    between atoms: C_26  and  O_33
REMARK    8  A    between atoms: C_28  and  C_30
REMARK    9  A    between atoms: C_28  and  O_32
REMARK   10  A    between atoms: C_30  and  O_31
REMARK                            x       y       z     vdW  Elec       q    Type
REMARK                         _______ _______ _______ _____ _____    ______ ____
ROOT
ATOM      1  N   UNL     1      -0.107  -6.399   1.163  0.00  0.00    -0.184 NA
ATOM      2  C   UNL     1       0.317  -6.978   2.223  0.00  0.00    +0.099 C 
ENDROOT
BRANCH   2   3
ATOM      3  C   UNL     1       0.314  -6.241   3.537  0.00  0.00    +0.215 C 
ATOM      4  C   UNL     1      -1.079  -6.339   4.118  0.00  0.00    +0.245 C 
ATOM      5  O   UNL     1      -1.580  -7.425   4.333  0.00  0.00    -0.273 OA
ATOM      6  N   UNL     1      -1.749  -5.218   4.392  0.00  0.00    -0.282 N 
ATOM      7  C   UNL     1      -1.226  -4.025   4.167  0.00  0.00    +0.057 A 
ATOM      8  C   UNL     1      -1.965  -2.858   4.469  0.00  0.00    +0.027 A 
ATOM      9  C   UNL     1      -1.435  -1.634   4.241  0.00  0.00    +0.022 A 
ATOM     10  C   UNL     1      -0.149  -1.450   3.703  0.00  0.00    +0.043 A 
ATOM     11  C   UNL     1       0.641  -2.499   3.379  0.00  0.00    +0.047 A 
ATOM     12  C   UNL     1       0.136  -3.863   3.598  0.00  0.00    +0.059 A 
ATOM     13  N   UNL     1       0.866  -4.898   3.299  0.00  0.00    -0.368 N 
ATOM     14 CL   UNL     1       0.439   0.163   3.447  0.00  0.00    -0.083 Cl
ATOM     15  H   UNL     1      -2.643  -5.280   4.764  0.00  0.00    +0.155 HD
ATOM     16  H   UNL     1       1.755  -4.786   2.927  0.00  0.00    +0.161 HD
ENDBRANCH   2   3
BRANCH   1  19
ATOM     17  C   UNL     1      -1.091  -4.493   0.131  0.00  0.00    +0.263 C 
ATOM     18  O   UNL     1      -0.895  -4.996  -0.958  0.00  0.00    -0.268 OA
ATOM     19  N   UNL     1      -0.754  -5.160   1.252  0.00  0.00    -0.203 N 
ATOM     20  H   UNL     1      -0.960  -4.782   2.122  0.00  0.00    +0.178 HD
BRANCH  17  25
ATOM     21  C   UNL     1      -3.460   0.738   0.496  0.00  0.00    +0.044 C 
ATOM     22  C   UNL     1      -2.840  -0.632   0.401  0.00  0.00    -0.050 A 
ATOM     23  C   UNL     1      -2.497  -1.147  -0.837  0.00  0.00    +0.004 A 
ATOM     24  C   UNL     1      -1.928  -2.401  -0.931  0.00  0.00    +0.013 A 
ATOM     25  C   UNL     1      -1.700  -3.149   0.225  0.00  0.00    +0.038 A 
ATOM     26  C   UNL     1      -2.048  -2.623   1.470  0.00  0.00    +0.013 A 
ATOM     27  C   UNL     1      -2.611  -1.366   1.551  0.00  0.00    +0.004 A 
ENDBRANCH  17  25
ENDBRANCH   1  19
BRANCH   2  28
ATOM     28  C   UNL     1       0.818  -8.398   2.157  0.00  0.00    +0.193 C 
BRANCH  28  29
ATOM     29  O   UNL     1       2.182  -8.442   2.580  0.00  0.00    -0.383 OA
ATOM     30  H   UNL     1       2.322  -8.131   3.485  0.00  0.00    +0.210 HD
ENDBRANCH  28  29
BRANCH  28  31
ATOM     31  C   UNL     1       0.713  -8.909   0.719  0.00  0.00    +0.174 C 
BRANCH  31  32
ATOM     32  O   UNL     1      -0.651  -8.865   0.295  0.00  0.00    -0.387 OA
ATOM     33  H   UNL     1      -1.247  -9.404   0.833  0.00  0.00    +0.210 HD
ENDBRANCH  31  32
BRANCH  31  34
ATOM     34  C   UNL     1       1.222 -10.351   0.651  0.00  0.00    +0.190 C 
BRANCH  34  35
ATOM     35  O   UNL     1       1.234 -10.789  -0.709  0.00  0.00    -0.392 OA
ATOM     36  H   UNL     1       1.546 -11.696  -0.827  0.00  0.00    +0.210 HD
ENDBRANCH  34  35
ENDBRANCH  31  34
ENDBRANCH  28  31
ENDBRANCH   2  28
TORSDOF 9
