REMARK  Name = ZINC22965127
REMARK  7 active torsions:
REMARK  status: ('A' for Active; 'I' for Inactive)
REMARK    1  A    between atoms: C_1  and  C_2
REMARK    2  A    between atoms: C_2  and  C_4
REMARK    3  A    between atoms: C_2  and  N_18
REMARK    4  A    between atoms: N_10  and  C_11
REMARK    5  A    between atoms: N_18  and  C_19
REMARK    6  A    between atoms: N_18  and  C_20
REMARK    7  A    between atoms: C_20  and  C_21
REMARK                            x       y       z     vdW  Elec       q    Type
REMARK                         _______ _______ _______ _____ _____    ______ ____
ROOT
ATOM      1  C   UNL     1       0.603  -0.137  -1.030  0.00  0.00    +0.123 A 
ATOM      2  N   UNL     1       1.924  -0.149  -1.067  0.00  0.00    -0.201 NA
ATOM      3  C   UNL     1       2.557  -0.646  -2.128  0.00  0.00    +0.217 A 
ATOM      4  N   UNL     1       1.859  -1.121  -3.154  0.00  0.00    -0.181 NA
ATOM      5  C   UNL     1       0.531  -1.102  -3.115  0.00  0.00    +0.224 A 
ATOM      6  N   UNL     1      -0.095  -0.608  -2.049  0.00  0.00    -0.201 NA
ATOM      7  N   UNL     1      -0.199  -1.595  -4.178  0.00  0.00    -0.284 N 
ATOM      8  N   UNL     1       3.936  -0.663  -2.164  0.00  0.00    -0.327 N 
ATOM      9  H   UNL     1      -1.294  -1.666  -4.108  0.00  0.00    +0.155 HD
ATOM     10  H   UNL     1       4.459  -1.073  -3.040  0.00  0.00    +0.145 HD
ATOM     11  H   UNL     1       4.514  -0.265  -1.316  0.00  0.00    +0.145 HD
ENDROOT
BRANCH   7  12
ATOM     12  C   UNL     1       0.454  -2.003  -5.346  0.00  0.00    +0.034 A 
ATOM     13  C   UNL     1       1.561  -1.301  -5.805  0.00  0.00    +0.023 A 
ATOM     14  C   UNL     1       2.207  -1.709  -6.956  0.00  0.00    +0.002 A 
ATOM     15  C   UNL     1       1.746  -2.809  -7.656  0.00  0.00    +0.000 A 
ATOM     16  C   UNL     1       0.641  -3.507  -7.204  0.00  0.00    +0.002 A 
ATOM     17  C   UNL     1      -0.006  -3.107  -6.051  0.00  0.00    +0.023 A 
ENDBRANCH   7  12
BRANCH   1  19
ATOM     18  C   UNL     1       0.004   1.948   0.172  0.00  0.00    -0.005 C 
ATOM     19  C   UNL     1      -0.110   0.422   0.174  0.00  0.00    -0.002 C 
BRANCH  19  20
ATOM     20  N   UNL     1       0.503  -0.113   1.398  0.00  0.00    +0.387 N 
ATOM     21  C   UNL     1      -0.166   0.413   2.595  0.00  0.00    -0.095 C 
ATOM     22  H   UNL     1       1.552   0.219   1.423  0.00  0.00    -0.081 HD
BRANCH  20  23
ATOM     23  C   UNL     1       0.495  -1.582   1.392  0.00  0.00    -0.040 C 
BRANCH  23  24
ATOM     24  C   UNL     1       1.341  -2.093   2.529  0.00  0.00    -0.029 A 
ATOM     25  C   UNL     1       0.738  -2.617   3.657  0.00  0.00    +0.007 A 
ATOM     26  C   UNL     1       1.512  -3.087   4.701  0.00  0.00    +0.039 A 
ATOM     27  C   UNL     1       2.893  -3.034   4.617  0.00  0.00    +0.126 A 
ATOM     28  C   UNL     1       3.498  -2.510   3.488  0.00  0.00    +0.076 A 
ATOM     29  C   UNL     1       2.721  -2.044   2.441  0.00  0.00    +0.127 A 
ATOM     30  F   UNL     1       3.311  -1.537   1.336  0.00  0.00    -0.205 F 
ATOM     31  F   UNL     1       3.650  -3.494   5.638  0.00  0.00    -0.205 F 
ENDBRANCH  23  24
ENDBRANCH  20  23
ENDBRANCH  19  20
ENDBRANCH   1  19
TORSDOF 5
