REMARK  Name = ZINC35368331
REMARK  4 active torsions:
REMARK  status: ('A' for Active; 'I' for Inactive)
REMARK    1  A    between atoms: C_3  and  S_6
REMARK    2  A    between atoms: S_6  and  N_9
REMARK    3  A    between atoms: N_12  and  C_15
REMARK    4  A    between atoms: C_20  and  N_21
REMARK                            x       y       z     vdW  Elec       q    Type
REMARK                         _______ _______ _______ _____ _____    ______ ____
ROOT
ATOM      1  N   UNL     1       4.477   2.089   1.552  0.00  0.00    -0.173 NA
ATOM      2  C   UNL     1       4.259   3.349   2.277  0.00  0.00    +0.128 C 
ATOM      3  C   UNL     1       3.467   3.048   3.556  0.00  0.00    +0.122 C 
ATOM      4  N   UNL     1       4.115   1.930   4.257  0.00  0.00    -0.326 N 
ATOM      5  C   UNL     1       4.333   0.670   3.532  0.00  0.00    +0.122 C 
ATOM      6  C   UNL     1       5.120   0.970   2.255  0.00  0.00    +0.128 C 
ENDROOT
BRANCH   4   7
ATOM      7  C   UNL     1       4.516   2.063   5.586  0.00  0.00    +0.053 A 
ATOM      8  C   UNL     1       3.655   1.733   6.629  0.00  0.00    +0.042 A 
ATOM      9  C   UNL     1       4.089   1.877   7.931  0.00  0.00    +0.084 A 
ATOM     10  N   UNL     1       5.303   2.322   8.197  0.00  0.00    -0.365 N 
ATOM     11  C   UNL     1       6.152   2.648   7.240  0.00  0.00    +0.107 A 
ATOM     12  C   UNL     1       5.798   2.526   5.907  0.00  0.00    +0.062 A 
ATOM     13  H   UNL     1       5.578   2.413   9.122  0.00  0.00    +0.165 HD
BRANCH  12  14
ATOM     14  N   UNL     1       6.705   2.867   4.896  0.00  0.00    -0.355 N 
ATOM     15  H   UNL     1       6.447   2.783   3.965  0.00  0.00    +0.142 HD
ATOM     16  H   UNL     1       7.591   3.187   5.127  0.00  0.00    +0.142 HD
ENDBRANCH  12  14
ENDBRANCH   4   7
BRANCH   1  17
ATOM     17  S   UNL     1       4.001   1.932  -0.026  0.00  0.00    +0.067 S 
ATOM     18  O   UNL     1       4.799   0.900  -0.590  0.00  0.00    -0.152 OA
ATOM     19  O   UNL     1       3.957   3.244  -0.570  0.00  0.00    -0.152 OA
BRANCH  17  22
ATOM     20  C   UNL     1      -0.016   1.351   0.009  0.00  0.00    +0.010 A 
ATOM     21  C   UNL     1       1.183   2.038   0.002  0.00  0.00    +0.036 A 
ATOM     22  C   UNL     1       2.343   1.336  -0.013  0.00  0.00    +0.143 A 
ATOM     23  S   UNL     1       1.754  -0.349  -0.017  0.00  0.00    -0.077 S 
ATOM     24  C   UNL     1       0.002  -0.004   0.002  0.00  0.00    +0.047 A 
ENDBRANCH  17  22
ENDBRANCH   1  17
TORSDOF 4
