REMARK  Name = ZINC19538714
REMARK  9 active torsions:
REMARK  status: ('A' for Active; 'I' for Inactive)
REMARK    1  A    between atoms: C_4  and  C_7
REMARK    2  A    between atoms: C_7  and  C_8
REMARK    3  A    between atoms: C_8  and  C_10
REMARK    4  A    between atoms: C_8  and  N_16
REMARK    5  A    between atoms: N_16  and  C_17
REMARK    6  A    between atoms: C_17  and  C_18
REMARK    7  A    between atoms: N_20  and  C_21
REMARK    8  A    between atoms: C_25  and  S_27
REMARK    9  A    between atoms: S_27  and  N_30
REMARK                            x       y       z     vdW  Elec       q    Type
REMARK                         _______ _______ _______ _____ _____    ______ ____
ROOT
ATOM      1  C   UNL     1      -3.712  -1.062  -0.201  0.00  0.00    +0.016 C 
ENDROOT
BRANCH   1   2
ATOM      2  C   UNL     1      -2.415  -0.302  -0.090  0.00  0.00    +0.200 C 
ATOM      3  O   UNL     1      -1.359  -0.900  -0.098  0.00  0.00    -0.278 OA
ATOM      4  N   UNL     1      -2.428   1.041   0.019  0.00  0.00    -0.287 N 
ATOM      5  H   UNL     1      -3.384   1.576   0.114  0.00  0.00    +0.155 HD
BRANCH   4   6
ATOM      6  C   UNL     1      -1.225   1.755   0.012  0.00  0.00    +0.035 A 
ATOM      7  C   UNL     1      -0.152   1.303  -0.746  0.00  0.00    +0.023 A 
ATOM      8  C   UNL     1       1.032   2.013  -0.756  0.00  0.00    +0.004 A 
ATOM      9  C   UNL     1       1.152   3.171  -0.009  0.00  0.00    +0.028 A 
ATOM     10  C   UNL     1       0.088   3.621   0.750  0.00  0.00    +0.107 A 
ATOM     11  C   UNL     1      -1.099   2.915   0.764  0.00  0.00    +0.051 A 
BRANCH  10  12
ATOM     12  S   UNL     1       0.246   5.097   1.700  0.00  0.00    +0.061 S 
ATOM     13  O   UNL     1      -0.708   5.009   2.749  0.00  0.00    -0.153 OA
ATOM     14  O   UNL     1       1.634   5.276   1.945  0.00  0.00    -0.153 OA
BRANCH  12  15
ATOM     15  N   UNL     1      -0.230   6.354   0.733  0.00  0.00    -0.177 NA
ATOM     16  C   UNL     1       0.649   7.137  -0.149  0.00  0.00    +0.109 C 
ATOM     17  C   UNL     1      -0.225   8.211  -0.830  0.00  0.00    +0.018 C 
ATOM     18  C   UNL     1      -1.430   8.341   0.138  0.00  0.00    +0.018 C 
ATOM     19  C   UNL     1      -1.603   6.878   0.618  0.00  0.00    +0.109 C 
ENDBRANCH  12  15
ENDBRANCH  10  12
ENDBRANCH   4   6
ENDBRANCH   1   2
BRANCH   1  20
ATOM     20  N   UNL     1      -3.429  -2.500  -0.308  0.00  0.00    +0.389 N 
ATOM     21  H   UNL     1      -2.878  -2.818   0.589  0.00  0.00    -0.084 HD
ATOM     22  H   UNL     1      -2.809  -2.672  -1.200  0.00  0.00    -0.084 HD
BRANCH  20  23
ATOM     23  C   UNL     1      -4.673  -3.274  -0.419  0.00  0.00    -0.036 C 
BRANCH  23  24
ATOM     24  C   UNL     1      -5.110  -3.318  -1.860  0.00  0.00    -0.061 A 
ATOM     25  C   UNL     1      -4.171  -3.474  -2.863  0.00  0.00    +0.002 A 
ATOM     26  C   UNL     1      -4.573  -3.519  -4.185  0.00  0.00    +0.000 A 
ATOM     27  C   UNL     1      -5.912  -3.400  -4.505  0.00  0.00    +0.000 A 
ATOM     28  C   UNL     1      -6.851  -3.240  -3.502  0.00  0.00    +0.000 A 
ATOM     29  C   UNL     1      -6.450  -3.199  -2.180  0.00  0.00    +0.002 A 
ENDBRANCH  23  24
BRANCH  23  30
ATOM     30  C   UNL     1      -4.434  -4.698   0.086  0.00  0.00    +0.024 C 
BRANCH  30  34
ATOM     31  C   UNL     1      -3.534  -4.597   4.261  0.00  0.00    +0.000 A 
ATOM     32  C   UNL     1      -4.845  -4.719   3.839  0.00  0.00    +0.000 A 
ATOM     33  C   UNL     1      -5.136  -4.751   2.488  0.00  0.00    +0.003 A 
ATOM     34  C   UNL     1      -4.117  -4.662   1.559  0.00  0.00    -0.049 A 
ATOM     35  C   UNL     1      -2.805  -4.546   1.981  0.00  0.00    +0.003 A 
ATOM     36  C   UNL     1      -2.514  -4.508   3.332  0.00  0.00    +0.000 A 
ENDBRANCH  30  34
ENDBRANCH  23  30
ENDBRANCH  20  23
ENDBRANCH   1  20
TORSDOF 9
