REMARK  Name = ZINC63217011
REMARK  12 active torsions:
REMARK  status: ('A' for Active; 'I' for Inactive)
REMARK    1  A    between atoms: C_1  and  N_2
REMARK    2  A    between atoms: N_2  and  C_3
REMARK    3  A    between atoms: N_2  and  C_4
REMARK    4  A    between atoms: C_4  and  C_5
REMARK    5  A    between atoms: C_5  and  C_6
REMARK    6  A    between atoms: C_6  and  N_7
REMARK    7  A    between atoms: N_7  and  C_8
REMARK    8  A    between atoms: C_8  and  N_10
REMARK    9  A    between atoms: N_10  and  C_11
REMARK   10  A    between atoms: C_11  and  C_12
REMARK   11  A    between atoms: C_12  and  C_14
REMARK   12  A    between atoms: C_12  and  C_22
REMARK                            x       y       z     vdW  Elec       q    Type
REMARK                         _______ _______ _______ _____ _____    ______ ____
ROOT
ATOM      1  C   UNL     1      -4.882  -8.299  -0.529  0.00  0.00    +0.066 C 
ENDROOT
BRANCH   1   2
ATOM      2  C   UNL     1      -6.167  -9.079  -0.422  0.00  0.00    -0.033 C 
ATOM      3  C   UNL     1      -6.472 -10.022   0.499  0.00  0.00    -0.000 A 
ATOM      4  C   UNL     1      -5.726 -10.583   1.631  0.00  0.00    +0.010 A 
ATOM      5  C   UNL     1      -6.308 -11.539   2.391  0.00  0.00    +0.001 A 
ATOM      6  C   UNL     1      -7.602 -12.007   2.124  0.00  0.00    +0.002 A 
ATOM      7  C   UNL     1      -8.349 -11.540   1.101  0.00  0.00    +0.026 A 
ATOM      8  C   UNL     1      -7.837 -10.532   0.238  0.00  0.00    +0.043 A 
ATOM      9  N   UNL     1      -8.356  -9.928  -0.803  0.00  0.00    -0.380 N 
ATOM     10  C   UNL     1      -7.380  -8.961  -1.318  0.00  0.00    +0.145 C 
ATOM     11  H   UNL     1      -9.239 -10.091  -1.170  0.00  0.00    +0.160 HD
ENDBRANCH   1   2
BRANCH   1  12
ATOM     12  C   UNL     1      -4.247  -8.560  -1.871  0.00  0.00    -0.020 A 
ATOM     13  C   UNL     1      -4.926  -8.237  -3.031  0.00  0.00    +0.007 A 
ATOM     14  C   UNL     1      -4.345  -8.475  -4.262  0.00  0.00    +0.020 A 
ATOM     15  C   UNL     1      -3.082  -9.037  -4.334  0.00  0.00    +0.042 A 
ATOM     16  C   UNL     1      -2.402  -9.360  -3.173  0.00  0.00    +0.040 A 
ATOM     17  C   UNL     1      -2.983  -9.116  -1.941  0.00  0.00    +0.046 A 
ATOM     18 CL   UNL     1      -2.128  -9.515  -0.484  0.00  0.00    -0.083 Cl
ATOM     19 CL   UNL     1      -2.352  -9.337  -5.880  0.00  0.00    -0.083 Cl
ENDBRANCH   1  12
BRANCH   1  20
ATOM     20  C   UNL     1      -5.179  -6.805  -0.387  0.00  0.00    +0.115 C 
BRANCH  20  21
ATOM     21  N   UNL     1      -3.920  -6.057  -0.371  0.00  0.00    -0.326 N 
ATOM     22  H   UNL     1      -3.075  -6.527  -0.446  0.00  0.00    +0.148 HD
BRANCH  21  23
ATOM     23  C   UNL     1      -3.935  -4.714  -0.253  0.00  0.00    +0.130 C 
ATOM     24  S   UNL     1      -5.427  -3.884  -0.121  0.00  0.00    -0.019 S 
BRANCH  23  25
ATOM     25  N   UNL     1      -2.777  -4.025  -0.239  0.00  0.00    -0.327 N 
ATOM     26  H   UNL     1      -1.932  -4.496  -0.314  0.00  0.00    +0.148 HD
BRANCH  25  27
ATOM     27  C   UNL     1      -2.794  -2.566  -0.111  0.00  0.00    +0.101 C 
BRANCH  27  28
ATOM     28  C   UNL     1      -1.358  -2.037  -0.122  0.00  0.00    +0.000 C 
BRANCH  28  29
ATOM     29  C   UNL     1      -1.376  -0.512   0.012  0.00  0.00    -0.078 C 
BRANCH  29  31
ATOM     30  C   UNL     1      -0.018   1.465   0.010  0.00  0.00    -0.097 C 
ATOM     31  N   UNL     1       0.002  -0.004   0.002  0.00  0.00    +0.376 N 
ATOM     32  C   UNL     1       0.713  -0.491   1.192  0.00  0.00    -0.097 C 
ATOM     33  H   UNL     1       0.474  -0.330  -0.828  0.00  0.00    -0.083 HD
ENDBRANCH  29  31
ENDBRANCH  28  29
ENDBRANCH  27  28
ENDBRANCH  25  27
ENDBRANCH  23  25
ENDBRANCH  21  23
ENDBRANCH  20  21
ENDBRANCH   1  20
TORSDOF 10
