REMARK  Name = ZINC65001600
REMARK  12 active torsions:
REMARK  status: ('A' for Active; 'I' for Inactive)
REMARK    1  A    between atoms: C_1  and  C_2
REMARK    2  A    between atoms: C_2  and  C_3
REMARK    3  A    between atoms: C_2  and  C_4
REMARK    4  A    between atoms: C_2  and  C_5
REMARK    5  A    between atoms: C_8  and  N_12
REMARK    6  A    between atoms: C_13  and  C_15
REMARK    7  A    between atoms: C_15  and  C_16
REMARK    8  A    between atoms: C_16  and  C_17
REMARK    9  A    between atoms: C_17  and  C_18
REMARK   10  A    between atoms: C_18  and  C_19
REMARK   11  A    between atoms: C_19  and  N_20
REMARK   12  A    between atoms: C_27  and  N_31
REMARK                            x       y       z     vdW  Elec       q    Type
REMARK                         _______ _______ _______ _____ _____    ______ ____
ROOT
ATOM      1  C   UNL     1       1.853  -4.202  -7.460  0.00  0.00    +0.009 C 
ENDROOT
BRANCH   1   2
ATOM      2  C   UNL     1       2.780  -3.267  -6.680  0.00  0.00    +0.096 C 
BRANCH   2   4
ATOM      3  N   UNL     1       2.657  -1.836  -4.666  0.00  0.00    -0.285 N 
ATOM      4  C   UNL     1       2.036  -2.692  -5.502  0.00  0.00    +0.217 C 
ATOM      5  O   UNL     1       0.879  -3.000  -5.306  0.00  0.00    -0.275 OA
ATOM      6  H   UNL     1       3.554  -1.527  -4.866  0.00  0.00    +0.155 HD
BRANCH   3  10
ATOM      7  C   UNL     1       0.720  -0.515  -1.221  0.00  0.00    -0.041 A 
ATOM      8  C   UNL     1       0.362  -1.721  -1.795  0.00  0.00    +0.006 A 
ATOM      9  C   UNL     1       1.002  -2.161  -2.937  0.00  0.00    +0.025 A 
ATOM     10  C   UNL     1       2.006  -1.392  -3.509  0.00  0.00    +0.047 A 
ATOM     11  C   UNL     1       2.364  -0.181  -2.930  0.00  0.00    +0.039 A 
ATOM     12  C   UNL     1       1.716   0.256  -1.790  0.00  0.00    +0.021 A 
ATOM     13 BR   UNL     1       3.732   0.871  -3.704  0.00  0.00    -0.048 Br
BRANCH   7  15
ATOM     14  C   UNL     1      -0.663   1.302  -0.255  0.00  0.00    +0.015 C 
ATOM     15  C   UNL     1       0.020  -0.038   0.025  0.00  0.00    -0.013 C 
ATOM     16  C   UNL     1       1.043   0.136   1.150  0.00  0.00    +0.015 C 
ATOM     17  C   UNL     1      -1.030  -1.068   0.446  0.00  0.00    +0.015 C 
ENDBRANCH   7  15
ENDBRANCH   3  10
ENDBRANCH   2   4
ENDBRANCH   1   2
BRANCH   1  18
ATOM     18  C   UNL     1       2.608  -4.786  -8.657  0.00  0.00    +0.002 C 
BRANCH  18  19
ATOM     19  C   UNL     1       1.682  -5.720  -9.437  0.00  0.00    +0.019 C 
BRANCH  19  20
ATOM     20  C   UNL     1       2.437  -6.304 -10.633  0.00  0.00    +0.117 C 
BRANCH  20  21
ATOM     21  N   UNL     1       1.550  -7.199 -11.380  0.00  0.00    -0.234 N 
ATOM     22  C   UNL     1       1.418  -8.516 -11.139  0.00  0.00    +0.254 C 
ATOM     23  O   UNL     1       2.006  -9.141 -10.280  0.00  0.00    -0.270 OA
ATOM     24  C   UNL     1       0.437  -9.074 -12.094  0.00  0.00    +0.052 A 
ATOM     25  C   UNL     1      -0.086 -10.338 -12.316  0.00  0.00    +0.014 A 
ATOM     26  C   UNL     1      -1.018 -10.528 -13.324  0.00  0.00    +0.003 A 
ATOM     27  C   UNL     1      -1.427  -9.467 -14.110  0.00  0.00    +0.033 A 
ATOM     28  C   UNL     1      -0.912  -8.197 -13.899  0.00  0.00    +0.139 A 
ATOM     29  C   UNL     1       0.019  -7.992 -12.894  0.00  0.00    +0.080 A 
ATOM     30  C   UNL     1       0.756  -6.812 -12.395  0.00  0.00    +0.256 C 
ATOM     31  O   UNL     1       0.663  -5.682 -12.830  0.00  0.00    -0.269 OA
BRANCH  28  32
ATOM     32  N   UNL     1      -1.356  -7.066 -14.744  0.00  0.00    +0.057 N 
ATOM     33  O   UNL     1      -2.169  -7.248 -15.620  0.00  0.00    -0.126 OA
ATOM     34  O   UNL     1      -0.905  -5.960 -14.558  0.00  0.00    -0.126 OA
ENDBRANCH  28  32
ENDBRANCH  20  21
ENDBRANCH  19  20
ENDBRANCH  18  19
ENDBRANCH   1  18
TORSDOF 9
