REMARK  Name = ZINC39678997
REMARK  11 active torsions:
REMARK  status: ('A' for Active; 'I' for Inactive)
REMARK    1  A    between atoms: C_1  and  N_2
REMARK    2  A    between atoms: N_2  and  C_3
REMARK    3  A    between atoms: N_2  and  C_4
REMARK    4  A    between atoms: C_4  and  C_5
REMARK    5  A    between atoms: C_5  and  C_6
REMARK    6  A    between atoms: C_6  and  C_7
REMARK    7  A    between atoms: C_7  and  N_8
REMARK    8  A    between atoms: C_9  and  C_11
REMARK    9  A    between atoms: C_22  and  C_24
REMARK   10  A    between atoms: C_24  and  O_25
REMARK   11  A    between atoms: O_25  and  C_26
REMARK                            x       y       z     vdW  Elec       q    Type
REMARK                         _______ _______ _______ _____ _____    ______ ____
ROOT
ATOM      1  C   UNL     1      -5.795  -6.442  -0.330  0.00  0.00    +0.100 C 
ATOM      2  C   UNL     1      -6.613  -5.804  -1.476  0.00  0.00    +0.121 C 
ATOM      3  N   UNL     1      -6.526  -6.780  -2.587  0.00  0.00    -0.297 N 
ATOM      4  C   UNL     1      -6.630  -8.103  -1.925  0.00  0.00    +0.115 C 
ATOM      5  C   UNL     1      -5.811  -7.951  -0.627  0.00  0.00    -0.004 C 
ATOM      6  C   UNL     1      -4.390  -8.464  -0.838  0.00  0.00    -0.010 C 
ATOM      7  C   UNL     1      -4.428  -9.976  -1.076  0.00  0.00    -0.082 C 
ATOM      8  N   UNL     1      -5.042 -10.639   0.081  0.00  0.00    +0.379 N 
ATOM      9  C   UNL     1      -6.438 -10.210   0.222  0.00  0.00    -0.082 C 
ATOM     10  C   UNL     1      -6.486  -8.707   0.513  0.00  0.00    -0.010 C 
ATOM     11  C   UNL     1      -6.385  -6.524  -3.903  0.00  0.00    +0.253 C 
ATOM     12  O   UNL     1      -6.330  -7.439  -4.696  0.00  0.00    -0.272 OA
ATOM     13  H   UNL     1      -5.010 -11.639  -0.051  0.00  0.00    -0.086 HD
ATOM     14  H   UNL     1      -4.531 -10.397   0.917  0.00  0.00    -0.086 HD
ENDROOT
BRANCH   1  16
ATOM     15  N   UNL     1      -3.676  -5.862   0.806  0.00  0.00    -0.315 N 
ATOM     16  C   UNL     1      -4.381  -5.921  -0.341  0.00  0.00    +0.218 C 
ATOM     17  O   UNL     1      -3.878  -5.554  -1.382  0.00  0.00    -0.275 OA
ATOM     18  H   UNL     1      -4.078  -6.156   1.638  0.00  0.00    +0.149 HD
BRANCH  15  19
ATOM     19  C   UNL     1      -2.302  -5.355   0.795  0.00  0.00    +0.104 C 
BRANCH  19  20
ATOM     20  C   UNL     1      -1.733  -5.394   2.215  0.00  0.00    +0.017 C 
BRANCH  20  21
ATOM     21  C   UNL     1      -0.297  -4.865   2.204  0.00  0.00    -0.017 C 
BRANCH  21  22
ATOM     22  C   UNL     1       0.272  -4.904   3.624  0.00  0.00    -0.080 C 
BRANCH  22  24
ATOM     23  C   UNL     1       2.154  -4.321   4.991  0.00  0.00    -0.097 C 
ATOM     24  N   UNL     1       1.650  -4.396   3.614  0.00  0.00    +0.376 N 
ATOM     25  C   UNL     1       2.500  -5.301   2.829  0.00  0.00    -0.097 C 
ATOM     26  H   UNL     1       1.666  -3.476   3.199  0.00  0.00    -0.083 HD
ENDBRANCH  22  24
ENDBRANCH  21  22
ENDBRANCH  20  21
ENDBRANCH  19  20
ENDBRANCH  15  19
ENDBRANCH   1  16
BRANCH  11  27
ATOM     27  C   UNL     1      -6.296  -5.099  -4.387  0.00  0.00    +0.324 C 
BRANCH  27  28
ATOM     28  O   UNL     1      -6.151  -5.088  -5.809  0.00  0.00    -0.483 OA
BRANCH  28  29
ATOM     29  C   UNL     1      -6.057  -3.873  -6.410  0.00  0.00    +0.123 A 
ATOM     30  C   UNL     1      -6.096  -2.715  -5.646  0.00  0.00    +0.046 A 
ATOM     31  C   UNL     1      -5.999  -1.481  -6.259  0.00  0.00    +0.005 A 
ATOM     32  C   UNL     1      -5.863  -1.398  -7.632  0.00  0.00    +0.020 A 
ATOM     33  C   UNL     1      -5.823  -2.551  -8.396  0.00  0.00    +0.044 A 
ATOM     34  C   UNL     1      -5.914  -3.789  -7.787  0.00  0.00    +0.065 A 
ATOM     35 CL   UNL     1      -5.652  -2.443 -10.120  0.00  0.00    -0.083 Cl
ENDBRANCH  28  29
ENDBRANCH  27  28
ENDBRANCH  11  27
TORSDOF 9
