REMARK  Name = ZINC55887772
REMARK  10 active torsions:
REMARK  status: ('A' for Active; 'I' for Inactive)
REMARK    1  A    between atoms: C_1  and  C_2
REMARK    2  A    between atoms: C_5  and  C_9
REMARK    3  A    between atoms: C_7  and  C_8
REMARK    4  A    between atoms: C_9  and  C_11
REMARK    5  A    between atoms: C_9  and  N_12
REMARK    6  A    between atoms: C_13  and  C_15
REMARK    7  A    between atoms: C_15  and  N_16
REMARK    8  A    between atoms: N_16  and  C_17
REMARK    9  A    between atoms: C_22  and  N_23
REMARK   10  A    between atoms: C_26  and  O_29
REMARK                            x       y       z     vdW  Elec       q    Type
REMARK                         _______ _______ _______ _____ _____    ______ ____
ROOT
ATOM      1  N   UNL     1       2.902  -7.803  -1.776  0.00  0.00    -0.334 N 
ATOM      2  H   UNL     1       2.619  -8.236  -0.956  0.00  0.00    +0.147 HD
ENDROOT
BRANCH   1   3
ATOM      3  C   UNL     1       3.786  -8.454  -2.640  0.00  0.00    +0.047 A 
ATOM      4  C   UNL     1       4.101  -7.888  -3.869  0.00  0.00    +0.025 A 
ATOM      5  C   UNL     1       4.975  -8.534  -4.721  0.00  0.00    +0.002 A 
ATOM      6  C   UNL     1       5.537  -9.743  -4.351  0.00  0.00    +0.002 A 
ATOM      7  C   UNL     1       5.225 -10.309  -3.129  0.00  0.00    +0.023 A 
ATOM      8  C   UNL     1       4.356  -9.665  -2.270  0.00  0.00    +0.035 A 
BRANCH   8   9
ATOM      9  N   UNL     1       4.046 -10.235  -1.031  0.00  0.00    -0.392 NA
ATOM     10  C   UNL     1       3.518 -11.589  -1.236  0.00  0.00    +0.087 C 
ATOM     11  C   UNL     1       3.102 -12.187   0.110  0.00  0.00    +0.048 C 
ATOM     12  C   UNL     1       4.321 -12.247   1.035  0.00  0.00    +0.117 C 
ATOM     13  C   UNL     1       4.907 -10.840   1.181  0.00  0.00    +0.048 C 
ATOM     14  C   UNL     1       5.257 -10.292  -0.204  0.00  0.00    +0.087 C 
ATOM     15  H   UNL     1       3.349  -9.671  -0.568  0.00  0.00    +0.126 HD
BRANCH  12  16
ATOM     16  O   UNL     1       3.924 -12.735   2.318  0.00  0.00    -0.392 OA
ATOM     17  H   UNL     1       4.647 -12.799   2.955  0.00  0.00    +0.210 HD
ENDBRANCH  12  16
ENDBRANCH   8   9
ENDBRANCH   1   3
BRANCH   1  18
ATOM     18  C   UNL     1       2.405  -6.465  -2.108  0.00  0.00    +0.197 C 
BRANCH  18  20
ATOM     19  N   UNL     1       0.893  -4.779  -1.113  0.00  0.00    -0.307 N 
ATOM     20  C   UNL     1       1.475  -5.991  -1.021  0.00  0.00    +0.231 C 
ATOM     21  O   UNL     1       1.250  -6.700  -0.063  0.00  0.00    -0.274 OA
ATOM     22  H   UNL     1       1.073  -4.212  -1.879  0.00  0.00    +0.149 HD
BRANCH  19  23
ATOM     23  C   UNL     1      -0.011  -4.318  -0.057  0.00  0.00    +0.100 C 
ATOM     24  C   UNL     1      -1.420  -4.852  -0.322  0.00  0.00    +0.033 C 
BRANCH  23  29
ATOM     25  C   UNL     1      -0.123   1.460  -0.000  0.00  0.00    +0.044 C 
ATOM     26  C   UNL     1      -0.094  -0.047  -0.015  0.00  0.00    -0.048 A 
ATOM     27  C   UNL     1      -0.071  -0.727  -1.219  0.00  0.00    +0.004 A 
ATOM     28  C   UNL     1      -0.044  -2.108  -1.232  0.00  0.00    +0.006 A 
ATOM     29  C   UNL     1      -0.039  -2.811  -0.042  0.00  0.00    -0.027 A 
ATOM     30  C   UNL     1      -0.060  -2.132   1.162  0.00  0.00    +0.009 A 
ATOM     31  C   UNL     1      -0.083  -0.750   1.175  0.00  0.00    -0.047 A 
ATOM     32  C   UNL     1      -0.101  -0.009   2.487  0.00  0.00    +0.044 C 
ENDBRANCH  23  29
ENDBRANCH  19  23
ENDBRANCH  18  20
ENDBRANCH   1  18
TORSDOF 7
