REMARK  Name = ZINC19899342
REMARK  5 active torsions:
REMARK  status: ('A' for Active; 'I' for Inactive)
REMARK    1  A    between atoms: C_6  and  N_7
REMARK    2  A    between atoms: C_8  and  C_10
REMARK    3  A    between atoms: C_10  and  N_11
REMARK    4  A    between atoms: C_14  and  C_17
REMARK    5  A    between atoms: C_14  and  N_20
REMARK                            x       y       z     vdW  Elec       q    Type
REMARK                         _______ _______ _______ _____ _____    ______ ____
ROOT
ATOM      1  N   UNL     1       4.545   2.195   0.054  0.00  0.00    +0.386 N 
ATOM      2  C   UNL     1       4.214   2.815  -1.235  0.00  0.00    -0.076 C 
ATOM      3  C   UNL     1       5.303   3.820  -1.615  0.00  0.00    +0.013 C 
ATOM      4  C   UNL     1       6.649   3.095  -1.707  0.00  0.00    +0.095 C 
ATOM      5  C   UNL     1       6.948   2.418  -0.366  0.00  0.00    +0.013 C 
ATOM      6  C   UNL     1       5.811   1.454  -0.022  0.00  0.00    -0.076 C 
ATOM      7  H   UNL     1       4.674   3.002   0.791  0.00  0.00    -0.081 HD
ENDROOT
BRANCH   4   8
ATOM      8  N   UNL     1       7.709   4.065  -2.014  0.00  0.00    -0.289 NA
ATOM      9  C   UNL     1       7.868   5.034  -0.922  0.00  0.00    +0.085 C 
ATOM     10  C   UNL     1       9.072   5.935  -1.209  0.00  0.00    +0.015 C 
ATOM     11  C   UNL     1       8.851   6.666  -2.537  0.00  0.00    +0.002 C 
ATOM     12  C   UNL     1       8.639   5.635  -3.649  0.00  0.00    +0.015 C 
ATOM     13  C   UNL     1       7.449   4.742  -3.291  0.00  0.00    +0.085 C 
ENDBRANCH   4   8
BRANCH   4  14
ATOM     14  C   UNL     1       6.588   2.054  -2.794  0.00  0.00    +0.231 C 
ATOM     15  O   UNL     1       5.514   1.635  -3.172  0.00  0.00    -0.274 OA
ATOM     16  N   UNL     1       7.725   1.588  -3.347  0.00  0.00    -0.328 N 
ATOM     17  H   UNL     1       7.680   0.828  -4.140  0.00  0.00    +0.145 HD
ATOM     18  H   UNL     1       8.699   1.968  -3.004  0.00  0.00    +0.145 HD
ENDBRANCH   4  14
BRANCH   1  19
ATOM     19  C   UNL     1       3.454   1.328   0.518  0.00  0.00    +0.019 C 
BRANCH  19  21
ATOM     20  N   UNL     1       1.109   1.581   1.261  0.00  0.00    -0.287 N 
ATOM     21  C   UNL     1       2.239   2.166   0.819  0.00  0.00    +0.201 C 
ATOM     22  O   UNL     1       2.278   3.369   0.663  0.00  0.00    -0.278 OA
ATOM     23  H   UNL     1       1.048   0.484   1.331  0.00  0.00    +0.155 HD
BRANCH  20  29
ATOM     24  C   UNL     1       0.213   3.612   2.214  0.00  0.00    +0.024 A 
ATOM     25  C   UNL     1      -0.871   4.388   2.573  0.00  0.00    +0.017 A 
ATOM     26  C   UNL     1      -2.157   3.921   2.366  0.00  0.00    +0.018 A 
ATOM     27  C   UNL     1      -2.360   2.679   1.792  0.00  0.00    +0.017 A 
ATOM     28  C   UNL     1      -1.280   1.901   1.425  0.00  0.00    +0.024 A 
ATOM     29  C   UNL     1       0.012   2.367   1.632  0.00  0.00    +0.033 A 
ATOM     30 BR   UNL     1      -3.638   4.984   2.868  0.00  0.00    -0.050 Br
ENDBRANCH  20  29
ENDBRANCH  19  21
ENDBRANCH   1  19
TORSDOF 5
