REMARK  Name = ZINC13499676
REMARK  17 active torsions:
REMARK  status: ('A' for Active; 'I' for Inactive)
REMARK    1  A    between atoms: C_1  and  C_2
REMARK    2  A    between atoms: C_2  and  C_3
REMARK    3  A    between atoms: C_3  and  C_4
REMARK    4  A    between atoms: C_4  and  C_6
REMARK    5  A    between atoms: C_4  and  N_68
REMARK    6  A    between atoms: N_10  and  C_11
REMARK    7  A    between atoms: C_11  and  C_12
REMARK    8  A    between atoms: C_11  and  C_13
REMARK    9  A    between atoms: C_11  and  C_14
REMARK   10  A    between atoms: C_15  and  C_16
REMARK   11  A    between atoms: C_15  and  N_68
REMARK   12  A    between atoms: C_16  and  C_17
REMARK   13  A    between atoms: C_17  and  O_18
REMARK   14  A    between atoms: C_19  and  C_20
REMARK   15  A    between atoms: C_19  and  N_68
REMARK   16  A    between atoms: C_23  and  C_33
REMARK   17  A    between atoms: C_26  and  C_32
REMARK                            x       y       z     vdW  Elec       q    Type
REMARK                         _______ _______ _______ _____ _____    ______ ____
ROOT
ATOM      1  N   UNL     1      -1.280   0.656  -0.353  0.00  0.00    +0.389 N 
ATOM      2  H   UNL     1      -1.110  -0.308  -0.662  0.00  0.00    -0.080 HD
ENDROOT
BRANCH   1   3
ATOM      3  C   UNL     1      -0.167   1.512  -0.817  0.00  0.00    +0.003 C 
BRANCH   3   4
ATOM      4  C   UNL     1      -0.472   2.026  -2.200  0.00  0.00    +0.139 A 
ATOM      5  N   UNL     1      -0.866   1.316  -3.229  0.00  0.00    -0.115 NA
ATOM      6  N   UNL     1      -1.022   2.115  -4.227  0.00  0.00    -0.023 NA
ATOM      7  N   UNL     1      -0.730   3.315  -3.864  0.00  0.00    -0.043 NA
ATOM      8  N   UNL     1      -0.386   3.301  -2.620  0.00  0.00    -0.226 N 
BRANCH   8   9
ATOM      9  C   UNL     1       0.022   4.457  -1.817  0.00  0.00    +0.059 C 
ATOM     10  C   UNL     1       1.374   4.171  -1.162  0.00  0.00    +0.036 C 
ATOM     11  C   UNL     1       0.142   5.687  -2.718  0.00  0.00    +0.036 C 
ATOM     12  C   UNL     1      -1.025   4.718  -0.733  0.00  0.00    +0.036 C 
ENDBRANCH   8   9
ENDBRANCH   3   4
BRANCH   3  13
ATOM     13  C   UNL     1       1.111   0.671  -0.855  0.00  0.00    -0.008 C 
BRANCH  13  15
ATOM     14  C   UNL     1       2.799  -0.526   0.545  0.00  0.00    +0.004 C 
ATOM     15  C   UNL     1       1.446   0.188   0.558  0.00  0.00    -0.005 C 
ENDBRANCH  13  15
ENDBRANCH   3  13
ENDBRANCH   1   3
BRANCH   1  16
ATOM     16  C   UNL     1      -2.555   1.129  -0.933  0.00  0.00    -0.075 C 
BRANCH  16  17
ATOM     17  C   UNL     1      -3.667   0.153  -0.543  0.00  0.00    +0.009 C 
BRANCH  17  18
ATOM     18  C   UNL     1      -4.964   0.548  -1.253  0.00  0.00    +0.154 C 
BRANCH  18  19
ATOM     19  O   UNL     1      -6.002  -0.363  -0.890  0.00  0.00    -0.395 OA
ATOM     20  H   UNL     1      -6.855  -0.173  -1.304  0.00  0.00    +0.209 HD
ENDBRANCH  18  19
ENDBRANCH  17  18
ENDBRANCH  16  17
ENDBRANCH   1  16
BRANCH   1  21
ATOM     21  C   UNL     1      -1.356   0.682   1.123  0.00  0.00    -0.037 C 
BRANCH  21  22
ATOM     22  C   UNL     1      -1.715   2.062   1.610  0.00  0.00    +0.001 A 
ATOM     23  C   UNL     1      -3.013   2.382   1.835  0.00  0.00    +0.017 A 
ATOM     24  C   UNL     1      -3.328   3.730   2.312  0.00  0.00    +0.002 A 
ATOM     25  C   UNL     1      -4.648   4.117   2.567  0.00  0.00    -0.041 A 
ATOM     26  C   UNL     1      -4.909   5.383   3.008  0.00  0.00    +0.004 A 
ATOM     27  C   UNL     1      -3.876   6.290   3.206  0.00  0.00    +0.005 A 
ATOM     28  C   UNL     1      -2.568   5.930   2.961  0.00  0.00    -0.026 A 
ATOM     29  C   UNL     1      -2.278   4.646   2.511  0.00  0.00    +0.052 A 
ATOM     30  N   UNL     1      -0.979   4.259   2.260  0.00  0.00    -0.322 N 
ATOM     31  H   UNL     1      -0.257   4.891   2.397  0.00  0.00    +0.169 HD
ATOM     32  C   UNL     1      -0.699   3.018   1.825  0.00  0.00    +0.251 A 
ATOM     33  O   UNL     1       0.461   2.710   1.612  0.00  0.00    -0.268 OA
ATOM     34  C   UNL     1      -1.457   6.924   3.179  0.00  0.00    +0.046 C 
ATOM     35  C   UNL     1      -5.777   3.142   2.357  0.00  0.00    +0.044 C 
ENDBRANCH  21  22
ENDBRANCH   1  21
TORSDOF 11
