REMARK  Name = ZINC64609989
REMARK  8 active torsions:
REMARK  status: ('A' for Active; 'I' for Inactive)
REMARK    1  A    between atoms: C_4  and  C_7
REMARK    2  A    between atoms: C_7  and  C_8
REMARK    3  A    between atoms: C_7  and  C_33
REMARK    4  A    between atoms: C_8  and  C_9
REMARK    5  A    between atoms: C_9  and  N_10
REMARK    6  A    between atoms: C_11  and  C_13
REMARK    7  A    between atoms: N_19  and  C_22
REMARK    8  A    between atoms: C_22  and  C_23
REMARK                            x       y       z     vdW  Elec       q    Type
REMARK                         _______ _______ _______ _____ _____    ______ ____
ROOT
ATOM      1  C   UNL     1       3.222  -1.538   6.521  0.00  0.00    +0.082 C 
ATOM      2  C   UNL     1       1.960  -1.253   7.338  0.00  0.00    +0.020 C 
ATOM      3  C   UNL     1       3.283  -0.587   7.714  0.00  0.00    -0.021 C 
ATOM      4  C   UNL     1       3.992  -1.073   8.983  0.00  0.00    -0.011 C 
ATOM      5  C   UNL     1       3.588  -0.162  10.147  0.00  0.00    -0.078 C 
ATOM      6  N   UNL     1       3.906   1.231   9.814  0.00  0.00    +0.381 N 
ATOM      7  C   UNL     1       3.069   1.689   8.698  0.00  0.00    -0.078 C 
ATOM      8  C   UNL     1       3.437   0.911   7.430  0.00  0.00    -0.011 C 
ATOM      9  H   UNL     1       4.878   1.299   9.552  0.00  0.00    -0.082 HD
ENDROOT
BRANCH   1  11
ATOM     10  N   UNL     1       3.261  -1.726   4.055  0.00  0.00    -0.315 N 
ATOM     11  C   UNL     1       3.312  -0.933   5.144  0.00  0.00    +0.217 C 
ATOM     12  O   UNL     1       3.429   0.268   5.015  0.00  0.00    -0.275 OA
ATOM     13  H   UNL     1       3.167  -2.685   4.158  0.00  0.00    +0.149 HD
BRANCH  10  14
ATOM     14  C   UNL     1       3.348  -1.137   2.716  0.00  0.00    +0.105 C 
BRANCH  14  15
ATOM     15  C   UNL     1       3.267  -2.247   1.665  0.00  0.00    +0.031 C 
BRANCH  15  16
ATOM     16  C   UNL     1       3.357  -1.632   0.267  0.00  0.00    +0.050 C 
BRANCH  16  20
ATOM     17  C   UNL     1      -0.059   0.836  -0.430  0.00  0.00    +0.000 A 
ATOM     18  C   UNL     1       1.212   1.342  -0.628  0.00  0.00    +0.000 A 
ATOM     19  C   UNL     1       2.317   0.544  -0.403  0.00  0.00    +0.004 A 
ATOM     20  C   UNL     1       2.152  -0.761   0.022  0.00  0.00    -0.040 A 
ATOM     21  C   UNL     1       0.881  -1.268   0.221  0.00  0.00    +0.004 A 
ATOM     22  C   UNL     1      -0.224  -0.470  -0.007  0.00  0.00    +0.000 A 
ENDBRANCH  16  20
BRANCH  16  23
ATOM     23  C   UNL     1       3.401  -2.732  -0.763  0.00  0.00    -0.040 A 
ATOM     24  C   UNL     1       2.438  -3.724  -0.755  0.00  0.00    +0.004 A 
ATOM     25  C   UNL     1       2.478  -4.733  -1.700  0.00  0.00    +0.000 A 
ATOM     26  C   UNL     1       3.480  -4.749  -2.652  0.00  0.00    +0.000 A 
ATOM     27  C   UNL     1       4.441  -3.756  -2.660  0.00  0.00    +0.000 A 
ATOM     28  C   UNL     1       4.399  -2.745  -1.718  0.00  0.00    +0.004 A 
ENDBRANCH  16  23
ENDBRANCH  15  16
ENDBRANCH  14  15
ENDBRANCH  10  14
ENDBRANCH   1  11
BRANCH   6  29
ATOM     29  C   UNL     1       3.660   2.080  10.987  0.00  0.00    -0.050 C 
BRANCH  29  30
ATOM     30  C   UNL     1       4.632   1.698  12.106  0.00  0.00    +0.086 C 
ATOM     31  C   UNL     1       4.531   2.688  13.245  0.00  0.00    +0.005 C 
ATOM     32  C   UNL     1       5.755   3.251  13.362  0.00  0.00    -0.004 A 
ATOM     33  C   UNL     1       6.298   4.270  14.267  0.00  0.00    +0.010 A 
ATOM     34  C   UNL     1       7.593   4.638  14.139  0.00  0.00    +0.001 A 
ATOM     35  C   UNL     1       8.428   4.072  13.166  0.00  0.00    +0.002 A 
ATOM     36  C   UNL     1       8.001   3.129  12.299  0.00  0.00    +0.026 A 
ATOM     37  C   UNL     1       6.657   2.667  12.343  0.00  0.00    +0.043 A 
ATOM     38  N   UNL     1       6.015   1.777  11.623  0.00  0.00    -0.380 N 
ATOM     39  H   UNL     1       6.391   1.259  10.895  0.00  0.00    +0.160 HD
ENDBRANCH  29  30
ENDBRANCH   6  29
TORSDOF 8
