REMARK  Name = ZINC67129507
REMARK  9 active torsions:
REMARK  status: ('A' for Active; 'I' for Inactive)
REMARK    1  A    between atoms: C_1  and  C_2
REMARK    2  A    between atoms: C_2  and  C_3
REMARK    3  A    between atoms: C_3  and  C_4
REMARK    4  A    between atoms: C_3  and  C_5
REMARK    5  A    between atoms: C_3  and  N_6
REMARK    6  A    between atoms: C_7  and  C_9
REMARK    7  A    between atoms: C_9  and  N_10
REMARK    8  A    between atoms: C_12  and  O_20
REMARK    9  A    between atoms: C_15  and  C_17
REMARK                            x       y       z     vdW  Elec       q    Type
REMARK                         _______ _______ _______ _____ _____    ______ ____
ROOT
ATOM      1  N   UNL     1       2.029  -4.603  -3.502  0.00  0.00    +0.395 N 
ATOM      2  C   UNL     1       3.476  -4.276  -3.430  0.00  0.00    -0.045 C 
ATOM      3  C   UNL     1       4.117  -5.282  -4.417  0.00  0.00    +0.097 C 
ATOM      4  C   UNL     1       3.282  -6.564  -4.195  0.00  0.00    +0.023 C 
ATOM      5  C   UNL     1       1.954  -6.078  -3.587  0.00  0.00    +0.022 C 
ATOM      6  H   UNL     1       1.617  -4.186  -4.323  0.00  0.00    -0.080 HD
ENDROOT
BRANCH   5   7
ATOM      7  C   UNL     1       0.804  -6.483  -4.473  0.00  0.00    +0.197 C 
ATOM      8  O   UNL     1       0.108  -5.634  -4.989  0.00  0.00    -0.278 OA
ATOM      9  N   UNL     1       0.549  -7.788  -4.692  0.00  0.00    -0.331 N 
ATOM     10  H   UNL     1       1.105  -8.467  -4.279  0.00  0.00    +0.145 HD
ATOM     11  H   UNL     1      -0.191  -8.049  -5.262  0.00  0.00    +0.145 HD
ENDBRANCH   5   7
BRANCH   3  12
ATOM     12  O   UNL     1       5.490  -5.507  -4.090  0.00  0.00    -0.394 OA
ATOM     13  H   UNL     1       5.938  -6.130  -4.679  0.00  0.00    +0.210 HD
ENDBRANCH   3  12
BRANCH   1  14
ATOM     14  C   UNL     1       1.341  -4.130  -2.293  0.00  0.00    +0.020 C 
BRANCH  14  16
ATOM     15  N   UNL     1       0.738  -1.962  -1.265  0.00  0.00    -0.312 N 
ATOM     16  C   UNL     1       1.321  -2.623  -2.285  0.00  0.00    +0.197 C 
ATOM     17  O   UNL     1       1.829  -2.004  -3.196  0.00  0.00    -0.278 OA
ATOM     18  H   UNL     1       0.332  -2.457  -0.536  0.00  0.00    +0.149 HD
BRANCH  15  19
ATOM     19  C   UNL     1       0.718  -0.497  -1.257  0.00  0.00    +0.029 C 
ATOM     20  C   UNL     1      -0.022   0.009  -2.496  0.00  0.00    +0.031 C 
ATOM     21  C   UNL     1       2.154   0.032  -1.268  0.00  0.00    +0.031 C 
BRANCH  19  23
ATOM     22  C   UNL     1      -0.019   1.526   0.010  0.00  0.00    +0.006 C 
ATOM     23  C   UNL     1       0.002  -0.004   0.002  0.00  0.00    +0.022 C 
ENDBRANCH  19  23
ENDBRANCH  15  19
ENDBRANCH  14  16
ENDBRANCH   1  14
TORSDOF 6
