REMARK  Name = ZINC00703724
REMARK  9 active torsions:
REMARK  status: ('A' for Active; 'I' for Inactive)
REMARK    1  A    between atoms: C_1  and  C_2
REMARK    2  A    between atoms: C_3  and  C_32
REMARK    3  A    between atoms: C_5  and  N_24
REMARK    4  A    between atoms: C_6  and  C_7
REMARK    5  A    between atoms: C_7  and  C_9
REMARK    6  A    between atoms: C_7  and  N_17
REMARK    7  A    between atoms: C_12  and  O_15
REMARK    8  A    between atoms: O_15  and  C_16
REMARK    9  A    between atoms: C_25  and  C_27
REMARK                            x       y       z     vdW  Elec       q    Type
REMARK                         _______ _______ _______ _____ _____    ______ ____
ROOT
ATOM      1  C   UNL     1       0.046  -0.405   2.519  0.00  0.00    +0.135 C 
ENDROOT
BRANCH   1   2
ATOM      2  N   UNL     1       1.283  -0.899   3.130  0.00  0.00    -0.320 N 
ATOM      3  C   UNL     1       2.496  -0.285   2.838  0.00  0.00    +0.097 A 
ATOM      4  C   UNL     1       2.515   0.866   2.057  0.00  0.00    +0.041 A 
ATOM      5  C   UNL     1       3.729   1.466   1.774  0.00  0.00    +0.005 A 
ATOM      6  C   UNL     1       4.886   0.893   2.284  0.00  0.00    +0.018 A 
ATOM      7  C   UNL     1       4.793  -0.250   3.051  0.00  0.00    +0.084 A 
ATOM      8  N   UNL     1       3.621  -0.798   3.310  0.00  0.00    -0.350 N 
ATOM      9  H   UNL     1       1.256  -1.654   3.738  0.00  0.00    +0.148 HD
ATOM     10  H   UNL     1       3.583  -1.599   3.855  0.00  0.00    +0.166 HD
ENDBRANCH   1   2
BRANCH   1  16
ATOM     11  C   UNL     1      -0.838   1.323   0.346  0.00  0.00    +0.045 C 
ATOM     12  C   UNL     1      -0.487  -0.119   0.082  0.00  0.00    -0.033 A 
ATOM     13  C   UNL     1      -0.573  -0.628  -1.170  0.00  0.00    -0.008 A 
ATOM     14  S   UNL     1      -0.059  -2.320  -0.921  0.00  0.00    -0.078 S 
ATOM     15  C   UNL     1       0.237  -2.237   0.838  0.00  0.00    +0.078 A 
ATOM     16  C   UNL     1      -0.068  -0.938   1.114  0.00  0.00    +0.009 A 
ATOM     17  C   UNL     1      -0.994   0.056  -2.445  0.00  0.00    +0.052 C 
BRANCH  15  18
ATOM     18  N   UNL     1       0.672  -3.242   1.704  0.00  0.00    -0.273 N 
ATOM     19  C   UNL     1       0.817  -4.504   1.254  0.00  0.00    +0.284 C 
ATOM     20  O   UNL     1       0.659  -4.751   0.073  0.00  0.00    -0.266 OA
ATOM     21  H   UNL     1       0.869  -3.032   2.631  0.00  0.00    +0.156 HD
BRANCH  19  22
ATOM     22  C   UNL     1       1.167  -5.580   2.187  0.00  0.00    +0.189 A 
ATOM     23  C   UNL     1       1.441  -6.875   1.852  0.00  0.00    +0.054 A 
ATOM     24  C   UNL     1       1.722  -7.551   3.050  0.00  0.00    +0.042 A 
ATOM     25  C   UNL     1       1.609  -6.650   4.051  0.00  0.00    +0.196 A 
ATOM     26  O   UNL     1       1.280  -5.462   3.526  0.00  0.00    -0.458 OA
ENDBRANCH  19  22
ENDBRANCH  15  18
ENDBRANCH   1  16
BRANCH   1  27
ATOM     27  C   UNL     1      -1.135  -0.871   3.330  0.00  0.00    -0.023 A 
ATOM     28  C   UNL     1      -1.089  -2.091   3.980  0.00  0.00    +0.009 A 
ATOM     29  C   UNL     1      -2.171  -2.520   4.723  0.00  0.00    +0.046 A 
ATOM     30  C   UNL     1      -3.304  -1.726   4.819  0.00  0.00    +0.120 A 
ATOM     31  C   UNL     1      -3.348  -0.502   4.166  0.00  0.00    +0.046 A 
ATOM     32  C   UNL     1      -2.262  -0.075   3.428  0.00  0.00    +0.009 A 
BRANCH  30  33
ATOM     33  O   UNL     1      -4.370  -2.146   5.549  0.00  0.00    -0.495 OA
ATOM     34  C   UNL     1      -5.503  -1.277   5.603  0.00  0.00    +0.277 C 
ENDBRANCH  30  33
ENDBRANCH   1  27
TORSDOF 6
