REMARK  Name = ZINC06779111
REMARK  9 active torsions:
REMARK  status: ('A' for Active; 'I' for Inactive)
REMARK    1  A    between atoms: C_1  and  C_2
REMARK    2  A    between atoms: C_5  and  C_8
REMARK    3  A    between atoms: N_10  and  C_11
REMARK    4  A    between atoms: C_11  and  C_13
REMARK    5  A    between atoms: C_11  and  C_16
REMARK    6  A    between atoms: C_13  and  C_14
REMARK    7  A    between atoms: C_13  and  C_15
REMARK    8  A    between atoms: N_18  and  C_19
REMARK    9  A    between atoms: C_20  and  C_24
REMARK                            x       y       z     vdW  Elec       q    Type
REMARK                         _______ _______ _______ _____ _____    ______ ____
ROOT
ATOM      1  C   UNL     1      -0.032  -6.404   1.082  0.00  0.00    +0.162 C 
ENDROOT
BRANCH   1   4
ATOM      2  C   UNL     1      -0.775  -4.641  -0.427  0.00  0.00    +0.245 C 
ATOM      3  O   UNL     1      -0.392  -5.319  -1.360  0.00  0.00    -0.270 OA
ATOM      4  N   UNL     1      -0.641  -5.095   0.836  0.00  0.00    -0.300 N 
ATOM      5  H   UNL     1      -0.947  -4.554   1.580  0.00  0.00    +0.150 HD
BRANCH   2  10
ATOM      6  C   UNL     1      -3.168   0.501  -1.396  0.00  0.00    +0.044 C 
ATOM      7  C   UNL     1      -2.542  -0.845  -1.142  0.00  0.00    -0.050 A 
ATOM      8  C   UNL     1      -2.105  -1.614  -2.207  0.00  0.00    +0.004 A 
ATOM      9  C   UNL     1      -1.531  -2.848  -1.982  0.00  0.00    +0.013 A 
ATOM     10  C   UNL     1      -1.390  -3.320  -0.676  0.00  0.00    +0.037 A 
ATOM     11  C   UNL     1      -1.832  -2.540   0.394  0.00  0.00    +0.013 A 
ATOM     12  C   UNL     1      -2.400  -1.305   0.155  0.00  0.00    +0.004 A 
ENDBRANCH   2  10
ENDBRANCH   1   4
BRANCH   1  13
ATOM     13  C   UNL     1      -0.524  -6.947   2.399  0.00  0.00    +0.238 C 
ATOM     14  O   UNL     1      -1.016  -6.199   3.217  0.00  0.00    -0.273 OA
ATOM     15  N   UNL     1      -0.418  -8.264   2.667  0.00  0.00    -0.278 N 
ATOM     16  H   UNL     1      -0.091  -8.872   1.987  0.00  0.00    +0.155 HD
BRANCH  15  17
ATOM     17  C   UNL     1      -0.778  -8.748   3.916  0.00  0.00    +0.084 A 
ATOM     18  C   UNL     1      -0.731 -10.059   4.368  0.00  0.00    +0.065 A 
ATOM     19  C   UNL     1      -1.168 -10.290   5.726  0.00  0.00    +0.022 A 
ATOM     20  C   UNL     1      -1.575  -9.201   6.404  0.00  0.00    +0.048 A 
ATOM     21  S   UNL     1      -1.363  -7.883   5.228  0.00  0.00    -0.081 S 
BRANCH  18  22
ATOM     22  C   UNL     1      -0.262 -11.153   3.512  0.00  0.00    +0.244 C 
ATOM     23  O   UNL     1       0.099 -10.923   2.373  0.00  0.00    -0.270 OA
ATOM     24  N   UNL     1      -0.230 -12.414   3.987  0.00  0.00    -0.325 N 
ATOM     25  H   UNL     1      -0.518 -12.597   4.895  0.00  0.00    +0.145 HD
ATOM     26  H   UNL     1       0.080 -13.138   3.421  0.00  0.00    +0.145 HD
ENDBRANCH  18  22
ENDBRANCH  15  17
ENDBRANCH   1  13
BRANCH   1  27
ATOM     27  C   UNL     1       1.490  -6.258   1.129  0.00  0.00    +0.012 C 
ATOM     28  C   UNL     1       2.002  -5.814  -0.243  0.00  0.00    +0.009 C 
ATOM     29  C   UNL     1       1.871  -5.212   2.178  0.00  0.00    +0.009 C 
ENDBRANCH   1  27
TORSDOF 6
