REMARK  Name = ZINC37273350
REMARK  8 active torsions:
REMARK  status: ('A' for Active; 'I' for Inactive)
REMARK    1  A    between atoms: C_1  and  C_2
REMARK    2  A    between atoms: C_2  and  C_3
REMARK    3  A    between atoms: C_3  and  N_4
REMARK    4  A    between atoms: N_4  and  C_5
REMARK    5  A    between atoms: N_4  and  C_6
REMARK    6  A    between atoms: C_6  and  C_7
REMARK    7  A    between atoms: N_9  and  C_10
REMARK    8  A    between atoms: C_13  and  N_17
REMARK                            x       y       z     vdW  Elec       q    Type
REMARK                         _______ _______ _______ _____ _____    ______ ____
ROOT
ATOM      1  C   UNL     1       1.655  -3.939  -2.348  0.00  0.00    +0.201 C 
ATOM      2  O   UNL     1       1.130  -4.555  -1.444  0.00  0.00    -0.278 OA
ATOM      3  N   UNL     1       2.339  -4.598  -3.303  0.00  0.00    -0.286 N 
ATOM      4  H   UNL     1       2.690  -4.116  -4.068  0.00  0.00    +0.155 HD
ENDROOT
BRANCH   3   5
ATOM      5  C   UNL     1       2.543  -5.981  -3.192  0.00  0.00    +0.048 A 
ATOM      6  C   UNL     1       2.527  -6.587  -1.943  0.00  0.00    +0.026 A 
ATOM      7  C   UNL     1       2.728  -7.948  -1.833  0.00  0.00    +0.024 A 
ATOM      8  C   UNL     1       2.947  -8.712  -2.973  0.00  0.00    +0.026 A 
ATOM      9  C   UNL     1       2.963  -8.107  -4.222  0.00  0.00    +0.039 A 
ATOM     10  C   UNL     1       2.756  -6.745  -4.332  0.00  0.00    +0.041 A 
ATOM     11 BR   UNL     1       2.771  -5.921  -6.034  0.00  0.00    -0.048 Br
BRANCH   8  12
ATOM     12  N   UNL     1       3.151 -10.092  -2.861  0.00  0.00    -0.358 N 
ATOM     13  H   UNL     1       3.140 -10.514  -1.988  0.00  0.00    +0.142 HD
ATOM     14  H   UNL     1       3.304 -10.625  -3.656  0.00  0.00    +0.142 HD
ENDBRANCH   8  12
ENDBRANCH   3   5
BRANCH   1  15
ATOM     15  C   UNL     1       1.541  -2.438  -2.402  0.00  0.00    +0.018 C 
BRANCH  15  16
ATOM     16  N   UNL     1       0.752  -1.964  -1.256  0.00  0.00    +0.384 N 
ATOM     17  C   UNL     1      -0.625  -2.462  -1.371  0.00  0.00    -0.096 C 
ATOM     18  H   UNL     1       1.163  -2.306  -0.401  0.00  0.00    -0.082 HD
BRANCH  16  19
ATOM     19  C   UNL     1       0.742  -0.495  -1.242  0.00  0.00    -0.079 C 
BRANCH  19  21
ATOM     20  C   UNL     1       0.017   1.527   0.032  0.00  0.00    +0.002 C 
ATOM     21  C   UNL     1       0.027  -0.003   0.018  0.00  0.00    -0.022 C 
ENDBRANCH  19  21
ENDBRANCH  16  19
ENDBRANCH  15  16
ENDBRANCH   1  15
TORSDOF 6
