REMARK  Name = ZINC20465311
REMARK  10 active torsions:
REMARK  status: ('A' for Active; 'I' for Inactive)
REMARK    1  A    between atoms: C_1  and  O_2
REMARK    2  A    between atoms: O_2  and  C_3
REMARK    3  A    between atoms: C_3  and  C_4
REMARK    4  A    between atoms: N_9  and  C_10
REMARK    5  A    between atoms: C_12  and  C_22
REMARK    6  A    between atoms: C_15  and  C_20
REMARK    7  A    between atoms: C_17  and  O_19
REMARK    8  A    between atoms: C_20  and  O_21
REMARK    9  A    between atoms: C_22  and  N_23
REMARK   10  A    between atoms: N_26  and  C_27
REMARK                            x       y       z     vdW  Elec       q    Type
REMARK                         _______ _______ _______ _____ _____    ______ ____
ROOT
ATOM      1  C   UNL     1       3.666   1.512  -0.135  0.00  0.00    -0.006 C 
ATOM      2  C   UNL     1       2.351   0.805   0.259  0.00  0.00    +0.125 C 
ATOM      3  O   UNL     1       2.009  -0.008  -0.884  0.00  0.00    -0.369 OA
ATOM      4  C   UNL     1       3.261  -0.564  -1.343  0.00  0.00    +0.171 C 
ATOM      5  C   UNL     1       4.279   0.591  -1.214  0.00  0.00    +0.135 C 
ENDROOT
BRANCH   1  10
ATOM      6  C   UNL     1       3.226   3.841   0.380  0.00  0.00    -0.042 C 
ATOM      7  C   UNL     1       4.254   4.962   0.121  0.00  0.00    -0.015 C 
ATOM      8  C   UNL     1       4.553   4.819  -1.395  0.00  0.00    -0.020 C 
ATOM      9  C   UNL     1       4.482   3.283  -1.584  0.00  0.00    -0.078 C 
ATOM     10  N   UNL     1       3.388   2.843  -0.693  0.00  0.00    +0.388 N 
ATOM     11  H   UNL     1       2.452   2.759  -1.264  0.00  0.00    -0.081 HD
BRANCH   6  12
ATOM     12  C   UNL     1       3.490   3.192   1.740  0.00  0.00    +0.144 C 
BRANCH  12  14
ATOM     13  C   UNL     1       5.255   2.378   3.141  0.00  0.00    +0.193 C 
ATOM     14  O   UNL     1       4.880   2.886   1.859  0.00  0.00    -0.385 OA
ENDBRANCH  12  14
ENDBRANCH   6  12
ENDBRANCH   1  10
BRANCH   5  15
ATOM     15  O   UNL     1       4.408   1.289  -2.454  0.00  0.00    -0.391 OA
ATOM     16  H   UNL     1       4.829   0.777  -3.332  0.00  0.00    +0.210 HD
ENDBRANCH   5  15
BRANCH   4  17
ATOM     17  C   UNL     1       3.144  -1.010  -2.802  0.00  0.00    +0.190 C 
BRANCH  17  18
ATOM     18  O   UNL     1       2.289  -2.152  -2.884  0.00  0.00    -0.392 OA
ATOM     19  H   UNL     1       2.084  -2.617  -3.860  0.00  0.00    +0.210 HD
ENDBRANCH  17  18
ENDBRANCH   4  17
BRANCH   2  20
ATOM     20  C   UNL     1       1.252   1.835   0.528  0.00  0.00    +0.135 C 
BRANCH  20  21
ATOM     21  N   UNL     1       0.004   1.143   0.858  0.00  0.00    -0.297 N 
ATOM     22  C   UNL     1      -1.109   1.853   1.129  0.00  0.00    +0.304 C 
ATOM     23  O   UNL     1      -1.076   3.068   1.105  0.00  0.00    -0.253 OA
ATOM     24  N   UNL     1      -2.259   1.216   1.428  0.00  0.00    -0.269 N 
ATOM     25  H   UNL     1      -0.025   0.044   0.885  0.00  0.00    +0.150 HD
ATOM     26  H   UNL     1      -2.272   0.120   1.526  0.00  0.00    +0.156 HD
BRANCH  24  27
ATOM     27  C   UNL     1      -3.444   1.953   1.614  0.00  0.00    +0.042 A 
ATOM     28  C   UNL     1      -4.681   1.368   1.392  0.00  0.00    +0.031 A 
ATOM     29  C   UNL     1      -5.801   2.105   1.586  0.00  0.00    +0.047 A 
ATOM     30  S   UNL     1      -5.127   3.681   2.085  0.00  0.00    -0.103 S 
ATOM     31  C   UNL     1      -3.396   3.253   2.009  0.00  0.00    +0.068 A 
ENDBRANCH  24  27
ENDBRANCH  20  21
ENDBRANCH   2  20
TORSDOF 9
