REMARK  Name = ZINC40390770
REMARK  7 active torsions:
REMARK  status: ('A' for Active; 'I' for Inactive)
REMARK    1  A    between atoms: C_1  and  O_2
REMARK    2  A    between atoms: O_2  and  C_3
REMARK    3  A    between atoms: C_6  and  N_9
REMARK    4  A    between atoms: C_12  and  C_14
REMARK    5  A    between atoms: N_20  and  C_23
REMARK    6  A    between atoms: C_26  and  C_29
REMARK    7  A    between atoms: C_29  and  C_32
REMARK                            x       y       z     vdW  Elec       q    Type
REMARK                         _______ _______ _______ _____ _____    ______ ____
ROOT
ATOM      1  N   UNL     1       6.120  -1.446  -3.784  0.00  0.00    -0.227 N 
ATOM      2  C   UNL     1       6.451  -2.753  -3.728  0.00  0.00    +0.133 A 
ATOM      3  C   UNL     1       7.026  -3.068  -4.959  0.00  0.00    +0.016 A 
ATOM      4  C   UNL     1       7.011  -1.898  -5.687  0.00  0.00    +0.170 A 
ATOM      5  N   UNL     1       6.457  -0.970  -4.936  0.00  0.00    -0.161 NA
ATOM      6  C   UNL     1       7.506  -4.456  -5.275  0.00  0.00    +0.059 C 
ATOM      7  C   UNL     1       7.912  -5.145  -3.970  0.00  0.00    +0.119 C 
ATOM      8  N   UNL     1       6.931  -4.961  -2.908  0.00  0.00    -0.266 N 
ATOM      9  C   UNL     1       6.301  -3.783  -2.691  0.00  0.00    +0.270 C 
ATOM     10  O   UNL     1       5.643  -3.587  -1.687  0.00  0.00    -0.268 OA
ENDROOT
BRANCH   1  14
ATOM     11  C   UNL     1       4.284   0.713  -0.725  0.00  0.00    +0.120 A 
ATOM     12  C   UNL     1       5.310  -0.174  -0.429  0.00  0.00    +0.048 A 
ATOM     13  C   UNL     1       5.918  -0.889  -1.441  0.00  0.00    +0.031 A 
ATOM     14  C   UNL     1       5.503  -0.721  -2.756  0.00  0.00    +0.066 A 
ATOM     15  C   UNL     1       4.476   0.167  -3.051  0.00  0.00    +0.031 A 
ATOM     16  C   UNL     1       3.866   0.877  -2.038  0.00  0.00    +0.048 A 
BRANCH  11  18
ATOM     17  C   UNL     1       4.167   1.198   1.600  0.00  0.00    +0.277 C 
ATOM     18  O   UNL     1       3.686   1.416   0.272  0.00  0.00    -0.495 OA
ENDBRANCH  11  18
ENDBRANCH   1  14
BRANCH   8  19
ATOM     19  C   UNL     1       6.628  -6.046  -2.080  0.00  0.00    +0.037 A 
ATOM     20  C   UNL     1       5.367  -6.626  -2.126  0.00  0.00    +0.024 A 
ATOM     21  C   UNL     1       5.071  -7.697  -1.306  0.00  0.00    +0.006 A 
ATOM     22  C   UNL     1       6.029  -8.193  -0.441  0.00  0.00    -0.034 A 
ATOM     23  C   UNL     1       7.286  -7.618  -0.393  0.00  0.00    +0.006 A 
ATOM     24  C   UNL     1       7.590  -6.550  -1.214  0.00  0.00    +0.024 A 
BRANCH  22  25
ATOM     25  C   UNL     1       5.702  -9.362   0.452  0.00  0.00    +0.049 C 
ATOM     26  C   UNL     1       4.991 -10.559  -0.182  0.00  0.00    +0.020 C 
ATOM     27  C   UNL     1       6.465 -10.667   0.215  0.00  0.00    +0.020 C 
BRANCH  25  28
ATOM     28  C   UNL     1       5.345  -9.014   1.874  0.00  0.00    +0.079 C 
ATOM     29  N   UNL     1       5.994  -9.505   2.904  0.00  0.00    -0.374 N 
ATOM     30  C   UNL     1       5.407  -8.975   4.146  0.00  0.00    +0.132 C 
ATOM     31  C   UNL     1       4.271  -8.063   3.637  0.00  0.00    +0.123 C 
ATOM     32  N   UNL     1       4.366  -8.192   2.174  0.00  0.00    -0.332 N 
ATOM     33  H   UNL     1       3.795  -7.743   1.532  0.00  0.00    +0.147 HD
ATOM     34  H   UNL     1       6.741 -10.121   2.855  0.00  0.00    +0.161 HD
ENDBRANCH  25  28
ENDBRANCH  22  25
ENDBRANCH   8  19
BRANCH   4  35
ATOM     35  C   UNL     1       7.531  -1.716  -7.090  0.00  0.00    +0.436 C 
ATOM     36  F   UNL     1       6.505  -1.973  -8.005  0.00  0.00    -0.164 F 
ATOM     37  F   UNL     1       7.982  -0.402  -7.253  0.00  0.00    -0.164 F 
ATOM     38  F   UNL     1       8.589  -2.603  -7.314  0.00  0.00    -0.164 F 
ENDBRANCH   4  35
TORSDOF 6
