REMARK  Name = ZINC39946266
REMARK  8 active torsions:
REMARK  status: ('A' for Active; 'I' for Inactive)
REMARK    1  A    between atoms: N_10  and  C_11
REMARK    2  A    between atoms: C_13  and  O_31
REMARK    3  A    between atoms: C_15  and  O_30
REMARK    4  A    between atoms: C_17  and  C_20
REMARK    5  A    between atoms: C_20  and  O_21
REMARK    6  A    between atoms: O_21  and  P_22
REMARK    7  A    between atoms: P_22  and  O_25
REMARK    8  A    between atoms: O_25  and  P_26
REMARK                            x       y       z     vdW  Elec       q    Type
REMARK                         _______ _______ _______ _____ _____    ______ ____
ROOT
ATOM      1  C   UNL     1      -1.159  -0.897   0.008  0.00  0.00    +0.240 C 
ATOM      2  C   UNL     1      -1.968  -0.719   1.312  0.00  0.00    +0.193 C 
ATOM      3  C   UNL     1      -3.440  -0.859   0.862  0.00  0.00    +0.178 C 
ATOM      4  C   UNL     1      -3.345  -1.106  -0.660  0.00  0.00    +0.178 C 
ATOM      5  O   UNL     1      -2.075  -0.539  -1.050  0.00  0.00    -0.348 OA
ENDROOT
BRANCH   1  15
ATOM      6  C   UNL     1      -0.018   1.466   0.010  0.00  0.00    +0.253 C 
ATOM      7  N   UNL     1       1.382   1.904  -0.001  0.00  0.00    -0.256 NA
ATOM      8  C   UNL     1       2.142   0.862  -0.014  0.00  0.00    +0.164 C 
ATOM      9  C   UNL     1       1.313  -0.371  -0.013  0.00  0.00    +0.157 C 
ATOM     10  N   UNL     1       1.936  -1.535  -0.025  0.00  0.00    -0.221 NA
ATOM     11  C   UNL     1       3.257  -1.620  -0.038  0.00  0.00    +0.213 C 
ATOM     12  N   UNL     1       4.073  -0.596  -0.040  0.00  0.00    -0.163 NA
ATOM     13  C   UNL     1       3.622   0.670  -0.029  0.00  0.00    +0.290 C 
ATOM     14  O   UNL     1       4.386   1.618  -0.032  0.00  0.00    -0.266 OA
ATOM     15  N   UNL     1       0.002  -0.004   0.002  0.00  0.00    -0.266 N 
ENDBRANCH   1  15
BRANCH   3  16
ATOM     16  O   UNL     1      -4.059  -1.970   1.514  0.00  0.00    -0.386 OA
ATOM     17  H   UNL     1      -4.090  -1.892   2.478  0.00  0.00    +0.210 HD
ENDBRANCH   3  16
BRANCH   2  18
ATOM     18  O   UNL     1      -1.630  -1.738   2.254  0.00  0.00    -0.385 OA
ATOM     19  H   UNL     1      -2.110  -1.674   3.092  0.00  0.00    +0.210 HD
ENDBRANCH   2  18
BRANCH   4  20
ATOM     20  C   UNL     1      -4.492  -0.400  -1.386  0.00  0.00    +0.206 C 
BRANCH  20  21
ATOM     21  O   UNL     1      -4.455  -0.735  -2.775  0.00  0.00    -0.282 OA
BRANCH  21  22
ATOM     22  P   UNL     1      -5.518  -0.168  -3.843  0.00  0.00    +0.513 P 
ATOM     23  O   UNL     1      -6.951  -0.499  -3.369  0.00  0.00    -0.224 OA
ATOM     24  O   UNL     1      -5.357   1.364  -3.965  0.00  0.00    -0.116 OA
BRANCH  22  25
ATOM     25  O   UNL     1      -5.255  -0.851  -5.277  0.00  0.00    -0.181 OA
BRANCH  25  26
ATOM     26  P   UNL     1      -6.110  -0.961  -6.636  0.00  0.00    +0.540 P 
ATOM     27  O   UNL     1      -7.617  -1.210  -6.288  0.00  0.00    -0.222 OA
ATOM     28  O   UNL     1      -5.975   0.372  -7.447  0.00  0.00    -0.114 OA
ATOM     29  O   UNL     1      -5.569  -2.153  -7.498  0.00  0.00    -0.114 OA
ENDBRANCH  25  26
ENDBRANCH  22  25
ENDBRANCH  21  22
ENDBRANCH  20  21
ENDBRANCH   4  20
TORSDOF 8
