REMARK  Name = ZINC42183380
REMARK  13 active torsions:
REMARK  status: ('A' for Active; 'I' for Inactive)
REMARK    1  A    between atoms: C_1  and  C_2
REMARK    2  A    between atoms: C_2  and  C_3
REMARK    3  A    between atoms: N_5  and  C_6
REMARK    4  A    between atoms: C_9  and  C_12
REMARK    5  A    between atoms: C_12  and  C_14
REMARK    6  A    between atoms: C_12  and  N_15
REMARK    7  A    between atoms: N_15  and  C_16
REMARK    8  A    between atoms: C_16  and  C_18
REMARK    9  A    between atoms: C_16  and  C_19
REMARK   10  A    between atoms: N_21  and  C_22
REMARK   11  A    between atoms: C_27  and  O_28
REMARK   12  A    between atoms: O_28  and  C_29
REMARK   13  A    between atoms: C_29  and  C_30
REMARK                            x       y       z     vdW  Elec       q    Type
REMARK                         _______ _______ _______ _____ _____    ______ ____
ROOT
ATOM      1  N   UNL     1       3.172  -4.552  -6.653  0.00  0.00    +0.391 N 
ATOM      2  H   UNL     1       3.190  -5.342  -6.026  0.00  0.00    -0.084 HD
ATOM      3  H   UNL     1       2.215  -4.315  -6.869  0.00  0.00    -0.084 HD
ENDROOT
BRANCH   1   4
ATOM      4  C   UNL     1       3.828  -3.404  -6.014  0.00  0.00    -0.043 C 
ATOM      5  C   UNL     1       5.239  -3.802  -5.575  0.00  0.00    -0.009 C 
BRANCH   4   9
ATOM      6  C   UNL     1       1.563  -2.188  -2.600  0.00  0.00    +0.033 A 
ATOM      7  C   UNL     1       2.130  -1.234  -3.434  0.00  0.00    +0.023 A 
ATOM      8  C   UNL     1       2.862  -1.630  -4.536  0.00  0.00    +0.004 A 
ATOM      9  C   UNL     1       3.029  -2.975  -4.810  0.00  0.00    -0.062 A 
ATOM     10  C   UNL     1       2.465  -3.928  -3.981  0.00  0.00    +0.004 A 
ATOM     11  C   UNL     1       1.738  -3.538  -2.874  0.00  0.00    +0.023 A 
BRANCH   6  14
ATOM     12  C   UNL     1       0.868  -2.518  -0.348  0.00  0.00    +0.217 C 
ATOM     13  O   UNL     1       1.483  -3.563  -0.323  0.00  0.00    -0.275 OA
ATOM     14  N   UNL     1       0.821  -1.790  -1.482  0.00  0.00    -0.286 N 
ATOM     15  H   UNL     1       0.273  -0.991  -1.523  0.00  0.00    +0.155 HD
BRANCH  12  17
ATOM     16  C   UNL     1       0.366  -3.036   2.025  0.00  0.00    +0.013 C 
ATOM     17  C   UNL     1       0.156  -2.033   0.888  0.00  0.00    +0.093 C 
ENDBRANCH  12  17
ENDBRANCH   6  14
ENDBRANCH   4   9
ENDBRANCH   1   4
BRANCH   1  18
ATOM     18  C   UNL     1       3.882  -4.894  -7.893  0.00  0.00    +0.014 C 
ATOM     19  C   UNL     1       3.749  -3.744  -8.892  0.00  0.00    -0.004 C 
BRANCH  18  20
ATOM     20  C   UNL     1       3.286  -6.145  -8.485  0.00  0.00    +0.203 C 
ATOM     21  O   UNL     1       2.360  -6.697  -7.929  0.00  0.00    -0.277 OA
ATOM     22  N   UNL     1       3.781  -6.651  -9.631  0.00  0.00    -0.284 N 
ATOM     23  H   UNL     1       4.572  -6.258 -10.033  0.00  0.00    +0.155 HD
BRANCH  22  24
ATOM     24  C   UNL     1       3.155  -7.745 -10.243  0.00  0.00    +0.076 A 
ATOM     25  C   UNL     1       1.809  -7.992 -10.016  0.00  0.00    +0.027 A 
ATOM     26  C   UNL     1       1.193  -9.071 -10.621  0.00  0.00    +0.002 A 
ATOM     27  C   UNL     1       1.915  -9.906 -11.454  0.00  0.00    +0.004 A 
ATOM     28  C   UNL     1       3.256  -9.666 -11.685  0.00  0.00    +0.047 A 
ATOM     29  C   UNL     1       3.880  -8.583 -11.087  0.00  0.00    +0.142 A 
BRANCH  29  30
ATOM     30  O   UNL     1       5.198  -8.342 -11.318  0.00  0.00    -0.490 OA
BRANCH  30  31
ATOM     31  C   UNL     1       5.878  -9.243 -12.194  0.00  0.00    +0.226 C 
ATOM     32  C   UNL     1       7.341  -8.815 -12.332  0.00  0.00    +0.048 C 
ENDBRANCH  30  31
ENDBRANCH  29  30
ENDBRANCH  22  24
ENDBRANCH  18  20
ENDBRANCH   1  18
TORSDOF 9
