REMARK  Name = ZINC01407671
REMARK  6 active torsions:
REMARK  status: ('A' for Active; 'I' for Inactive)
REMARK    1  A    between atoms: C_1  and  C_2
REMARK    2  A    between atoms: C_2  and  O_3
REMARK    3  A    between atoms: O_3  and  C_4
REMARK    4  A    between atoms: C_6  and  C_12
REMARK    5  A    between atoms: C_9  and  O_10
REMARK    6  A    between atoms: N_19  and  C_22
REMARK                            x       y       z     vdW  Elec       q    Type
REMARK                         _______ _______ _______ _____ _____    ______ ____
ROOT
ATOM      1  C   UNL     1       2.475   1.364  -0.014  0.00  0.00    +0.027 C 
ATOM      2  C   UNL     1       1.248   1.935  -0.294  0.00  0.00    +0.100 C 
ATOM      3  C   UNL     1       1.142   3.274  -0.907  0.00  0.00    +0.255 C 
ATOM      4  O   UNL     1       2.138   3.915  -1.184  0.00  0.00    -0.270 OA
ATOM      5  N   UNL     1      -0.090   3.767  -1.151  0.00  0.00    -0.263 N 
ATOM      6  C   UNL     1      -1.196   3.071  -0.852  0.00  0.00    +0.151 C 
ATOM      7  S   UNL     1      -2.716   3.778  -1.199  0.00  0.00    -0.018 S 
ATOM      8  N   UNL     1      -1.175   1.850  -0.300  0.00  0.00    -0.216 N 
ATOM      9  C   UNL     1      -0.016   1.233   0.006  0.00  0.00    +0.262 C 
ATOM     10  O   UNL     1      -0.011   0.126   0.511  0.00  0.00    -0.269 OA
ATOM     11  H   UNL     1      -0.177   4.645  -1.554  0.00  0.00    +0.157 HD
ENDROOT
BRANCH   1  14
ATOM     12  C   UNL     1       4.928   4.168   0.361  0.00  0.00    +0.162 A 
ATOM     13  C   UNL     1       3.772   3.426   0.471  0.00  0.00    +0.058 A 
ATOM     14  C   UNL     1       3.695   2.160  -0.132  0.00  0.00    -0.007 A 
ATOM     15  C   UNL     1       4.793   1.665  -0.853  0.00  0.00    +0.029 A 
ATOM     16  C   UNL     1       5.941   2.419  -0.961  0.00  0.00    +0.065 A 
ATOM     17  C   UNL     1       6.015   3.668  -0.358  0.00  0.00    +0.160 A 
ATOM     18 BR   UNL     1       4.697  -0.035  -1.675  0.00  0.00    -0.050 Br
BRANCH  17  19
ATOM     19  O   UNL     1       7.149   4.405  -0.469  0.00  0.00    -0.503 OA
ATOM     20  H   UNL     1       7.163   4.993  -1.236  0.00  0.00    +0.292 HD
ENDBRANCH  17  19
BRANCH  12  21
ATOM     21  O   UNL     1       5.008   5.392   0.950  0.00  0.00    -0.489 OA
BRANCH  21  23
ATOM     22  C   UNL     1       4.135   7.228   2.257  0.00  0.00    +0.048 C 
ATOM     23  C   UNL     1       3.859   5.842   1.670  0.00  0.00    +0.226 C 
ENDBRANCH  21  23
ENDBRANCH  12  21
ENDBRANCH   1  14
BRANCH   8  24
ATOM     24  C   UNL     1      -2.388   1.201  -0.030  0.00  0.00    +0.062 A 
ATOM     25  C   UNL     1      -3.013   1.377   1.196  0.00  0.00    +0.025 A 
ATOM     26  C   UNL     1      -4.208   0.736   1.459  0.00  0.00    +0.002 A 
ATOM     27  C   UNL     1      -4.783  -0.080   0.502  0.00  0.00    +0.002 A 
ATOM     28  C   UNL     1      -4.163  -0.258  -0.721  0.00  0.00    +0.022 A 
ATOM     29  C   UNL     1      -2.970   0.384  -0.992  0.00  0.00    +0.063 A 
ATOM     30 CL   UNL     1      -2.195   0.166  -2.531  0.00  0.00    -0.082 Cl
ENDBRANCH   8  24
TORSDOF 5
