REMARK  Name = ZINC39567362
REMARK  12 active torsions:
REMARK  status: ('A' for Active; 'I' for Inactive)
REMARK    1  A    between atoms: C_1  and  C_2
REMARK    2  A    between atoms: C_2  and  C_4
REMARK    3  A    between atoms: C_2  and  N_28
REMARK    4  A    between atoms: C_7  and  S_16
REMARK    5  A    between atoms: N_8  and  C_9
REMARK    6  A    between atoms: S_16  and  C_17
REMARK    7  A    between atoms: C_17  and  C_19
REMARK    8  A    between atoms: C_17  and  C_22
REMARK    9  A    between atoms: C_19  and  C_20
REMARK   10  A    between atoms: C_19  and  C_21
REMARK   11  A    between atoms: N_28  and  C_29
REMARK   12  A    between atoms: N_28  and  C_30
REMARK                            x       y       z     vdW  Elec       q    Type
REMARK                         _______ _______ _______ _____ _____    ______ ____
ROOT
ATOM      1  C   UNL     1       0.775  -0.166   1.381  0.00  0.00    +0.125 A 
ATOM      2  N   UNL     1       2.039  -0.031   1.667  0.00  0.00    -0.135 NA
ATOM      3  N   UNL     1       2.316  -0.659   2.753  0.00  0.00    -0.122 NA
ATOM      4  C   UNL     1       1.235  -1.236   3.225  0.00  0.00    +0.197 A 
ATOM      5  N   UNL     1       0.214  -0.934   2.366  0.00  0.00    -0.275 N 
ENDROOT
BRANCH   5   6
ATOM      6  C   UNL     1      -1.127  -1.331   2.471  0.00  0.00    +0.050 A 
ATOM      7  C   UNL     1      -2.121  -0.381   2.661  0.00  0.00    +0.028 A 
ATOM      8  C   UNL     1      -3.441  -0.775   2.764  0.00  0.00    +0.022 A 
ATOM      9  C   UNL     1      -3.773  -2.115   2.677  0.00  0.00    +0.041 A 
ATOM     10  C   UNL     1      -2.784  -3.064   2.487  0.00  0.00    +0.022 A 
ATOM     11  C   UNL     1      -1.464  -2.675   2.378  0.00  0.00    +0.028 A 
ATOM     12 CL   UNL     1      -5.433  -2.607   2.807  0.00  0.00    -0.084 Cl
ENDBRANCH   5   6
BRANCH   1  14
ATOM     13  C   UNL     1      -0.143   1.920   0.404  0.00  0.00    -0.005 C 
ATOM     14  C   UNL     1       0.062   0.419   0.189  0.00  0.00    -0.003 C 
BRANCH  14  15
ATOM     15  N   UNL     1       0.868   0.203  -1.019  0.00  0.00    +0.382 N 
ATOM     16  C   UNL     1       1.065  -1.238  -1.226  0.00  0.00    -0.096 C 
ATOM     17  C   UNL     1       0.173   0.774  -2.181  0.00  0.00    -0.096 C 
ATOM     18  H   UNL     1       1.765   0.653  -0.910  0.00  0.00    -0.082 HD
ENDBRANCH  14  15
ENDBRANCH   1  14
BRANCH   4  19
ATOM     19  S   UNL     1       1.119  -2.207   4.691  0.00  0.00    -0.073 S 
BRANCH  19  20
ATOM     20  C   UNL     1       2.834  -2.338   5.267  0.00  0.00    +0.143 C 
BRANCH  20  21
ATOM     21  C   UNL     1       3.628  -3.174   4.296  0.00  0.00    +0.234 C 
ATOM     22  O   UNL     1       3.056  -3.924   3.534  0.00  0.00    -0.274 OA
ATOM     23  N   UNL     1       4.973  -3.088   4.275  0.00  0.00    -0.239 N 
ATOM     24  C   UNL     1       5.682  -3.836   3.407  0.00  0.00    +0.303 C 
ATOM     25  O   UNL     1       5.109  -4.588   2.643  0.00  0.00    -0.253 OA
ATOM     26  N   UNL     1       7.027  -3.751   3.386  0.00  0.00    -0.313 N 
ATOM     27  H   UNL     1       5.430  -2.489   4.885  0.00  0.00    +0.159 HD
ATOM     28  H   UNL     1       7.484  -3.151   3.996  0.00  0.00    +0.146 HD
ATOM     29  H   UNL     1       7.538  -4.289   2.761  0.00  0.00    +0.146 HD
ENDBRANCH  20  21
BRANCH  20  30
ATOM     30  C   UNL     1       2.860  -2.997   6.647  0.00  0.00    +0.005 C 
ATOM     31  C   UNL     1       4.307  -3.114   7.130  0.00  0.00    +0.009 C 
ATOM     32  C   UNL     1       2.060  -2.144   7.634  0.00  0.00    +0.009 C 
ENDBRANCH  20  30
ENDBRANCH  19  20
ENDBRANCH   4  19
TORSDOF 7
