REMARK  Name = ZINC07719176
REMARK  2 active torsions:
REMARK  status: ('A' for Active; 'I' for Inactive)
REMARK    1  A    between atoms: C_12  and  C_14
REMARK    2  A    between atoms: C_14  and  N_15
REMARK                            x       y       z     vdW  Elec       q    Type
REMARK                         _______ _______ _______ _____ _____    ______ ____
ROOT
ATOM      1  C   UNL     1      -5.150  -2.115  -1.106  0.00  0.00    +0.002 A 
ATOM      2  C   UNL     1      -6.380  -1.548  -1.387  0.00  0.00    +0.001 A 
ATOM      3  C   UNL     1      -6.803  -0.454  -0.677  0.00  0.00    +0.016 A 
ATOM      4  C   UNL     1      -5.997   0.066   0.314  0.00  0.00    +0.029 A 
ATOM      5  C   UNL     1      -4.779  -0.508   0.638  0.00  0.00    +0.050 A 
ATOM      6  C   UNL     1      -4.348  -1.605  -0.102  0.00  0.00    +0.024 A 
ATOM      7  N   UNL     1      -3.988  -0.029   1.687  0.00  0.00    -0.269 N 
ATOM      8  C   UNL     1      -4.414  -0.308   3.068  0.00  0.00    +0.114 C 
ATOM      9  C   UNL     1      -5.316   0.780   3.590  0.00  0.00    +0.030 C 
ATOM     10  C   UNL     1      -6.673   0.882   2.914  0.00  0.00    +0.076 C 
ATOM     11  S   UNL     1      -6.484   1.515   1.222  0.00  0.00    -0.123 S 
ATOM     12  C   UNL     1      -2.865   0.675   1.440  0.00  0.00    +0.240 C 
ATOM     13  O   UNL     1      -2.193   1.088   2.361  0.00  0.00    -0.273 OA
ENDROOT
BRANCH  12  14
ATOM     14  C   UNL     1      -2.446   0.950   0.018  0.00  0.00    +0.222 C 
BRANCH  14  15
ATOM     15  N   UNL     1      -1.204   1.726   0.017  0.00  0.00    -0.290 N 
ATOM     16  C   UNL     1      -0.013   1.076   0.008  0.00  0.00    +0.203 A 
ATOM     17  N   UNL     1       1.116   1.733   0.001  0.00  0.00    -0.230 NA
ATOM     18  C   UNL     1       1.135   3.062   0.008  0.00  0.00    +0.115 A 
ATOM     19  C   UNL     1      -0.048   3.823   0.023  0.00  0.00    +0.072 A 
ATOM     20  C   UNL     1      -1.268   3.071   0.030  0.00  0.00    +0.263 A 
ATOM     21  O   UNL     1      -2.346   3.640   0.043  0.00  0.00    -0.267 OA
ATOM     22  C   UNL     1       0.147   5.261   0.029  0.00  0.00    +0.023 A 
ATOM     23  C   UNL     1       1.396   5.753   0.020  0.00  0.00    +0.048 A 
ATOM     24  S   UNL     1       2.416   4.290   0.002  0.00  0.00    -0.077 S 
ENDBRANCH  14  15
ENDBRANCH  12  14
TORSDOF 2
