REMARK  Name = ZINC19280963
REMARK  7 active torsions:
REMARK  status: ('A' for Active; 'I' for Inactive)
REMARK    1  A    between atoms: C_1  and  C_2
REMARK    2  A    between atoms: C_2  and  C_3
REMARK    3  A    between atoms: C_3  and  C_4
REMARK    4  A    between atoms: C_7  and  C_10
REMARK    5  A    between atoms: C_10  and  C_12
REMARK    6  A    between atoms: C_10  and  N_22
REMARK    7  A    between atoms: C_12  and  N_13
REMARK                            x       y       z     vdW  Elec       q    Type
REMARK                         _______ _______ _______ _____ _____    ______ ____
ROOT
ATOM      1  C   UNL     1      -2.717   2.949   4.763  0.00  0.00    -0.027 C 
ENDROOT
BRANCH   1   5
ATOM      2  C   UNL     1      -0.718   1.572   1.248  0.00  0.00    -0.047 A 
ATOM      3  C   UNL     1      -0.360   2.779   1.819  0.00  0.00    +0.004 A 
ATOM      4  C   UNL     1      -1.010   3.227   2.953  0.00  0.00    +0.002 A 
ATOM      5  C   UNL     1      -2.012   2.463   3.523  0.00  0.00    -0.060 A 
ATOM      6  C   UNL     1      -2.366   1.254   2.955  0.00  0.00    +0.002 A 
ATOM      7  C   UNL     1      -1.719   0.808   1.818  0.00  0.00    +0.004 A 
BRANCH   2   8
ATOM      8  C   UNL     1      -0.013   1.086   0.008  0.00  0.00    +0.035 C 
BRANCH   8  10
ATOM      9  C   UNL     1      -0.037   1.099  -2.490  0.00  0.00    +0.004 C 
ATOM     10  C   UNL     1      -0.753   1.593  -1.232  0.00  0.00    +0.001 C 
ENDBRANCH   8  10
ENDBRANCH   2   8
ENDBRANCH   1   5
BRANCH   1  11
ATOM     11  N   UNL     1      -1.742   3.567   5.670  0.00  0.00    +0.384 N 
ATOM     12  H   UNL     1      -2.257   3.922   6.575  0.00  0.00    -0.089 HD
ATOM     13  H   UNL     1      -1.259   4.418   5.166  0.00  0.00    -0.089 HD
ATOM     14  H   UNL     1      -0.979   2.825   5.950  0.00  0.00    -0.089 HD
ENDBRANCH   1  11
BRANCH   1  15
ATOM     15  C   UNL     1      -3.778   3.981   4.374  0.00  0.00    +0.096 C 
BRANCH  15  16
ATOM     16  N   UNL     1      -4.381   4.541   5.586  0.00  0.00    -0.303 N 
ATOM     17  C   UNL     1      -3.681   5.716   6.065  0.00  0.00    +0.107 C 
ATOM     18  C   UNL     1      -4.324   6.282   7.335  0.00  0.00    +0.019 C 
ATOM     19  C   UNL     1      -5.541   7.125   6.947  0.00  0.00    +0.002 C 
ATOM     20  C   UNL     1      -6.556   6.312   6.170  0.00  0.00    +0.001 C 
ATOM     21  C   UNL     1      -7.118   5.267   7.128  0.00  0.00    +0.009 C 
ATOM     22  C   UNL     1      -6.135   4.107   7.307  0.00  0.00    +0.096 C 
ATOM     23  C   UNL     1      -5.440   3.862   5.987  0.00  0.00    +0.216 C 
ATOM     24  O   UNL     1      -5.874   2.993   5.261  0.00  0.00    -0.276 OA
ENDBRANCH  15  16
ENDBRANCH   1  15
TORSDOF 6
