REMARK  Name = ZINC38547792
REMARK  7 active torsions:
REMARK  status: ('A' for Active; 'I' for Inactive)
REMARK    1  A    between atoms: C_1  and  C_2
REMARK    2  A    between atoms: C_2  and  C_3
REMARK    3  A    between atoms: C_5  and  C_16
REMARK    4  A    between atoms: C_6  and  N_8
REMARK    5  A    between atoms: C_9  and  C_11
REMARK    6  A    between atoms: C_16  and  C_18
REMARK    7  A    between atoms: C_16  and  N_25
REMARK                            x       y       z     vdW  Elec       q    Type
REMARK                         _______ _______ _______ _____ _____    ______ ____
ROOT
ATOM      1  C   UNL     1      -4.444  -1.631  -1.975  0.00  0.00    +0.137 C 
ENDROOT
BRANCH   1   2
ATOM      2  N   UNL     1      -3.916  -0.946  -3.158  0.00  0.00    -0.320 N 
ATOM      3  C   UNL     1      -4.721  -0.772  -4.277  0.00  0.00    +0.097 A 
ATOM      4  C   UNL     1      -6.029  -1.246  -4.267  0.00  0.00    +0.041 A 
ATOM      5  C   UNL     1      -6.819  -1.065  -5.388  0.00  0.00    +0.005 A 
ATOM      6  C   UNL     1      -6.272  -0.415  -6.486  0.00  0.00    +0.018 A 
ATOM      7  C   UNL     1      -4.966   0.029  -6.428  0.00  0.00    +0.084 A 
ATOM      8  N   UNL     1      -4.238  -0.152  -5.343  0.00  0.00    -0.350 N 
ATOM      9  H   UNL     1      -3.005  -0.615  -3.159  0.00  0.00    +0.148 HD
ATOM     10  H   UNL     1      -3.324   0.173  -5.327  0.00  0.00    +0.166 HD
ENDBRANCH   1   2
BRANCH   1  11
ATOM     11  C   UNL     1      -4.368  -3.122  -2.182  0.00  0.00    +0.012 A 
ATOM     12  C   UNL     1      -3.432  -3.653  -3.050  0.00  0.00    +0.008 A 
ATOM     13  C   UNL     1      -3.362  -5.020  -3.240  0.00  0.00    +0.001 A 
ATOM     14  C   UNL     1      -4.228  -5.859  -2.563  0.00  0.00    +0.003 A 
ATOM     15  C   UNL     1      -5.165  -5.330  -1.695  0.00  0.00    +0.039 A 
ATOM     16  C   UNL     1      -5.232  -3.961  -1.500  0.00  0.00    +0.129 A 
ATOM     17  F   UNL     1      -6.145  -3.444  -0.648  0.00  0.00    -0.205 F 
ENDBRANCH   1  11
BRANCH   1  20
ATOM     18  C   UNL     1      -1.979  -1.750   0.844  0.00  0.00    -0.008 A 
ATOM     19  C   UNL     1      -2.696  -2.125  -0.242  0.00  0.00    +0.019 A 
ATOM     20  C   UNL     1      -3.628  -1.250  -0.767  0.00  0.00    +0.006 A 
ATOM     21  C   UNL     1      -3.796  -0.035  -0.172  0.00  0.00    +0.078 A 
ATOM     22  S   UNL     1      -2.620  -0.116   1.169  0.00  0.00    -0.078 S 
BRANCH  21  23
ATOM     23  N   UNL     1      -4.666   1.001  -0.518  0.00  0.00    -0.273 N 
ATOM     24  C   UNL     1      -4.605   2.178   0.136  0.00  0.00    +0.284 C 
ATOM     25  O   UNL     1      -3.793   2.338   1.028  0.00  0.00    -0.266 OA
ATOM     26  H   UNL     1      -5.313   0.874  -1.229  0.00  0.00    +0.156 HD
BRANCH  24  27
ATOM     27  C   UNL     1      -5.518   3.266  -0.227  0.00  0.00    +0.189 A 
ATOM     28  C   UNL     1      -5.560   4.504   0.347  0.00  0.00    +0.054 A 
ATOM     29  C   UNL     1      -6.577   5.218  -0.306  0.00  0.00    +0.042 A 
ATOM     30  C   UNL     1      -7.104   4.396  -1.239  0.00  0.00    +0.196 A 
ATOM     31  O   UNL     1      -6.461   3.222  -1.192  0.00  0.00    -0.458 OA
ENDBRANCH  24  27
ENDBRANCH  21  23
BRANCH  18  33
ATOM     32  C   UNL     1       0.454  -2.209   0.986  0.00  0.00    +0.009 C 
ATOM     33  C   UNL     1      -0.918  -2.517   1.590  0.00  0.00    +0.039 C 
ENDBRANCH  18  33
ENDBRANCH   1  20
TORSDOF 6
