REMARK  Name = ZINC62649923
REMARK  11 active torsions:
REMARK  status: ('A' for Active; 'I' for Inactive)
REMARK    1  A    between atoms: C_1  and  C_2
REMARK    2  A    between atoms: C_2  and  C_3
REMARK    3  A    between atoms: C_2  and  C_4
REMARK    4  A    between atoms: N_6  and  C_7
REMARK    5  A    between atoms: C_10  and  C_13
REMARK    6  A    between atoms: C_13  and  N_14
REMARK    7  A    between atoms: N_17  and  C_18
REMARK    8  A    between atoms: C_18  and  C_19
REMARK    9  A    between atoms: N_22  and  C_24
REMARK   10  A    between atoms: C_24  and  C_25
REMARK   11  A    between atoms: C_24  and  C_26
REMARK                            x       y       z     vdW  Elec       q    Type
REMARK                         _______ _______ _______ _____ _____    ______ ____
ROOT
ATOM      1  N   UNL     1      -7.400  -3.779  -1.722  0.00  0.00    -0.295 N 
ATOM      2  C   UNL     1      -8.642  -4.192  -2.043  0.00  0.00    +0.300 C 
ATOM      3  O   UNL     1      -9.453  -4.417  -1.167  0.00  0.00    -0.253 OA
ATOM      4  N   UNL     1      -8.984  -4.355  -3.337  0.00  0.00    -0.299 N 
ATOM      5  H   UNL     1      -6.752  -3.599  -2.421  0.00  0.00    +0.151 HD
ATOM      6  H   UNL     1      -8.337  -4.176  -4.036  0.00  0.00    +0.150 HD
ENDROOT
BRANCH   1   7
ATOM      7  C   UNL     1      -7.027  -3.602  -0.316  0.00  0.00    +0.141 C 
BRANCH   7  11
ATOM      8  C   UNL     1      -2.969  -2.285  -0.072  0.00  0.00    +0.033 A 
ATOM      9  C   UNL     1      -3.998  -1.356  -0.159  0.00  0.00    +0.023 A 
ATOM     10  C   UNL     1      -5.308  -1.785  -0.237  0.00  0.00    +0.007 A 
ATOM     11  C   UNL     1      -5.596  -3.137  -0.230  0.00  0.00    -0.030 A 
ATOM     12  C   UNL     1      -4.574  -4.065  -0.144  0.00  0.00    +0.007 A 
ATOM     13  C   UNL     1      -3.261  -3.643  -0.071  0.00  0.00    +0.023 A 
BRANCH   8  16
ATOM     14  C   UNL     1      -0.664  -2.565  -0.591  0.00  0.00    +0.220 C 
ATOM     15  O   UNL     1      -0.924  -3.622  -1.126  0.00  0.00    -0.275 OA
ATOM     16  N   UNL     1      -1.640  -1.854   0.008  0.00  0.00    -0.285 N 
ATOM     17  H   UNL     1      -1.421  -1.043   0.494  0.00  0.00    +0.155 HD
BRANCH  14  19
ATOM     18  C   UNL     1       1.655  -3.037  -1.333  0.00  0.00    +0.017 C 
ATOM     19  C   UNL     1       0.751  -2.047  -0.594  0.00  0.00    +0.069 C 
ATOM     20  C   UNL     1       0.796  -0.691  -1.300  0.00  0.00    +0.017 C 
ENDBRANCH  14  19
ENDBRANCH   8  16
ENDBRANCH   7  11
ENDBRANCH   1   7
BRANCH   4  21
ATOM     21  C   UNL     1     -10.334  -4.804  -3.686  0.00  0.00    +0.107 C 
BRANCH  21  22
ATOM     22  C   UNL     1     -10.460  -4.907  -5.207  0.00  0.00    -0.012 C 
ATOM     23  C   UNL     1     -10.521  -3.499  -5.856  0.00  0.00    -0.015 C 
ATOM     24  C   UNL     1     -11.296  -3.754  -7.166  0.00  0.00    -0.078 C 
ATOM     25  N   UNL     1     -12.073  -4.992  -6.980  0.00  0.00    +0.381 N 
ATOM     26  C   UNL     1     -11.833  -5.498  -5.612  0.00  0.00    -0.074 C 
ATOM     27  H   UNL     1     -11.778  -5.683  -7.654  0.00  0.00    -0.081 HD
BRANCH  25  28
ATOM     28  C   UNL     1     -13.504  -4.710  -7.159  0.00  0.00    -0.075 C 
ATOM     29  C   UNL     1     -13.750  -4.200  -8.580  0.00  0.00    -0.014 C 
ATOM     30  C   UNL     1     -14.309  -5.990  -6.930  0.00  0.00    -0.014 C 
ENDBRANCH  25  28
ENDBRANCH  21  22
ENDBRANCH   4  21
TORSDOF 7
