REMARK  Name = ZINC09594414
REMARK  11 active torsions:
REMARK  status: ('A' for Active; 'I' for Inactive)
REMARK    1  A    between atoms: C_1  and  C_2
REMARK    2  A    between atoms: C_3  and  C_35
REMARK    3  A    between atoms: C_4  and  S_10
REMARK    4  A    between atoms: S_10  and  C_11
REMARK    5  A    between atoms: C_11  and  C_12
REMARK    6  A    between atoms: C_15  and  C_25
REMARK    7  A    between atoms: C_18  and  C_20
REMARK    8  A    between atoms: C_28  and  O_33
REMARK    9  A    between atoms: C_29  and  O_31
REMARK   10  A    between atoms: O_31  and  C_32
REMARK   11  A    between atoms: O_33  and  C_34
REMARK                            x       y       z     vdW  Elec       q    Type
REMARK                         _______ _______ _______ _____ _____    ______ ____
ROOT
ATOM      1  C   UNL     1      -2.386   7.583  -0.262  0.00  0.00    +0.246 C 
ATOM      2  O   UNL     1      -3.257   6.801   0.054  0.00  0.00    -0.273 OA
ATOM      3  N   UNL     1      -1.333   7.786   0.556  0.00  0.00    -0.184 N 
ATOM      4  C   UNL     1      -1.118   7.126   1.853  0.00  0.00    +0.137 C 
ATOM      5  C   UNL     1       0.215   7.719   2.349  0.00  0.00    +0.087 C 
ATOM      6  C   UNL     1       0.620   8.673   1.243  0.00  0.00    +0.075 C 
ATOM      7  N   UNL     1      -0.271   8.653   0.309  0.00  0.00    -0.180 NA
ENDROOT
BRANCH   4   8
ATOM      8  C   UNL     1      -1.003   5.634   1.677  0.00  0.00    -0.021 A 
ATOM      9  C   UNL     1      -0.368   5.119   0.562  0.00  0.00    +0.009 A 
ATOM     10  C   UNL     1      -0.259   3.751   0.395  0.00  0.00    +0.050 A 
ATOM     11  C   UNL     1      -0.787   2.893   1.346  0.00  0.00    +0.162 A 
ATOM     12  C   UNL     1      -1.432   3.411   2.465  0.00  0.00    +0.162 A 
ATOM     13  C   UNL     1      -1.532   4.784   2.629  0.00  0.00    +0.055 A 
BRANCH  12  14
ATOM     14  O   UNL     1      -1.957   2.573   3.399  0.00  0.00    -0.491 OA
ATOM     15  C   UNL     1      -2.603   3.176   4.521  0.00  0.00    +0.277 C 
ENDBRANCH  12  14
BRANCH  11  16
ATOM     16  O   UNL     1      -0.682   1.547   1.184  0.00  0.00    -0.491 OA
ATOM     17  C   UNL     1      -0.013   1.086   0.008  0.00  0.00    +0.277 C 
ENDBRANCH  11  16
ENDBRANCH   4   8
BRANCH   6  18
ATOM     18  C   UNL     1       1.835   9.495   1.237  0.00  0.00    +0.035 A 
ATOM     19  C   UNL     1       2.279  10.389   0.278  0.00  0.00    +0.017 A 
ATOM     20  C   UNL     1       3.465  11.049   0.500  0.00  0.00    +0.008 A 
ATOM     21  C   UNL     1       4.157  10.807   1.644  0.00  0.00    +0.046 A 
ATOM     22  S   UNL     1       3.122   9.609   2.469  0.00  0.00    -0.095 S 
ENDBRANCH   6  18
BRANCH   1  23
ATOM     23  C   UNL     1      -2.480   8.330  -1.567  0.00  0.00    +0.173 C 
BRANCH  23  24
ATOM     24  S   UNL     1      -3.995   7.845  -2.431  0.00  0.00    -0.097 S 
BRANCH  24  28
ATOM     25  C   UNL     1      -5.713   9.588  -7.111  0.00  0.00    +0.067 C 
ATOM     26  C   UNL     1      -4.678   9.606  -6.015  0.00  0.00    +0.063 A 
ATOM     27  C   UNL     1      -4.840   8.794  -4.880  0.00  0.00    +0.103 A 
ATOM     28  C   UNL     1      -3.853   8.838  -3.880  0.00  0.00    +0.097 A 
ATOM     29  N   UNL     1      -2.786   9.671  -4.051  0.00  0.00    -0.300 N 
ATOM     30  H   UNL     1      -2.096   9.720  -3.372  0.00  0.00    +0.171 HD
ATOM     31  C   UNL     1      -2.687  10.420  -5.165  0.00  0.00    +0.347 A 
ATOM     32  O   UNL     1      -1.724  11.154  -5.303  0.00  0.00    -0.245 OA
ATOM     33  N   UNL     1      -3.619  10.383  -6.118  0.00  0.00    -0.197 NA
BRANCH  27  34
ATOM     34  C   UNL     1      -5.982   7.942  -4.746  0.00  0.00    +0.104 C 
ATOM     35  N   UNL     1      -6.889   7.266  -4.639  0.00  0.00    -0.191 NA
ENDBRANCH  27  34
ENDBRANCH  24  28
ENDBRANCH  23  24
ENDBRANCH   1  23
TORSDOF 8
