REMARK  Name = ZINC49011781
REMARK  9 active torsions:
REMARK  status: ('A' for Active; 'I' for Inactive)
REMARK    1  A    between atoms: C_1  and  C_2
REMARK    2  A    between atoms: C_7  and  N_10
REMARK    3  A    between atoms: N_10  and  C_11
REMARK    4  A    between atoms: N_10  and  C_12
REMARK    5  A    between atoms: C_12  and  C_13
REMARK    6  A    between atoms: C_13  and  C_15
REMARK    7  A    between atoms: C_13  and  O_24
REMARK    8  A    between atoms: C_18  and  C_21
REMARK    9  A    between atoms: C_21  and  N_23
REMARK                            x       y       z     vdW  Elec       q    Type
REMARK                         _______ _______ _______ _____ _____    ______ ____
ROOT
ATOM      1  C   UNL     1       2.339  -4.501   3.586  0.00  0.00    +0.128 C 
ENDROOT
BRANCH   1   2
ATOM      2  C   UNL     1       2.359  -6.008   3.578  0.00  0.00    -0.021 A 
ATOM      3  C   UNL     1       3.284  -6.680   2.798  0.00  0.00    +0.007 A 
ATOM      4  C   UNL     1       3.309  -8.059   2.786  0.00  0.00    +0.010 A 
ATOM      5  C   UNL     1       2.397  -8.777   3.563  0.00  0.00    +0.003 A 
ATOM      6  C   UNL     1       1.466  -8.093   4.348  0.00  0.00    +0.010 A 
ATOM      7  C   UNL     1       1.457  -6.713   4.354  0.00  0.00    +0.007 A 
BRANCH   5   8
ATOM      8  C   UNL     1       2.417 -10.253   3.555  0.00  0.00    +0.077 C 
ATOM      9  S   UNL     1       3.905 -11.088   3.414  0.00  0.00    -0.035 S 
BRANCH   8  10
ATOM     10  N   UNL     1       1.264 -10.944   3.659  0.00  0.00    -0.352 N 
ATOM     11  H   UNL     1       0.421 -10.470   3.739  0.00  0.00    +0.143 HD
ATOM     12  H   UNL     1       1.278 -11.913   3.654  0.00  0.00    +0.143 HD
ENDBRANCH   8  10
ENDBRANCH   5   8
ENDBRANCH   1   2
BRANCH   1  13
ATOM     13  O   UNL     1       3.673  -4.006   3.459  0.00  0.00    -0.389 OA
ATOM     14  H   UNL     1       4.119  -4.281   2.646  0.00  0.00    +0.210 HD
ENDBRANCH   1  13
BRANCH   1  15
ATOM     15  C   UNL     1       1.493  -3.996   2.415  0.00  0.00    -0.042 C 
BRANCH  15  16
ATOM     16  N   UNL     1       1.473  -2.527   2.423  0.00  0.00    +0.382 N 
ATOM     17  C   UNL     1       0.786  -2.054   3.632  0.00  0.00    -0.096 C 
ATOM     18  H   UNL     1       2.420  -2.178   2.416  0.00  0.00    -0.082 HD
BRANCH  16  24
ATOM     19  C   UNL     1      -0.019   1.526   0.010  0.00  0.00    +0.007 C 
ATOM     20  C   UNL     1       0.002  -0.004   0.002  0.00  0.00    -0.016 C 
ATOM     21  C   UNL     1       0.718  -0.497  -1.257  0.00  0.00    +0.003 C 
ATOM     22  C   UNL     1       0.739  -2.027  -1.265  0.00  0.00    -0.001 C 
ATOM     23  C   UNL     1       1.479  -2.534  -0.026  0.00  0.00    -0.015 C 
ATOM     24  C   UNL     1       0.763  -2.041   1.233  0.00  0.00    -0.069 C 
ATOM     25  C   UNL     1       0.742  -0.511   1.242  0.00  0.00    -0.012 C 
ENDBRANCH  16  24
ENDBRANCH  15  16
ENDBRANCH   1  15
TORSDOF 7
