REMARK  Name = ZINC54740586
REMARK  3 active torsions:
REMARK  status: ('A' for Active; 'I' for Inactive)
REMARK    1  A    between atoms: C_1  and  C_2
REMARK    2  A    between atoms: C_2  and  C_4
REMARK    3  A    between atoms: N_7  and  C_9
REMARK                            x       y       z     vdW  Elec       q    Type
REMARK                         _______ _______ _______ _____ _____    ______ ____
ROOT
ATOM      1  C   UNL     1       0.731  -0.503   1.223  0.00  0.00    +0.007 A 
ATOM      2  C   UNL     1       0.318  -0.345   2.550  0.00  0.00    +0.139 A 
ATOM      3  N   UNL     1       1.208  -0.911   3.325  0.00  0.00    -0.179 NA
ATOM      4  N   UNL     1       2.216  -1.448   2.514  0.00  0.00    -0.266 N 
ATOM      5  C   UNL     1       1.897  -1.189   1.229  0.00  0.00    +0.113 A 
ENDROOT
BRANCH   4   6
ATOM      6  C   UNL     1       3.404  -2.168   2.980  0.00  0.00    +0.130 C 
ATOM      7  C   UNL     1       3.765  -3.266   1.966  0.00  0.00    +0.051 C 
ATOM      8  C   UNL     1       5.184  -3.798   2.313  0.00  0.00    +0.168 C 
ATOM      9  S   UNL     1       6.043  -2.222   2.730  0.00  0.00    -0.029 S 
ATOM     10  O   UNL     1       6.672  -1.716   1.561  0.00  0.00    -0.174 OA
ATOM     11  O   UNL     1       6.809  -2.411   3.911  0.00  0.00    -0.174 OA
ATOM     12  C   UNL     1       4.583  -1.176   3.123  0.00  0.00    +0.192 C 
ENDBRANCH   4   6
BRANCH   1  14
ATOM     13  C   UNL     1      -0.019   1.526   0.010  0.00  0.00    +0.029 C 
ATOM     14  C   UNL     1       0.002  -0.004   0.002  0.00  0.00    +0.110 C 
ATOM     15 CL   UNL     1      -1.689  -0.628   0.015  0.00  0.00    -0.117 Cl
ENDBRANCH   1  14
TORSDOF 2
