REMARK  Name = ZINC36267510
REMARK  9 active torsions:
REMARK  status: ('A' for Active; 'I' for Inactive)
REMARK    1  A    between atoms: C_1  and  C_2
REMARK    2  A    between atoms: C_5  and  C_20
REMARK    3  A    between atoms: C_6  and  S_9
REMARK    4  A    between atoms: S_9  and  N_12
REMARK    5  A    between atoms: N_12  and  C_13
REMARK    6  A    between atoms: C_13  and  C_14
REMARK    7  A    between atoms: C_14  and  C_15
REMARK    8  A    between atoms: C_15  and  N_16
REMARK    9  A    between atoms: N_16  and  C_17
REMARK                            x       y       z     vdW  Elec       q    Type
REMARK                         _______ _______ _______ _____ _____    ______ ____
ROOT
ATOM      1  S   UNL     1      -0.541  -2.590   2.846  0.00  0.00    +0.060 S 
ATOM      2  O   UNL     1      -1.127  -1.550   3.617  0.00  0.00    -0.153 OA
ATOM      3  O   UNL     1      -1.183  -3.840   2.640  0.00  0.00    -0.153 OA
ENDROOT
BRANCH   1   9
ATOM      4  C   UNL     1       0.311  -3.145  -2.283  0.00  0.00    +0.045 C 
ATOM      5  C   UNL     1       0.160  -2.229  -1.096  0.00  0.00    -0.029 A 
ATOM      6  C   UNL     1       0.270  -0.861  -1.260  0.00  0.00    +0.025 A 
ATOM      7  C   UNL     1       0.132  -0.020  -0.170  0.00  0.00    +0.046 A 
ATOM      8  C   UNL     1      -0.116  -0.549   1.085  0.00  0.00    -0.004 A 
ATOM      9  C   UNL     1      -0.226  -1.916   1.249  0.00  0.00    +0.128 A 
ATOM     10  C   UNL     1      -0.093  -2.757   0.157  0.00  0.00    +0.070 A 
ATOM     11 CL   UNL     1      -0.238  -4.475   0.362  0.00  0.00    -0.081 Cl
ATOM     12  C   UNL     1      -0.266   0.367   2.272  0.00  0.00    +0.047 C 
ATOM     13 CL   UNL     1       0.270   1.698  -0.376  0.00  0.00    -0.083 Cl
ENDBRANCH   1   9
BRANCH   1  14
ATOM     14  N   UNL     1       0.928  -2.920   3.536  0.00  0.00    -0.190 NA
ATOM     15  H   UNL     1       1.177  -3.837   3.731  0.00  0.00    +0.148 HD
BRANCH  14  16
ATOM     16  C   UNL     1       1.851  -1.828   3.853  0.00  0.00    +0.104 C 
BRANCH  16  17
ATOM     17  C   UNL     1       2.940  -2.338   4.799  0.00  0.00    -0.002 C 
BRANCH  17  18
ATOM     18  C   UNL     1       3.904  -1.197   5.129  0.00  0.00    -0.081 C 
BRANCH  18  19
ATOM     19  N   UNL     1       4.949  -1.687   6.038  0.00  0.00    +0.381 N 
ATOM     20  H   UNL     1       4.524  -2.025   6.888  0.00  0.00    -0.086 HD
ATOM     21  H   UNL     1       5.456  -2.438   5.594  0.00  0.00    -0.086 HD
BRANCH  19  22
ATOM     22  C   UNL     1       5.875  -0.591   6.355  0.00  0.00    -0.072 C 
ATOM     23  C   UNL     1       7.329  -0.741   5.902  0.00  0.00    -0.017 C 
ATOM     24  C   UNL     1       6.973  -0.869   7.384  0.00  0.00    -0.017 C 
ENDBRANCH  19  22
ENDBRANCH  18  19
ENDBRANCH  17  18
ENDBRANCH  16  17
ENDBRANCH  14  16
ENDBRANCH   1  14
TORSDOF 7
