REMARK  Name = ZINC08914630
REMARK  9 active torsions:
REMARK  status: ('A' for Active; 'I' for Inactive)
REMARK    1  A    between atoms: C_1  and  N_57
REMARK    2  A    between atoms: C_2  and  N_57
REMARK    3  A    between atoms: C_3  and  C_4
REMARK    4  A    between atoms: C_3  and  N_57
REMARK    5  A    between atoms: C_4  and  C_5
REMARK    6  A    between atoms: C_5  and  N_6
REMARK    7  A    between atoms: C_7  and  C_26
REMARK    8  A    between atoms: C_10  and  C_11
REMARK    9  A    between atoms: C_10  and  O_21
REMARK                            x       y       z     vdW  Elec       q    Type
REMARK                         _______ _______ _______ _____ _____    ______ ____
ROOT
ATOM      1  N   UNL     1      -7.196   0.402   0.354  0.00  0.00    -0.284 N 
ATOM      2  C   UNL     1      -6.249  -0.712   0.254  0.00  0.00    +0.144 C 
ATOM      3  C   UNL     1      -4.873  -0.100   0.135  0.00  0.00    +0.071 C 
ATOM      4  C   UNL     1      -3.672  -0.774   0.019  0.00  0.00    +0.133 C 
ATOM      5  C   UNL     1      -5.059   1.290   0.159  0.00  0.00    +0.249 C 
ATOM      6  O   UNL     1      -4.181   2.130   0.082  0.00  0.00    -0.282 OA
ATOM      7  C   UNL     1      -6.516   1.560   0.296  0.00  0.00    +0.288 C 
ATOM      8  O   UNL     1      -7.017   2.664   0.349  0.00  0.00    -0.266 OA
ENDROOT
BRANCH   4   9
ATOM      9  C   UNL     1      -2.434  -0.029  -0.254  0.00  0.00    +0.021 A 
ATOM     10  C   UNL     1      -2.384   0.888  -1.311  0.00  0.00    +0.015 A 
ATOM     11  C   UNL     1      -1.222   1.580  -1.565  0.00  0.00    +0.050 A 
ATOM     12  C   UNL     1      -0.097   1.378  -0.773  0.00  0.00    +0.162 A 
ATOM     13  C   UNL     1      -0.139   0.468   0.282  0.00  0.00    +0.163 A 
ATOM     14  C   UNL     1      -1.301  -0.234   0.542  0.00  0.00    +0.061 A 
ATOM     15  O   UNL     1       0.954   0.260   1.067  0.00  0.00    -0.485 OA
ATOM     16  C   UNL     1       2.212   0.703   0.547  0.00  0.00    +0.270 C 
ATOM     17  C   UNL     1       2.028   2.121  -0.010  0.00  0.00    +0.270 C 
ATOM     18  O   UNL     1       1.040   2.073  -1.044  0.00  0.00    -0.485 OA
ENDBRANCH   4   9
BRANCH   2  19
ATOM     19  C   UNL     1      -6.552  -1.543  -0.967  0.00  0.00    -0.021 A 
ATOM     20  C   UNL     1      -6.441  -2.920  -0.910  0.00  0.00    +0.007 A 
ATOM     21  C   UNL     1      -6.718  -3.683  -2.029  0.00  0.00    +0.022 A 
ATOM     22  C   UNL     1      -7.108  -3.068  -3.206  0.00  0.00    +0.059 A 
ATOM     23  C   UNL     1      -7.220  -1.690  -3.262  0.00  0.00    +0.060 A 
ATOM     24  C   UNL     1      -6.947  -0.928  -2.140  0.00  0.00    +0.027 A 
ATOM     25 CL   UNL     1      -7.709  -0.918  -4.738  0.00  0.00    -0.082 Cl
ATOM     26 CL   UNL     1      -7.456  -4.026  -4.611  0.00  0.00    -0.082 Cl
ENDBRANCH   2  19
BRANCH   4  27
ATOM     27  O   UNL     1      -3.636  -2.117   0.156  0.00  0.00    -0.506 OA
ATOM     28  H   UNL     1      -2.696  -2.438   0.043  0.00  0.00    +0.292 HD
ENDBRANCH   4  27
BRANCH   1  29
ATOM     29  C   UNL     1      -8.649   0.275   0.488  0.00  0.00    +0.107 C 
BRANCH  29  30
ATOM     30  C   UNL     1      -9.289   0.238  -0.902  0.00  0.00    +0.000 C 
BRANCH  30  31
ATOM     31  C   UNL     1     -10.806   0.105  -0.762  0.00  0.00    -0.078 C 
BRANCH  31  34
ATOM     32  C   UNL     1     -12.841  -0.293  -2.013  0.00  0.00    -0.097 C 
ATOM     33  C   UNL     1     -11.244   1.352  -2.791  0.00  0.00    -0.097 C 
ATOM     34  N   UNL     1     -11.406   0.049  -2.111  0.00  0.00    +0.376 N 
ATOM     35  H   UNL     1     -10.928  -0.675  -2.660  0.00  0.00    -0.083 HD
ENDBRANCH  31  34
ENDBRANCH  30  31
ENDBRANCH  29  30
ENDBRANCH   1  29
TORSDOF 7
