REMARK  Name = ZINC29854426
REMARK  11 active torsions:
REMARK  status: ('A' for Active; 'I' for Inactive)
REMARK    1  A    between atoms: C_1  and  C_2
REMARK    2  A    between atoms: C_2  and  C_4
REMARK    3  A    between atoms: C_2  and  N_18
REMARK    4  A    between atoms: N_6  and  C_7
REMARK    5  A    between atoms: C_8  and  C_15
REMARK    6  A    between atoms: N_18  and  C_19
REMARK    7  A    between atoms: N_18  and  C_20
REMARK    8  A    between atoms: C_20  and  C_21
REMARK    9  A    between atoms: C_21  and  C_22
REMARK   10  A    between atoms: C_22  and  O_23
REMARK   11  A    between atoms: O_23  and  C_24
REMARK                            x       y       z     vdW  Elec       q    Type
REMARK                         _______ _______ _______ _____ _____    ______ ____
ROOT
ATOM      1  C   UNL     1       1.634   4.494   0.397  0.00  0.00    +0.204 C 
ATOM      2  O   UNL     1       0.423   4.463   0.450  0.00  0.00    -0.277 OA
ATOM      3  N   UNL     1       2.348   3.382   0.666  0.00  0.00    -0.281 N 
ATOM      4  H   UNL     1       3.447   3.410   0.618  0.00  0.00    +0.155 HD
ENDROOT
BRANCH   3   5
ATOM      5  C   UNL     1       1.698   2.205   1.002  0.00  0.00    +0.084 A 
ATOM      6  C   UNL     1       2.252   0.974   1.310  0.00  0.00    +0.068 A 
ATOM      7  C   UNL     1       1.336  -0.119   1.633  0.00  0.00    -0.023 A 
ATOM      8  C   UNL     1       0.030   0.201   1.597  0.00  0.00    -0.004 A 
ATOM      9  S   UNL     1      -0.003   1.917   1.142  0.00  0.00    -0.077 S 
ATOM     10  C   UNL     1      -0.848  -0.971   1.944  0.00  0.00    +0.043 C 
ATOM     11  C   UNL     1       0.102  -1.978   2.631  0.00  0.00    +0.010 C 
ATOM     12  C   UNL     1       1.463  -1.593   2.019  0.00  0.00    +0.037 C 
BRANCH   6  13
ATOM     13  C   UNL     1       3.704   0.773   1.310  0.00  0.00    +0.244 C 
ATOM     14  O   UNL     1       4.270   0.420   0.292  0.00  0.00    -0.270 OA
ATOM     15  N   UNL     1       4.413   0.981   2.438  0.00  0.00    -0.325 N 
ATOM     16  H   UNL     1       5.503   0.830   2.438  0.00  0.00    +0.145 HD
ATOM     17  H   UNL     1       3.902   1.300   3.358  0.00  0.00    +0.145 HD
ENDBRANCH   6  13
ENDBRANCH   3   5
BRANCH   1  19
ATOM     18  C   UNL     1       3.068   5.591  -1.303  0.00  0.00    -0.004 C 
ATOM     19  C   UNL     1       2.341   5.773   0.031  0.00  0.00    +0.016 C 
BRANCH  19  20
ATOM     20  N   UNL     1       1.357   6.858  -0.092  0.00  0.00    +0.385 N 
ATOM     21  C   UNL     1       2.018   8.170  -0.094  0.00  0.00    -0.095 C 
ATOM     22  H   UNL     1       0.695   6.814   0.785  0.00  0.00    -0.081 HD
BRANCH  20  23
ATOM     23  C   UNL     1       0.528   6.684  -1.292  0.00  0.00    -0.075 C 
BRANCH  23  24
ATOM     24  C   UNL     1      -0.635   7.677  -1.257  0.00  0.00    +0.022 C 
BRANCH  24  25
ATOM     25  C   UNL     1      -1.498   7.495  -2.508  0.00  0.00    +0.227 C 
BRANCH  25  26
ATOM     26  O   UNL     1      -2.584   8.423  -2.475  0.00  0.00    -0.492 OA
BRANCH  26  27
ATOM     27  C   UNL     1      -3.452   8.393  -3.521  0.00  0.00    +0.120 A 
ATOM     28  C   UNL     1      -3.259   7.494  -4.559  0.00  0.00    +0.045 A 
ATOM     29  C   UNL     1      -4.146   7.461  -5.617  0.00  0.00    +0.004 A 
ATOM     30  C   UNL     1      -5.219   8.333  -5.648  0.00  0.00    +0.000 A 
ATOM     31  C   UNL     1      -5.411   9.234  -4.617  0.00  0.00    +0.004 A 
ATOM     32  C   UNL     1      -4.530   9.267  -3.554  0.00  0.00    +0.045 A 
ENDBRANCH  26  27
ENDBRANCH  25  26
ENDBRANCH  24  25
ENDBRANCH  23  24
ENDBRANCH  20  23
ENDBRANCH  19  20
ENDBRANCH   1  19
TORSDOF 9
