REMARK  Name = ZINC22357523
REMARK  9 active torsions:
REMARK  status: ('A' for Active; 'I' for Inactive)
REMARK    1  A    between atoms: C_1  and  C_2
REMARK    2  A    between atoms: C_6  and  N_9
REMARK    3  A    between atoms: C_7  and  C_8
REMARK    4  A    between atoms: C_10  and  C_12
REMARK    5  A    between atoms: C_12  and  N_13
REMARK    6  A    between atoms: N_16  and  C_19
REMARK    7  A    between atoms: C_19  and  C_21
REMARK    8  A    between atoms: C_19  and  C_22
REMARK    9  A    between atoms: N_24  and  C_25
REMARK                            x       y       z     vdW  Elec       q    Type
REMARK                         _______ _______ _______ _____ _____    ______ ____
ROOT
ATOM      1  N   UNL     1       1.401   1.819  -0.086  0.00  0.00    +0.387 N 
ATOM      2  C   UNL     1       2.124   1.488   1.150  0.00  0.00    -0.063 C 
ATOM      3  C   UNL     1       3.573   1.968   1.034  0.00  0.00    +0.066 C 
ATOM      4  N   UNL     1       3.588   3.417   0.790  0.00  0.00    -0.295 NA
ATOM      5  C   UNL     1       2.865   3.748  -0.446  0.00  0.00    +0.066 C 
ATOM      6  C   UNL     1       1.416   3.268  -0.330  0.00  0.00    -0.063 C 
ATOM      7  H   UNL     1       1.917   1.327  -0.924  0.00  0.00    -0.081 HD
ENDROOT
BRANCH   4   8
ATOM      8  C   UNL     1       4.964   3.930   0.747  0.00  0.00    +0.140 C 
ATOM      9  C   UNL     1       5.741   3.213  -0.358  0.00  0.00    +0.034 C 
BRANCH   8  10
ATOM     10  C   UNL     1       5.633   3.681   2.074  0.00  0.00    +0.234 C 
ATOM     11  O   UNL     1       5.024   3.131   2.967  0.00  0.00    -0.274 OA
ATOM     12  N   UNL     1       6.909   4.070   2.269  0.00  0.00    -0.284 N 
ATOM     13  H   UNL     1       7.436   4.638   1.488  0.00  0.00    +0.155 HD
BRANCH  12  14
ATOM     14  C   UNL     1       7.564   3.751   3.464  0.00  0.00    +0.034 A 
ATOM     15  C   UNL     1       6.858   3.731   4.660  0.00  0.00    +0.025 A 
ATOM     16  C   UNL     1       7.505   3.411   5.837  0.00  0.00    +0.022 A 
ATOM     17  C   UNL     1       8.858   3.120   5.827  0.00  0.00    +0.041 A 
ATOM     18  C   UNL     1       9.565   3.145   4.638  0.00  0.00    +0.022 A 
ATOM     19  C   UNL     1       8.921   3.459   3.457  0.00  0.00    +0.025 A 
ATOM     20 CL   UNL     1       9.670   2.725   7.310  0.00  0.00    -0.084 Cl
ENDBRANCH  12  14
ENDBRANCH   8  10
ENDBRANCH   4   8
BRANCH   1  21
ATOM     21  C   UNL     1       0.025   1.306  -0.043  0.00  0.00    +0.019 C 
BRANCH  21  23
ATOM     22  N   UNL     1      -1.105  -0.894  -0.002  0.00  0.00    -0.287 N 
ATOM     23  C   UNL     1       0.050  -0.201  -0.038  0.00  0.00    +0.201 C 
ATOM     24  O   UNL     1       1.110  -0.790  -0.067  0.00  0.00    -0.278 OA
ATOM     25  H   UNL     1      -2.062  -0.363   0.116  0.00  0.00    +0.155 HD
BRANCH  22  31
ATOM     26  C   UNL     1      -3.236  -5.237   0.879  0.00  0.00    +0.044 C 
ATOM     27  C   UNL     1      -2.108  -4.418   0.304  0.00  0.00    -0.046 A 
ATOM     28  C   UNL     1      -1.055  -5.046  -0.337  0.00  0.00    +0.004 A 
ATOM     29  C   UNL     1      -0.019  -4.299  -0.865  0.00  0.00    +0.002 A 
ATOM     30  C   UNL     1      -0.033  -2.922  -0.756  0.00  0.00    +0.023 A 
ATOM     31  C   UNL     1      -1.089  -2.288  -0.114  0.00  0.00    +0.036 A 
ATOM     32  C   UNL     1      -2.125  -3.042   0.421  0.00  0.00    -0.026 A 
ATOM     33  C   UNL     1      -3.269  -2.359   1.125  0.00  0.00    +0.046 C 
ENDBRANCH  22  31
ENDBRANCH  21  23
ENDBRANCH   1  21
TORSDOF 6
