REMARK  Name = ZINC63425103
REMARK  13 active torsions:
REMARK  status: ('A' for Active; 'I' for Inactive)
REMARK    1  A    between atoms: C_1  and  C_2
REMARK    2  A    between atoms: C_5  and  C_8
REMARK    3  A    between atoms: C_8  and  S_9
REMARK    4  A    between atoms: S_9  and  C_10
REMARK    5  A    between atoms: C_14  and  C_17
REMARK    6  A    between atoms: C_17  and  C_19
REMARK    7  A    between atoms: C_17  and  N_29
REMARK    8  A    between atoms: C_19  and  C_20
REMARK    9  A    between atoms: C_30  and  O_32
REMARK   10  A    between atoms: O_32  and  C_33
REMARK   11  A    between atoms: C_33  and  C_34
REMARK   12  A    between atoms: C_33  and  C_35
REMARK   13  A    between atoms: C_33  and  C_36
REMARK                            x       y       z     vdW  Elec       q    Type
REMARK                         _______ _______ _______ _____ _____    ______ ____
ROOT
ATOM      1  C   UNL     1      -1.060  -8.593   1.292  0.00  0.00    +0.125 C 
ENDROOT
BRANCH   1   5
ATOM      2  C   UNL     1       1.628  -6.666  -0.043  0.00  0.00    +0.263 C 
ATOM      3  N   UNL     1       0.808  -7.119  -1.198  0.00  0.00    -0.218 NA
ATOM      4  N   UNL     1       0.288  -8.420  -0.763  0.00  0.00    -0.225 NA
ATOM      5  C   UNL     1       0.344  -8.405   0.714  0.00  0.00    +0.223 C 
ATOM      6  O   UNL     1       0.871  -7.121   1.101  0.00  0.00    -0.330 OA
ATOM      7  H   UNL     1       1.374  -7.214  -2.027  0.00  0.00    +0.144 HD
ATOM      8  H   UNL     1       0.843  -9.175  -1.138  0.00  0.00    +0.143 HD
BRANCH   2   9
ATOM      9  S   UNL     1       1.777  -4.858  -0.034  0.00  0.00    -0.108 S 
BRANCH   9  10
ATOM     10  C   UNL     1       0.059  -4.275  -0.021  0.00  0.00    +0.108 C 
BRANCH  10  15
ATOM     11  C   UNL     1      -0.018   1.503   0.010  0.00  0.00    +0.044 C 
ATOM     12  C   UNL     1       0.002  -0.004   0.002  0.00  0.00    -0.050 A 
ATOM     13  C   UNL     1       0.006  -0.689  -1.199  0.00  0.00    +0.003 A 
ATOM     14  C   UNL     1       0.025  -2.071  -1.206  0.00  0.00    +0.005 A 
ATOM     15  C   UNL     1       0.040  -2.768  -0.013  0.00  0.00    -0.037 A 
ATOM     16  C   UNL     1       0.037  -2.084   1.188  0.00  0.00    +0.005 A 
ATOM     17  C   UNL     1       0.023  -0.702   1.195  0.00  0.00    +0.003 A 
ENDBRANCH  10  15
ENDBRANCH   9  10
ENDBRANCH   2   9
ENDBRANCH   1   5
BRANCH   1  18
ATOM     18  N   UNL     1      -1.605  -9.877   0.843  0.00  0.00    -0.274 N 
ATOM     19  C   UNL     1      -0.969 -11.024   1.153  0.00  0.00    +0.401 C 
ATOM     20  O   UNL     1       0.056 -10.993   1.804  0.00  0.00    -0.226 OA
ATOM     21  H   UNL     1      -2.424  -9.901   0.323  0.00  0.00    +0.152 HD
BRANCH  19  22
ATOM     22  O   UNL     1      -1.470 -12.204   0.741  0.00  0.00    -0.445 OA
BRANCH  22  23
ATOM     23  C   UNL     1      -0.744 -13.379   1.105  0.00  0.00    +0.107 C 
ATOM     24  C   UNL     1      -0.664 -13.477   2.630  0.00  0.00    +0.055 C 
ATOM     25  C   UNL     1      -1.461 -14.613   0.552  0.00  0.00    +0.055 C 
ATOM     26  C   UNL     1       0.669 -13.307   0.524  0.00  0.00    +0.055 C 
ENDBRANCH  22  23
ENDBRANCH  19  22
ENDBRANCH   1  18
BRANCH   1  27
ATOM     27  C   UNL     1      -0.989  -8.575   2.820  0.00  0.00    +0.059 C 
BRANCH  27  28
ATOM     28  C   UNL     1      -2.383  -8.636   3.389  0.00  0.00    -0.040 C 
ATOM     29  C   UNL     1      -3.046  -9.742   3.798  0.00  0.00    -0.001 A 
ATOM     30  C   UNL     1      -2.682 -11.164   3.834  0.00  0.00    +0.010 A 
ATOM     31  C   UNL     1      -3.578 -12.058   4.309  0.00  0.00    +0.001 A 
ATOM     32  C   UNL     1      -4.843 -11.663   4.766  0.00  0.00    +0.002 A 
ATOM     33  C   UNL     1      -5.250 -10.376   4.765  0.00  0.00    +0.026 A 
ATOM     34  C   UNL     1      -4.387  -9.350   4.287  0.00  0.00    +0.043 A 
ATOM     35  N   UNL     1      -4.547  -8.053   4.184  0.00  0.00    -0.380 N 
ATOM     36  C   UNL     1      -3.322  -7.474   3.623  0.00  0.00    +0.144 C 
ATOM     37  H   UNL     1      -5.341  -7.559   4.440  0.00  0.00    +0.160 HD
ENDBRANCH  27  28
ENDBRANCH   1  27
TORSDOF 9
