REMARK  Name = ZINC13622078
REMARK  15 active torsions:
REMARK  status: ('A' for Active; 'I' for Inactive)
REMARK    1  A    between atoms: C_1  and  C_2
REMARK    2  A    between atoms: C_2  and  N_61
REMARK    3  A    between atoms: C_3  and  C_4
REMARK    4  A    between atoms: C_3  and  N_61
REMARK    5  A    between atoms: C_5  and  C_6
REMARK    6  A    between atoms: C_5  and  N_61
REMARK    7  A    between atoms: C_6  and  N_7
REMARK    8  A    between atoms: C_8  and  C_10
REMARK    9  A    between atoms: C_13  and  N_16
REMARK   10  A    between atoms: N_16  and  C_17
REMARK   11  A    between atoms: C_17  and  N_19
REMARK   12  A    between atoms: C_20  and  C_22
REMARK   13  A    between atoms: C_25  and  O_28
REMARK   14  A    between atoms: O_28  and  C_29
REMARK   15  A    between atoms: C_29  and  C_30
REMARK                            x       y       z     vdW  Elec       q    Type
REMARK                         _______ _______ _______ _____ _____    ______ ____
ROOT
ATOM      1  C   UNL     1      -2.110   1.739  -1.761  0.00  0.00    +0.037 A 
ATOM      2  C   UNL     1      -2.401   0.406  -1.458  0.00  0.00    +0.015 A 
ATOM      3  C   UNL     1      -3.605  -0.139  -1.841  0.00  0.00    +0.024 A 
ATOM      4  C   UNL     1      -4.528   0.632  -2.541  0.00  0.00    +0.033 A 
ATOM      5  C   UNL     1      -4.239   1.958  -2.850  0.00  0.00    +0.024 A 
ATOM      6  C   UNL     1      -3.039   2.511  -2.464  0.00  0.00    +0.015 A 
ENDROOT
BRANCH   1   8
ATOM      7  N   UNL     1       0.072   1.583  -0.667  0.00  0.00    -0.313 N 
ATOM      8  C   UNL     1      -0.823   2.328  -1.345  0.00  0.00    +0.244 C 
ATOM      9  O   UNL     1      -0.570   3.487  -1.614  0.00  0.00    -0.270 OA
ATOM     10  H   UNL     1      -0.130   0.658  -0.453  0.00  0.00    +0.149 HD
BRANCH   7  11
ATOM     11  C   UNL     1       1.353   2.166  -0.260  0.00  0.00    +0.086 C 
BRANCH  11  12
ATOM     12  C   UNL     1       2.179   1.114   0.482  0.00  0.00    -0.060 C 
BRANCH  12  13
ATOM     13  N   UNL     1       3.475   1.711   0.868  0.00  0.00    +0.380 N 
ATOM     14  H   UNL     1       3.906   2.137   0.039  0.00  0.00    -0.082 HD
BRANCH  13  16
ATOM     15  C   UNL     1       2.635   2.157   3.150  0.00  0.00    -0.017 C 
ATOM     16  C   UNL     1       3.265   2.757   1.891  0.00  0.00    -0.082 C 
ENDBRANCH  13  16
BRANCH  13  17
ATOM     17  C   UNL     1       4.377   0.664   1.393  0.00  0.00    -0.082 C 
ATOM     18  C   UNL     1       5.802   1.220   1.439  0.00  0.00    -0.017 C 
ENDBRANCH  13  17
ENDBRANCH  12  13
ENDBRANCH  11  12
ENDBRANCH   7  11
ENDBRANCH   1   8
BRANCH   4  19
ATOM     19  N   UNL     1      -5.744   0.076  -2.933  0.00  0.00    -0.297 N 
ATOM     20  H   UNL     1      -6.230  -0.504  -2.326  0.00  0.00    +0.154 HD
BRANCH  19  21
ATOM     21  C   UNL     1      -6.244   0.343  -4.156  0.00  0.00    +0.141 C 
ATOM     22  S   UNL     1      -5.320   1.245  -5.280  0.00  0.00    -0.018 S 
BRANCH  21  23
ATOM     23  N   UNL     1      -7.471  -0.101  -4.494  0.00  0.00    -0.264 N 
ATOM     24  C   UNL     1      -7.971   0.166  -5.717  0.00  0.00    +0.250 C 
ATOM     25  O   UNL     1      -7.315   0.807  -6.515  0.00  0.00    -0.270 OA
ATOM     26  H   UNL     1      -7.994  -0.612  -3.857  0.00  0.00    +0.157 HD
BRANCH  24  27
ATOM     27  C   UNL     1      -9.314  -0.320  -6.087  0.00  0.00    +0.037 A 
ATOM     28  C   UNL     1     -10.067  -1.061  -5.172  0.00  0.00    +0.016 A 
ATOM     29  C   UNL     1     -11.322  -1.508  -5.520  0.00  0.00    +0.046 A 
ATOM     30  C   UNL     1     -11.836  -1.233  -6.782  0.00  0.00    +0.121 A 
ATOM     31  C   UNL     1     -11.088  -0.499  -7.696  0.00  0.00    +0.046 A 
ATOM     32  C   UNL     1      -9.834  -0.044  -7.354  0.00  0.00    +0.016 A 
BRANCH  30  33
ATOM     33  O   UNL     1     -13.071  -1.680  -7.122  0.00  0.00    -0.492 OA
BRANCH  33  34
ATOM     34  C   UNL     1     -13.785  -2.427  -6.135  0.00  0.00    +0.225 C 
ATOM     35  C   UNL     1     -15.146  -2.843  -6.697  0.00  0.00    +0.048 C 
ENDBRANCH  33  34
ENDBRANCH  30  33
ENDBRANCH  24  27
ENDBRANCH  21  23
ENDBRANCH  19  21
ENDBRANCH   4  19
TORSDOF 12
