REMARK  Name = ZINC64400976
REMARK  10 active torsions:
REMARK  status: ('A' for Active; 'I' for Inactive)
REMARK    1  A    between atoms: C_1  and  C_2
REMARK    2  A    between atoms: C_5  and  C_8
REMARK    3  A    between atoms: C_8  and  N_9
REMARK    4  A    between atoms: N_9  and  C_10
REMARK    5  A    between atoms: N_9  and  C_13
REMARK    6  A    between atoms: C_10  and  C_11
REMARK    7  A    between atoms: C_13  and  C_14
REMARK    8  A    between atoms: N_16  and  C_17
REMARK    9  A    between atoms: C_20  and  S_23
REMARK   10  A    between atoms: S_23  and  N_26
REMARK                            x       y       z     vdW  Elec       q    Type
REMARK                         _______ _______ _______ _____ _____    ______ ____
ROOT
ATOM      1  C   UNL     1       0.894  -6.522  -1.536  0.00  0.00    +0.201 C 
ATOM      2  O   UNL     1       0.746  -5.670  -2.385  0.00  0.00    -0.278 OA
ATOM      3  N   UNL     1       0.660  -7.816  -1.831  0.00  0.00    -0.287 N 
ATOM      4  H   UNL     1       0.842  -8.505  -1.173  0.00  0.00    +0.155 HD
ENDROOT
BRANCH   3   5
ATOM      5  C   UNL     1       0.153  -8.166  -3.088  0.00  0.00    +0.033 A 
ATOM      6  C   UNL     1       0.543  -7.459  -4.217  0.00  0.00    +0.025 A 
ATOM      7  C   UNL     1       0.041  -7.806  -5.456  0.00  0.00    +0.030 A 
ATOM      8  C   UNL     1      -0.849  -8.858  -5.572  0.00  0.00    +0.105 A 
ATOM      9  C   UNL     1      -1.240  -9.564  -4.449  0.00  0.00    +0.030 A 
ATOM     10  C   UNL     1      -0.737  -9.226  -3.209  0.00  0.00    +0.025 A 
BRANCH   8  11
ATOM     11  S   UNL     1      -1.488  -9.299  -7.154  0.00  0.00    +0.056 S 
ATOM     12  O   UNL     1      -2.721  -9.966  -6.923  0.00  0.00    -0.153 OA
ATOM     13  O   UNL     1      -1.390  -8.139  -7.969  0.00  0.00    -0.153 OA
BRANCH  11  14
ATOM     14  N   UNL     1      -0.457 -10.421  -7.803  0.00  0.00    -0.204 NA
ATOM     15  H   UNL     1      -0.795 -11.095  -8.412  0.00  0.00    +0.144 HD
ATOM     16  H   UNL     1       0.486 -10.403  -7.574  0.00  0.00    +0.144 HD
ENDBRANCH  11  14
ENDBRANCH   8  11
ENDBRANCH   3   5
BRANCH   1  17
ATOM     17  C   UNL     1       1.340  -6.135  -0.149  0.00  0.00    +0.021 C 
BRANCH  17  18
ATOM     18  N   UNL     1       1.385  -4.671  -0.041  0.00  0.00    +0.395 N 
ATOM     19  H   UNL     1       1.949  -4.295  -0.788  0.00  0.00    -0.079 HD
BRANCH  18  20
ATOM     20  C   UNL     1       0.022  -4.130  -0.136  0.00  0.00    -0.041 C 
BRANCH  20  25
ATOM     21  C   UNL     1       0.236   1.644  -0.183  0.00  0.00    +0.044 C 
ATOM     22  C   UNL     1       0.180   0.138  -0.171  0.00  0.00    -0.050 A 
ATOM     23  C   UNL     1       0.234  -0.565  -1.359  0.00  0.00    +0.003 A 
ATOM     24  C   UNL     1       0.183  -1.946  -1.348  0.00  0.00    +0.002 A 
ATOM     25  C   UNL     1       0.079  -2.624  -0.148  0.00  0.00    -0.064 A 
ATOM     26  C   UNL     1       0.026  -1.921   1.041  0.00  0.00    +0.002 A 
ATOM     27  C   UNL     1       0.081  -0.540   1.030  0.00  0.00    +0.003 A 
ENDBRANCH  20  25
ENDBRANCH  18  20
BRANCH  18  28
ATOM     28  C   UNL     1       1.972  -4.293   1.252  0.00  0.00    +0.013 C 
BRANCH  28  29
ATOM     29  C   UNL     1       3.376  -4.732   1.300  0.00  0.00    -0.124 C 
ATOM     30  C   UNL     1       4.496  -5.082   1.338  0.00  0.00    +0.002 C 
ENDBRANCH  28  29
ENDBRANCH  18  28
ENDBRANCH  17  18
ENDBRANCH   1  17
TORSDOF 9
