REMARK  Name = ZINC58848234
REMARK  9 active torsions:
REMARK  status: ('A' for Active; 'I' for Inactive)
REMARK    1  A    between atoms: C_1  and  C_2
REMARK    2  A    between atoms: C_5  and  N_9
REMARK    3  A    between atoms: N_9  and  S_10
REMARK    4  A    between atoms: S_10  and  C_13
REMARK    5  A    between atoms: C_26  and  C_29
REMARK    6  A    between atoms: C_31  and  O_37
REMARK    7  A    between atoms: C_34  and  O_35
REMARK    8  A    between atoms: O_35  and  C_36
REMARK    9  A    between atoms: O_37  and  C_38
REMARK                            x       y       z     vdW  Elec       q    Type
REMARK                         _______ _______ _______ _____ _____    ______ ____
ROOT
ATOM      1  C   UNL     1       0.003  -5.215   2.522  0.00  0.00    +0.109 A 
ATOM      2  C   UNL     1       0.525  -4.024   2.994  0.00  0.00    +0.030 A 
ATOM      3  C   UNL     1       0.190  -3.582   4.257  0.00  0.00    +0.025 A 
ATOM      4  C   UNL     1      -0.672  -4.329   5.053  0.00  0.00    +0.031 A 
ATOM      5  C   UNL     1      -1.207  -5.516   4.576  0.00  0.00    -0.018 A 
ATOM      6  C   UNL     1      -0.861  -5.953   3.306  0.00  0.00    +0.034 A 
ATOM      7  C   UNL     1      -2.166  -6.324   5.384  0.00  0.00    +0.049 C 
ATOM      8  C   UNL     1      -1.515  -7.545   5.983  0.00  0.00    -0.023 C 
ATOM      9  C   UNL     1      -2.010  -7.784   7.172  0.00  0.00    -0.030 C 
ATOM     10  C   UNL     1      -3.056  -6.755   7.539  0.00  0.00    +0.033 C 
ATOM     11  C   UNL     1      -2.777  -5.582   6.571  0.00  0.00    +0.029 C 
ATOM     12  C   UNL     1      -1.820  -4.625   7.251  0.00  0.00    +0.109 C 
ATOM     13  N   UNL     1      -0.986  -3.881   6.330  0.00  0.00    -0.336 N 
ATOM     14  H   UNL     1      -0.609  -3.038   6.628  0.00  0.00    +0.147 HD
ENDROOT
BRANCH  12  15
ATOM     15  C   UNL     1      -0.952  -5.410   8.200  0.00  0.00    +0.018 A 
ATOM     16  C   UNL     1      -1.295  -5.502   9.535  0.00  0.00    +0.054 A 
ATOM     17  C   UNL     1      -0.496  -6.225  10.408  0.00  0.00    +0.121 A 
ATOM     18  C   UNL     1       0.648  -6.856   9.941  0.00  0.00    +0.049 A 
ATOM     19  C   UNL     1       0.991  -6.764   8.606  0.00  0.00    +0.049 A 
ATOM     20  C   UNL     1       0.189  -6.046   7.732  0.00  0.00    +0.125 A 
BRANCH  20  21
ATOM     21  O   UNL     1       0.523  -5.960   6.417  0.00  0.00    -0.495 OA
ATOM     22  C   UNL     1       1.711  -6.639   6.004  0.00  0.00    +0.277 C 
ENDBRANCH  20  21
BRANCH  17  23
ATOM     23  O   UNL     1      -0.833  -6.314  11.722  0.00  0.00    -0.495 OA
ATOM     24  C   UNL     1       0.035  -7.075  12.565  0.00  0.00    +0.277 C 
ENDBRANCH  17  23
ENDBRANCH  12  15
BRANCH   1  25
ATOM     25  S   UNL     1       0.436  -5.787   0.913  0.00  0.00    +0.072 S 
ATOM     26  O   UNL     1       0.128  -7.174   0.879  0.00  0.00    -0.150 OA
ATOM     27  O   UNL     1       1.739  -5.290   0.641  0.00  0.00    -0.150 OA
BRANCH  25  28
ATOM     28  N   UNL     1      -0.586  -5.049  -0.161  0.00  0.00    -0.216 N 
ATOM     29  H   UNL     1      -0.228  -4.471  -0.853  0.00  0.00    +0.174 HD
BRANCH  28  34
ATOM     30  C   UNL     1      -6.182  -5.895   0.205  0.00  0.00    +0.045 C 
ATOM     31  C   UNL     1      -4.695  -5.671   0.108  0.00  0.00    -0.032 A 
ATOM     32  C   UNL     1      -4.200  -4.390  -0.060  0.00  0.00    +0.006 A 
ATOM     33  C   UNL     1      -2.838  -4.181  -0.149  0.00  0.00    +0.025 A 
ATOM     34  C   UNL     1      -1.964  -5.258  -0.070  0.00  0.00    +0.049 A 
ATOM     35  C   UNL     1      -2.463  -6.543   0.098  0.00  0.00    +0.044 A 
ATOM     36  C   UNL     1      -3.828  -6.745   0.192  0.00  0.00    +0.046 A 
ATOM     37 CL   UNL     1      -4.453  -8.350   0.409  0.00  0.00    -0.083 Cl
ENDBRANCH  28  34
ENDBRANCH  25  28
ENDBRANCH   1  25
TORSDOF 6
