REMARK  Name = ZINC37282698
REMARK  4 active torsions:
REMARK  status: ('A' for Active; 'I' for Inactive)
REMARK    1  A    between atoms: C_1  and  C_2
REMARK    2  A    between atoms: C_2  and  C_4
REMARK    3  A    between atoms: C_2  and  N_11
REMARK    4  A    between atoms: N_11  and  C_12
REMARK                            x       y       z     vdW  Elec       q    Type
REMARK                         _______ _______ _______ _____ _____    ______ ____
ROOT
ATOM      1  N   UNL     1      -1.370  -0.513   0.133  0.00  0.00    +0.391 N 
ATOM      2  H   UNL     1      -1.091  -1.483   0.145  0.00  0.00    -0.084 HD
ATOM      3  H   UNL     1      -1.956  -0.323   0.932  0.00  0.00    -0.084 HD
ENDROOT
BRANCH   1   4
ATOM      4  C   UNL     1      -2.116  -0.233  -1.101  0.00  0.00    +0.017 C 
ATOM      5  C   UNL     1      -1.597  -1.127  -2.230  0.00  0.00    -0.007 C 
ATOM      6  C   UNL     1      -1.188  -2.487  -1.694  0.00  0.00    +0.000 C 
ATOM      7  C   UNL     1      -2.348  -3.315  -1.173  0.00  0.00    +0.019 C 
ATOM      8  C   UNL     1      -2.953  -2.679   0.080  0.00  0.00    +0.104 C 
ATOM      9  N   UNL     1      -3.960  -1.688  -0.334  0.00  0.00    -0.317 N 
ATOM     10  C   UNL     1      -3.585  -0.529  -0.885  0.00  0.00    +0.199 C 
ATOM     11  O   UNL     1      -4.421   0.284  -1.219  0.00  0.00    -0.278 OA
ATOM     12  H   UNL     1      -4.902  -1.876  -0.203  0.00  0.00    +0.149 HD
ENDBRANCH   1   4
BRANCH   1  14
ATOM     13  C   UNL     1      -0.601   1.804   0.331  0.00  0.00    -0.009 C 
ATOM     14  C   UNL     1      -0.176   0.341   0.188  0.00  0.00    -0.043 C 
BRANCH  14  15
ATOM     15  C   UNL     1       0.671  -0.054   1.370  0.00  0.00    -0.062 A 
ATOM     16  C   UNL     1       0.070  -0.388   2.570  0.00  0.00    +0.003 A 
ATOM     17  C   UNL     1       0.846  -0.751   3.654  0.00  0.00    +0.014 A 
ATOM     18  C   UNL     1       2.224  -0.780   3.539  0.00  0.00    +0.013 A 
ATOM     19  C   UNL     1       2.825  -0.446   2.340  0.00  0.00    +0.014 A 
ATOM     20  C   UNL     1       2.048  -0.089   1.254  0.00  0.00    +0.003 A 
ATOM     21  I   UNL     1       3.401  -1.329   5.183  0.00  0.00    -0.044 I 
ENDBRANCH  14  15
ENDBRANCH   1  14
TORSDOF 3
