REMARK  Name = ZINC21795448
REMARK  9 active torsions:
REMARK  status: ('A' for Active; 'I' for Inactive)
REMARK    1  A    between atoms: C_1  and  C_2
REMARK    2  A    between atoms: C_4  and  C_29
REMARK    3  A    between atoms: C_6  and  N_8
REMARK    4  A    between atoms: N_11  and  C_12
REMARK    5  A    between atoms: C_15  and  N_18
REMARK    6  A    between atoms: C_21  and  N_26
REMARK    7  A    between atoms: C_23  and  C_25
REMARK    8  A    between atoms: N_26  and  C_27
REMARK    9  A    between atoms: N_26  and  C_28
REMARK                            x       y       z     vdW  Elec       q    Type
REMARK                         _______ _______ _______ _____ _____    ______ ____
ROOT
ATOM      1  C   UNL     1       3.322   2.192   0.675  0.00  0.00    +0.035 A 
ATOM      2  C   UNL     1       3.599   3.502   0.305  0.00  0.00    +0.025 A 
ATOM      3  C   UNL     1       4.905   3.946   0.262  0.00  0.00    +0.025 A 
ATOM      4  C   UNL     1       5.944   3.080   0.579  0.00  0.00    +0.032 A 
ATOM      5  C   UNL     1       5.668   1.769   0.945  0.00  0.00    +0.025 A 
ATOM      6  C   UNL     1       4.361   1.326   0.993  0.00  0.00    +0.025 A 
ENDROOT
BRANCH   4   7
ATOM      7  N   UNL     1       7.269   3.529   0.531  0.00  0.00    -0.301 N 
ATOM      8  C   UNL     1       7.665   4.415  -0.460  0.00  0.00    +0.105 A 
ATOM      9  C   UNL     1       6.805   4.735  -1.506  0.00  0.00    +0.085 A 
ATOM     10  C   UNL     1       7.248   5.633  -2.473  0.00  0.00    +0.126 A 
ATOM     11  N   UNL     1       8.475   6.142  -2.368  0.00  0.00    -0.219 NA
ATOM     12  C   UNL     1       9.261   5.810  -1.365  0.00  0.00    +0.107 A 
ATOM     13  N   UNL     1       8.876   4.968  -0.427  0.00  0.00    -0.332 N 
ATOM     14  C   UNL     1      10.640   6.412  -1.286  0.00  0.00    +0.086 C 
ATOM     15  H   UNL     1       7.996   3.179   1.278  0.00  0.00    +0.154 HD
ATOM     16  H   UNL     1       9.571   4.723   0.390  0.00  0.00    +0.168 HD
BRANCH  10  17
ATOM     17  N   UNL     1       6.428   5.987  -3.533  0.00  0.00    -0.321 N 
ATOM     18  C   UNL     1       5.044   5.508  -3.580  0.00  0.00    +0.130 C 
ATOM     19  C   UNL     1       6.944   6.841  -4.605  0.00  0.00    +0.130 C 
ENDBRANCH  10  17
ENDBRANCH   4   7
BRANCH   1  23
ATOM     20  N   UNL     1      -0.245   2.118   1.261  0.00  0.00    -0.269 N 
ATOM     21  C   UNL     1       1.018   2.573   1.136  0.00  0.00    +0.308 C 
ATOM     22  O   UNL     1       1.274   3.733   1.395  0.00  0.00    -0.252 OA
ATOM     23  N   UNL     1       1.996   1.743   0.724  0.00  0.00    -0.269 N 
ATOM     24  H   UNL     1      -0.489   1.086   0.968  0.00  0.00    +0.156 HD
ATOM     25  H   UNL     1       1.753   0.712   0.425  0.00  0.00    +0.156 HD
BRANCH  20  31
ATOM     26  C   UNL     1      -2.228   6.603   1.603  0.00  0.00    +0.044 C 
ATOM     27  C   UNL     1      -2.231   5.136   1.945  0.00  0.00    -0.048 A 
ATOM     28  C   UNL     1      -3.222   4.618   2.758  0.00  0.00    +0.006 A 
ATOM     29  C   UNL     1      -3.228   3.272   3.074  0.00  0.00    -0.048 A 
ATOM     30  C   UNL     1      -2.243   2.440   2.579  0.00  0.00    +0.026 A 
ATOM     31  C   UNL     1      -1.245   2.957   1.763  0.00  0.00    +0.035 A 
ATOM     32  C   UNL     1      -1.239   4.311   1.452  0.00  0.00    +0.026 A 
ATOM     33  C   UNL     1      -4.311   2.711   3.960  0.00  0.00    +0.044 C 
ENDBRANCH  20  31
ENDBRANCH   1  23
TORSDOF 4
