REMARK  Name = ZINC67354349
REMARK  5 active torsions:
REMARK  status: ('A' for Active; 'I' for Inactive)
REMARK    1  A    between atoms: C_1  and  S_2
REMARK    2  A    between atoms: S_2  and  C_5
REMARK    3  A    between atoms: C_8  and  N_12
REMARK    4  A    between atoms: N_15  and  C_16
REMARK    5  A    between atoms: C_16  and  C_17
REMARK                            x       y       z     vdW  Elec       q    Type
REMARK                         _______ _______ _______ _____ _____    ______ ____
ROOT
ATOM      1  N   UNL     1       2.841  -1.463  -4.997  0.00  0.00    -0.269 N 
ATOM      2  C   UNL     1       4.187  -1.525  -5.014  0.00  0.00    +0.304 C 
ATOM      3  O   UNL     1       4.816  -1.371  -3.985  0.00  0.00    -0.252 OA
ATOM      4  N   UNL     1       4.837  -1.757  -6.172  0.00  0.00    -0.294 N 
ATOM      5  H   UNL     1       2.336  -1.662  -5.801  0.00  0.00    +0.156 HD
ATOM      6  H   UNL     1       4.335  -1.880  -6.993  0.00  0.00    +0.151 HD
ENDROOT
BRANCH   1  10
ATOM      7  C   UNL     1       0.846  -0.416  -1.489  0.00  0.00    +0.158 A 
ATOM      8  C   UNL     1       2.083   0.137  -1.772  0.00  0.00    +0.153 A 
ATOM      9  C   UNL     1       2.747  -0.209  -2.936  0.00  0.00    +0.063 A 
ATOM     10  C   UNL     1       2.171  -1.112  -3.820  0.00  0.00    +0.040 A 
ATOM     11  C   UNL     1       0.931  -1.665  -3.534  0.00  0.00    +0.063 A 
ATOM     12  C   UNL     1       0.273  -1.321  -2.367  0.00  0.00    +0.153 A 
ATOM     13  F   UNL     1      -0.932  -1.863  -2.086  0.00  0.00    -0.203 F 
ATOM     14  F   UNL     1       2.643   1.015  -0.911  0.00  0.00    -0.203 F 
BRANCH   7  16
ATOM     15  C   UNL     1       0.570  -1.176   1.229  0.00  0.00    +0.200 C 
ATOM     16  S   UNL     1       0.003   0.026  -0.006  0.00  0.00    -0.000 S 
ATOM     17  O   UNL     1      -1.373  -0.182  -0.296  0.00  0.00    -0.169 OA
ATOM     18  O   UNL     1       0.488   1.323   0.314  0.00  0.00    -0.169 OA
ENDBRANCH   7  16
ENDBRANCH   1  10
BRANCH   4  19
ATOM     19  C   UNL     1       6.300  -1.825  -6.191  0.00  0.00    +0.160 C 
BRANCH  19  20
ATOM     20  C   UNL     1       6.773  -2.093  -7.596  0.00  0.00    +0.051 A 
ATOM     21  C   UNL     1       7.059  -3.303  -8.118  0.00  0.00    +0.110 A 
ATOM     22  N   UNL     1       7.447  -3.092  -9.408  0.00  0.00    -0.336 N 
ATOM     23  C   UNL     1       7.387  -1.758  -9.635  0.00  0.00    +0.087 A 
ATOM     24  N   UNL     1       6.977  -1.169  -8.550  0.00  0.00    -0.346 N 
ATOM     25  C   UNL     1       7.742  -1.109 -10.952  0.00  0.00    +0.072 C 
ATOM     26  C   UNL     1       8.531  -2.124 -11.789  0.00  0.00    +0.009 C 
ATOM     27  C   UNL     1       7.786  -3.463 -11.793  0.00  0.00    +0.022 C 
ATOM     28  C   UNL     1       7.858  -4.091 -10.396  0.00  0.00    +0.123 C 
ATOM     29  H   UNL     1       6.842  -0.215  -8.445  0.00  0.00    +0.167 HD
ENDBRANCH  19  20
ENDBRANCH   4  19
TORSDOF 4
