REMARK  Name = ZINC07664976
REMARK  11 active torsions:
REMARK  status: ('A' for Active; 'I' for Inactive)
REMARK    1  A    between atoms: C_1  and  C_2
REMARK    2  A    between atoms: C_2  and  C_3
REMARK    3  A    between atoms: C_3  and  C_4
REMARK    4  A    between atoms: C_3  and  N_5
REMARK    5  A    between atoms: C_6  and  S_8
REMARK    6  A    between atoms: S_8  and  C_9
REMARK    7  A    between atoms: C_9  and  C_10
REMARK    8  A    between atoms: C_18  and  C_22
REMARK    9  A    between atoms: C_19  and  C_21
REMARK   10  A    between atoms: C_22  and  C_23
REMARK   11  A    between atoms: C_22  and  C_24
REMARK                            x       y       z     vdW  Elec       q    Type
REMARK                         _______ _______ _______ _____ _____    ______ ____
ROOT
ATOM      1  C   UNL     1       6.432   0.871   3.943  0.00  0.00    -0.020 A 
ATOM      2  C   UNL     1       6.719   2.038   4.574  0.00  0.00    +0.097 A 
ATOM      3  C   UNL     1       8.060   2.363   4.871  0.00  0.00    +0.338 A 
ATOM      4  O   UNL     1       8.304   3.413   5.438  0.00  0.00    -0.245 OA
ATOM      5  O   UNL     1       9.072   1.545   4.546  0.00  0.00    -0.422 OA
ATOM      6  C   UNL     1       8.855   0.370   3.918  0.00  0.00    +0.140 A 
ATOM      7  C   UNL     1       7.543  -0.020   3.596  0.00  0.00    +0.022 A 
ATOM      8  C   UNL     1       7.316  -1.238   2.950  0.00  0.00    +0.016 A 
ATOM      9  C   UNL     1       8.381  -2.053   2.637  0.00  0.00    -0.041 A 
ATOM     10  C   UNL     1       9.675  -1.669   2.960  0.00  0.00    -0.044 A 
ATOM     11  C   UNL     1       9.915  -0.465   3.588  0.00  0.00    +0.050 A 
ATOM     12  C   UNL     1      10.830  -2.572   2.611  0.00  0.00    +0.044 C 
ENDROOT
BRANCH   9  13
ATOM     13  C   UNL     1       8.141  -3.367   1.941  0.00  0.00    +0.013 C 
ATOM     14  C   UNL     1       7.364  -4.302   2.871  0.00  0.00    +0.012 C 
ATOM     15  C   UNL     1       7.332  -3.129   0.665  0.00  0.00    +0.012 C 
ENDBRANCH   9  13
BRANCH   1  16
ATOM     16  C   UNL     1       5.009   0.498   3.613  0.00  0.00    +0.113 C 
BRANCH  16  17
ATOM     17  S   UNL     1       4.722   0.719   1.836  0.00  0.00    -0.088 S 
BRANCH  17  19
ATOM     18  N   UNL     1       2.501   0.292   0.427  0.00  0.00    -0.366 N 
ATOM     19  C   UNL     1       3.039   0.249   1.614  0.00  0.00    +0.126 C 
ATOM     20  N   UNL     1       2.292  -0.163   2.693  0.00  0.00    -0.339 N 
ATOM     21  H   UNL     1       1.365  -0.422   2.571  0.00  0.00    +0.144 HD
ATOM     22  H   UNL     1       2.692  -0.195   3.576  0.00  0.00    +0.144 HD
ATOM     23  H   UNL     1       3.027   0.583  -0.334  0.00  0.00    +0.162 HD
BRANCH  18  24
ATOM     24  C   UNL     1       1.101  -0.099   0.243  0.00  0.00    +0.078 C 
ATOM     25  C   UNL     1       1.014  -1.616   0.067  0.00  0.00    +0.030 C 
BRANCH  24  27
ATOM     26  C   UNL     1       0.509   2.105  -0.775  0.00  0.00    +0.006 C 
ATOM     27  C   UNL     1       0.538   0.592  -1.001  0.00  0.00    +0.021 C 
ENDBRANCH  24  27
ENDBRANCH  18  24
ENDBRANCH  17  19
ENDBRANCH  16  17
ENDBRANCH   1  16
TORSDOF 6
