REMARK  Name = ZINC21920057
REMARK  15 active torsions:
REMARK  status: ('A' for Active; 'I' for Inactive)
REMARK    1  A    between atoms: C_1  and  C_2
REMARK    2  A    between atoms: C_2  and  C_3
REMARK    3  A    between atoms: C_2  and  C_4
REMARK    4  A    between atoms: C_4  and  N_5
REMARK    5  A    between atoms: C_6  and  N_32
REMARK    6  A    between atoms: C_7  and  N_14
REMARK    7  A    between atoms: N_14  and  C_15
REMARK    8  A    between atoms: C_15  and  C_16
REMARK    9  A    between atoms: C_16  and  C_17
REMARK   10  A    between atoms: C_16  and  C_18
REMARK   11  A    between atoms: C_19  and  C_21
REMARK   12  A    between atoms: C_21  and  N_22
REMARK   13  A    between atoms: N_22  and  C_23
REMARK   14  A    between atoms: N_22  and  C_24
REMARK   15  A    between atoms: C_24  and  C_25
REMARK                            x       y       z     vdW  Elec       q    Type
REMARK                         _______ _______ _______ _____ _____    ______ ____
ROOT
ATOM      1  N   UNL     1       1.232   2.161  -0.580  0.00  0.00    -0.266 N 
ATOM      2  C   UNL     1       0.114   1.450  -0.841  0.00  0.00    +0.203 C 
ATOM      3  O   UNL     1       0.200   0.290  -1.186  0.00  0.00    -0.277 OA
ENDROOT
BRANCH   1   6
ATOM      4  N   UNL     1       4.014  -0.119   0.166  0.00  0.00    -0.280 N 
ATOM      5  C   UNL     1       2.775   0.475   0.226  0.00  0.00    +0.127 A 
ATOM      6  C   UNL     1       2.493   1.531  -0.617  0.00  0.00    +0.140 A 
ATOM      7  C   UNL     1       3.484   1.964  -1.519  0.00  0.00    +0.277 A 
ATOM      8  O   UNL     1       3.259   2.891  -2.278  0.00  0.00    -0.266 OA
ATOM      9  N   UNL     1       4.683   1.350  -1.533  0.00  0.00    -0.273 N 
ATOM     10  H   UNL     1       5.466   1.688  -2.228  0.00  0.00    +0.173 HD
ATOM     11  C   UNL     1       4.940   0.323  -0.704  0.00  0.00    +0.331 A 
ATOM     12  O   UNL     1       6.030  -0.216  -0.741  0.00  0.00    -0.246 OA
BRANCH   5  13
ATOM     13  N   UNL     1       1.830   0.024   1.115  0.00  0.00    -0.343 N 
ATOM     14  H   UNL     1       0.841   0.504   1.158  0.00  0.00    +0.144 HD
ATOM     15  H   UNL     1       2.062  -0.818   1.784  0.00  0.00    +0.144 HD
ENDBRANCH   5  13
BRANCH   4  16
ATOM     16  C   UNL     1       4.327  -1.241   1.055  0.00  0.00    +0.131 C 
BRANCH  16  18
ATOM     17  C   UNL     1       4.822  -2.761  -0.865  0.00  0.00    +0.009 C 
ATOM     18  C   UNL     1       3.945  -2.555   0.372  0.00  0.00    +0.003 C 
ATOM     19  C   UNL     1       4.155  -3.717   1.345  0.00  0.00    +0.009 C 
ENDBRANCH  16  18
ENDBRANCH   4  16
ENDBRANCH   1   6
BRANCH   1  20
ATOM     20  C   UNL     1       1.134   3.587  -0.259  0.00  0.00    +0.117 C 
BRANCH  20  21
ATOM     21  C   UNL     1       0.884   3.756   1.241  0.00  0.00    +0.001 C 
ATOM     22  C   UNL     1       2.102   3.256   2.020  0.00  0.00    +0.009 C 
ATOM     23  C   UNL     1       0.651   5.235   1.555  0.00  0.00    +0.009 C 
ENDBRANCH  20  21
ENDBRANCH   1  20
BRANCH   2  24
ATOM     24  C   UNL     1      -1.239   2.100  -0.709  0.00  0.00    +0.019 C 
BRANCH  24  25
ATOM     25  N   UNL     1      -2.285   1.126  -1.051  0.00  0.00    +0.386 N 
ATOM     26  C   UNL     1      -2.325   0.031  -0.072  0.00  0.00    -0.095 C 
ATOM     27  H   UNL     1      -2.036   0.694  -2.031  0.00  0.00    -0.081 HD
BRANCH  25  28
ATOM     28  C   UNL     1      -3.596   1.779  -1.165  0.00  0.00    -0.040 C 
BRANCH  28  29
ATOM     29  C   UNL     1      -4.590   0.810  -1.751  0.00  0.00    -0.029 A 
ATOM     30  C   UNL     1      -4.920   0.885  -3.091  0.00  0.00    +0.004 A 
ATOM     31  C   UNL     1      -5.828  -0.007  -3.630  0.00  0.00    +0.000 A 
ATOM     32  C   UNL     1      -6.416  -0.967  -2.828  0.00  0.00    +0.003 A 
ATOM     33  C   UNL     1      -6.091  -1.040  -1.486  0.00  0.00    +0.038 A 
ATOM     34  C   UNL     1      -5.178  -0.151  -0.946  0.00  0.00    +0.125 A 
ATOM     35  F   UNL     1      -4.860  -0.221   0.365  0.00  0.00    -0.205 F 
ENDBRANCH  28  29
ENDBRANCH  25  28
ENDBRANCH  24  25
ENDBRANCH   2  24
TORSDOF 10
