REMARK  Name = ZINC65594212
REMARK  8 active torsions:
REMARK  status: ('A' for Active; 'I' for Inactive)
REMARK    1  A    between atoms: C_1  and  C_2
REMARK    2  A    between atoms: C_2  and  C_3
REMARK    3  A    between atoms: C_3  and  C_4
REMARK    4  A    between atoms: C_4  and  C_5
REMARK    5  A    between atoms: C_5  and  C_6
REMARK    6  A    between atoms: C_5  and  N_24
REMARK    7  A    between atoms: N_8  and  C_9
REMARK    8  A    between atoms: C_12  and  C_15
REMARK                            x       y       z     vdW  Elec       q    Type
REMARK                         _______ _______ _______ _____ _____    ______ ____
ROOT
ATOM      1  C   UNL     1       1.433  -3.999  -3.197  0.00  0.00    +0.238 C 
ATOM      2  O   UNL     1       2.433  -4.655  -3.397  0.00  0.00    -0.273 OA
ATOM      3  N   UNL     1       0.243  -4.613  -3.045  0.00  0.00    -0.284 N 
ATOM      4  H   UNL     1      -0.545  -4.095  -2.818  0.00  0.00    +0.155 HD
ENDROOT
BRANCH   3   5
ATOM      5  C   UNL     1       0.145  -5.999  -3.214  0.00  0.00    +0.033 A 
ATOM      6  C   UNL     1       1.191  -6.822  -2.817  0.00  0.00    +0.024 A 
ATOM      7  C   UNL     1       1.096  -8.188  -2.983  0.00  0.00    +0.012 A 
ATOM      8  C   UNL     1      -0.051  -8.742  -3.549  0.00  0.00    -0.000 A 
ATOM      9  C   UNL     1      -1.099  -7.914  -3.946  0.00  0.00    +0.012 A 
ATOM     10  C   UNL     1      -1.002  -6.549  -3.773  0.00  0.00    +0.024 A 
BRANCH   8  11
ATOM     11  C   UNL     1      -0.155 -10.211  -3.729  0.00  0.00    +0.064 A 
ATOM     12  C   UNL     1       0.786 -11.130  -3.382  0.00  0.00    +0.113 A 
ATOM     13  N   UNL     1       0.282 -12.349  -3.722  0.00  0.00    -0.335 N 
ATOM     14  C   UNL     1      -0.944 -12.149  -4.264  0.00  0.00    +0.087 A 
ATOM     15  N   UNL     1      -1.203 -10.875  -4.261  0.00  0.00    -0.343 N 
ATOM     16  C   UNL     1      -1.833 -13.260  -4.773  0.00  0.00    +0.072 C 
ATOM     17  C   UNL     1      -0.977 -14.522  -4.938  0.00  0.00    +0.009 C 
ATOM     18  C   UNL     1      -0.158 -14.747  -3.664  0.00  0.00    +0.022 C 
ATOM     19  C   UNL     1       0.916 -13.659  -3.548  0.00  0.00    +0.123 C 
ATOM     20  H   UNL     1      -2.019 -10.467  -4.590  0.00  0.00    +0.167 HD
ENDBRANCH   8  11
ENDBRANCH   3   5
BRANCH   1  21
ATOM     21  C   UNL     1       1.521  -2.497  -3.117  0.00  0.00    +0.161 C 
BRANCH  21  22
ATOM     22  N   UNL     1       2.754  -2.045  -3.766  0.00  0.00    -0.288 N 
ATOM     23  C   UNL     1       3.950  -2.465  -3.308  0.00  0.00    +0.298 C 
ATOM     24  O   UNL     1       4.005  -3.220  -2.356  0.00  0.00    -0.253 OA
ATOM     25  N   UNL     1       5.085  -2.049  -3.904  0.00  0.00    -0.313 N 
ATOM     26  H   UNL     1       2.710  -1.442  -4.525  0.00  0.00    +0.151 HD
ATOM     27  H   UNL     1       5.041  -1.447  -4.663  0.00  0.00    +0.146 HD
ATOM     28  H   UNL     1       5.945  -2.352  -3.574  0.00  0.00    +0.146 HD
ENDBRANCH  21  22
BRANCH  21  29
ATOM     29  C   UNL     1       1.528  -2.063  -1.650  0.00  0.00    +0.032 C 
BRANCH  29  30
ATOM     30  C   UNL     1       1.491  -0.535  -1.570  0.00  0.00    +0.002 C 
BRANCH  30  32
ATOM     31  C   UNL     1       1.461   1.426  -0.022  0.00  0.00    +0.004 C 
ATOM     32  C   UNL     1       1.497  -0.102  -0.103  0.00  0.00    -0.003 C 
ENDBRANCH  30  32
ENDBRANCH  29  30
ENDBRANCH  21  29
ENDBRANCH   1  21
TORSDOF 7
