REMARK  Name = ZINC03302511
REMARK  8 active torsions:
REMARK  status: ('A' for Active; 'I' for Inactive)
REMARK    1  A    between atoms: C_9  and  C_12
REMARK    2  A    between atoms: C_12  and  N_57
REMARK    3  A    between atoms: C_13  and  C_14
REMARK    4  A    between atoms: C_13  and  N_57
REMARK    5  A    between atoms: N_16  and  C_17
REMARK    6  A    between atoms: C_24  and  C_25
REMARK    7  A    between atoms: C_24  and  N_57
REMARK    8  A    between atoms: N_27  and  C_28
REMARK                            x       y       z     vdW  Elec       q    Type
REMARK                         _______ _______ _______ _____ _____    ______ ____
ROOT
ATOM      1  N   UNL     1       0.709  -0.217   1.203  0.00  0.00    +0.394 N 
ATOM      2  H   UNL     1       1.224  -0.313   2.086  0.00  0.00    -0.080 HD
ENDROOT
BRANCH   1   3
ATOM      3  C   UNL     1       0.894   1.155   0.685  0.00  0.00    -0.029 C 
BRANCH   3  12
ATOM      4  C   UNL     1      -1.295   1.573  -5.281  0.00  0.00    +0.004 A 
ATOM      5  C   UNL     1      -0.711   0.337  -5.080  0.00  0.00    +0.004 A 
ATOM      6  C   UNL     1      -0.166   0.019  -3.850  0.00  0.00    +0.049 A 
ATOM      7  C   UNL     1      -0.203   0.941  -2.815  0.00  0.00    +0.162 A 
ATOM      8  C   UNL     1      -0.793   2.183  -3.016  0.00  0.00    +0.162 A 
ATOM      9  C   UNL     1      -1.337   2.496  -4.253  0.00  0.00    +0.049 A 
ATOM     10  O   UNL     1      -0.848   3.099  -2.011  0.00  0.00    -0.485 OA
ATOM     11  C   UNL     1       0.035   2.893  -0.903  0.00  0.00    +0.271 C 
ATOM     12  C   UNL     1      -0.050   1.417  -0.490  0.00  0.00    +0.195 C 
ATOM     13  O   UNL     1       0.340   0.615  -1.610  0.00  0.00    -0.484 OA
ENDBRANCH   3  12
ENDBRANCH   1   3
BRANCH   1  14
ATOM     14  C   UNL     1      -0.725  -0.473   1.454  0.00  0.00    +0.020 C 
BRANCH  14  15
ATOM     15  C   UNL     1      -1.109   0.172   2.760  0.00  0.00    +0.201 C 
ATOM     16  O   UNL     1      -0.283   0.795   3.395  0.00  0.00    -0.278 OA
ATOM     17  N   UNL     1      -2.369   0.057   3.224  0.00  0.00    -0.287 N 
ATOM     18  H   UNL     1      -3.006  -0.510   2.762  0.00  0.00    +0.155 HD
BRANCH  17  19
ATOM     19  C   UNL     1      -2.758   0.755   4.374  0.00  0.00    +0.033 A 
ATOM     20  C   UNL     1      -2.155   1.965   4.690  0.00  0.00    +0.026 A 
ATOM     21  C   UNL     1      -2.544   2.655   5.822  0.00  0.00    +0.040 A 
ATOM     22  C   UNL     1      -3.527   2.136   6.646  0.00  0.00    +0.124 A 
ATOM     23  C   UNL     1      -4.127   0.927   6.335  0.00  0.00    +0.040 A 
ATOM     24  C   UNL     1      -3.744   0.236   5.202  0.00  0.00    +0.026 A 
ATOM     25  F   UNL     1      -3.902   2.809   7.756  0.00  0.00    -0.205 F 
ENDBRANCH  17  19
ENDBRANCH  14  15
ENDBRANCH   1  14
BRANCH   1  26
ATOM     26  C   UNL     1       1.235  -1.198   0.231  0.00  0.00    +0.020 C 
BRANCH  26  27
ATOM     27  C   UNL     1       2.740  -1.128   0.236  0.00  0.00    +0.201 C 
ATOM     28  O   UNL     1       3.307  -0.336   0.959  0.00  0.00    -0.278 OA
ATOM     29  N   UNL     1       3.456  -1.945  -0.561  0.00  0.00    -0.287 N 
ATOM     30  H   UNL     1       3.003  -2.528  -1.190  0.00  0.00    +0.155 HD
BRANCH  29  31
ATOM     31  C   UNL     1       4.854  -1.952  -0.482  0.00  0.00    +0.033 A 
ATOM     32  C   UNL     1       5.614  -2.189  -1.619  0.00  0.00    +0.026 A 
ATOM     33  C   UNL     1       6.993  -2.190  -1.540  0.00  0.00    +0.040 A 
ATOM     34  C   UNL     1       7.618  -1.966  -0.325  0.00  0.00    +0.124 A 
ATOM     35  C   UNL     1       6.862  -1.734   0.812  0.00  0.00    +0.040 A 
ATOM     36  C   UNL     1       5.483  -1.727   0.736  0.00  0.00    +0.026 A 
ATOM     37  F   UNL     1       8.966  -1.974  -0.248  0.00  0.00    -0.205 F 
ENDBRANCH  29  31
ENDBRANCH  26  27
ENDBRANCH   1  26
TORSDOF 8
