REMARK  Name = ZINC32753474
REMARK  10 active torsions:
REMARK  status: ('A' for Active; 'I' for Inactive)
REMARK    1  A    between atoms: C_1  and  C_2
REMARK    2  A    between atoms: C_2  and  C_4
REMARK    3  A    between atoms: C_2  and  N_17
REMARK    4  A    between atoms: N_6  and  C_7
REMARK    5  A    between atoms: C_9  and  C_15
REMARK    6  A    between atoms: C_9  and  C_16
REMARK    7  A    between atoms: C_11  and  C_13
REMARK    8  A    between atoms: C_11  and  C_14
REMARK    9  A    between atoms: C_18  and  C_20
REMARK   10  A    between atoms: C_21  and  C_22
REMARK                            x       y       z     vdW  Elec       q    Type
REMARK                         _______ _______ _______ _____ _____    ______ ____
ROOT
ATOM      1  C   UNL     1       0.077   5.700  -2.358  0.00  0.00    +0.233 C 
ATOM      2  O   UNL     1      -0.186   5.073  -3.362  0.00  0.00    -0.274 OA
ATOM      3  N   UNL     1       0.376   5.050  -1.216  0.00  0.00    -0.311 N 
ATOM      4  H   UNL     1       0.615   5.618  -0.305  0.00  0.00    +0.149 HD
ENDROOT
BRANCH   3   5
ATOM      5  C   UNL     1       0.383   3.582  -1.188  0.00  0.00    +0.070 C 
ATOM      6  C   UNL     1       1.307   3.104  -0.068  0.00  0.00    +0.009 C 
ATOM      7  C   UNL     1       1.318   1.579  -0.002  0.00  0.00    -0.072 C 
ATOM      8  N   UNL     1      -0.012   1.005   0.008  0.00  0.00    +0.386 N 
ATOM      9  C   UNL     1      -1.049   1.551  -0.842  0.00  0.00    -0.072 C 
ATOM     10  C   UNL     1      -1.030   3.077  -0.900  0.00  0.00    +0.009 C 
ATOM     11  C   UNL     1      -0.958   0.983  -2.263  0.00  0.00    -0.010 C 
ATOM     12  C   UNL     1      -2.418   1.125  -0.266  0.00  0.00    -0.010 C 
ATOM     13  C   UNL     1       2.027   1.175   1.309  0.00  0.00    -0.010 C 
ATOM     14  C   UNL     1       2.153   1.022  -1.161  0.00  0.00    -0.010 C 
ATOM     15  H   UNL     1       0.043  -0.052  -0.292  0.00  0.00    -0.084 HD
ATOM     16  H   UNL     1      -0.435   1.078   1.020  0.00  0.00    -0.084 HD
ENDBRANCH   3   5
BRANCH   1  18
ATOM     17  C   UNL     1      -0.958   7.731  -1.383  0.00  0.00    +0.038 C 
ATOM     18  C   UNL     1       0.070   7.207  -2.387  0.00  0.00    +0.156 C 
BRANCH  18  19
ATOM     19  N   UNL     1      -0.282   7.668  -3.732  0.00  0.00    -0.301 N 
ATOM     20  C   UNL     1       0.118   8.884  -4.154  0.00  0.00    +0.237 C 
ATOM     21  O   UNL     1       0.771   9.599  -3.418  0.00  0.00    -0.271 OA
ATOM     22  H   UNL     1      -0.873   7.021  -4.398  0.00  0.00    +0.150 HD
BRANCH  20  23
ATOM     23  C   UNL     1      -0.234   9.344  -5.499  0.00  0.00    +0.068 C 
ATOM     24  C   UNL     1       0.166  10.561  -5.921  0.00  0.00    +0.013 C 
BRANCH  24  25
ATOM     25  C   UNL     1      -0.188  11.024  -7.273  0.00  0.00    -0.025 A 
ATOM     26  C   UNL     1      -0.934  10.203  -8.124  0.00  0.00    +0.008 A 
ATOM     27  C   UNL     1      -1.266  10.645  -9.387  0.00  0.00    +0.001 A 
ATOM     28  C   UNL     1      -0.853  11.895  -9.817  0.00  0.00    +0.000 A 
ATOM     29  C   UNL     1      -0.110  12.711  -8.982  0.00  0.00    +0.001 A 
ATOM     30  C   UNL     1       0.225  12.285  -7.714  0.00  0.00    +0.008 A 
ENDBRANCH  24  25
ENDBRANCH  20  23
ENDBRANCH  18  19
ENDBRANCH   1  18
TORSDOF 5
