REMARK  Name = ZINC63162424
REMARK  9 active torsions:
REMARK  status: ('A' for Active; 'I' for Inactive)
REMARK    1  A    between atoms: C_1  and  N_2
REMARK    2  A    between atoms: N_2  and  C_3
REMARK    3  A    between atoms: N_2  and  C_4
REMARK    4  A    between atoms: C_4  and  C_5
REMARK    5  A    between atoms: C_4  and  C_12
REMARK    6  A    between atoms: C_5  and  C_6
REMARK    7  A    between atoms: C_12  and  N_13
REMARK    8  A    between atoms: N_16  and  C_17
REMARK    9  A    between atoms: C_19  and  C_25
REMARK                            x       y       z     vdW  Elec       q    Type
REMARK                         _______ _______ _______ _____ _____    ______ ____
ROOT
ATOM      1  N   UNL     1      -0.390  -2.247   1.402  0.00  0.00    -0.301 N 
ATOM      2  C   UNL     1      -0.121  -3.567   1.458  0.00  0.00    +0.304 C 
ATOM      3  O   UNL     1      -0.394  -4.283   0.514  0.00  0.00    -0.253 OA
ATOM      4  N   UNL     1       0.450  -4.092   2.560  0.00  0.00    -0.265 N 
ATOM      5  H   UNL     1      -0.172  -1.675   2.154  0.00  0.00    +0.150 HD
ATOM      6  H   UNL     1       0.607  -3.534   3.338  0.00  0.00    +0.157 HD
ENDROOT
BRANCH   4   7
ATOM      7  C   UNL     1       0.818  -5.444   2.582  0.00  0.00    +0.100 A 
ATOM      8  C   UNL     1       2.120  -5.804   2.796  0.00  0.00    +0.042 A 
ATOM      9  C   UNL     1       2.460  -7.165   2.813  0.00  0.00    +0.073 A 
ATOM     10  C   UNL     1       1.506  -8.104   2.622  0.00  0.00    +0.098 A 
ATOM     11  N   UNL     1       0.211  -7.748   2.409  0.00  0.00    -0.327 N 
ATOM     12  H   UNL     1      -0.459  -8.436   2.273  0.00  0.00    +0.168 HD
ATOM     13  C   UNL     1      -0.153  -6.452   2.391  0.00  0.00    +0.270 A 
ATOM     14  O   UNL     1      -1.320  -6.148   2.205  0.00  0.00    -0.266 OA
BRANCH   9  15
ATOM     15  C   UNL     1       3.890  -7.580   3.046  0.00  0.00    +0.419 C 
ATOM     16  F   UNL     1       3.980  -8.976   3.020  0.00  0.00    -0.166 F 
ATOM     17  F   UNL     1       4.702  -7.041   2.042  0.00  0.00    -0.166 F 
ATOM     18  F   UNL     1       4.316  -7.108   4.293  0.00  0.00    -0.166 F 
ENDBRANCH   9  15
ENDBRANCH   4   7
BRANCH   1  19
ATOM     19  C   UNL     1      -1.011  -1.676   0.204  0.00  0.00    +0.091 C 
BRANCH  19  20
ATOM     20  C   UNL     1      -1.078  -0.154   0.340  0.00  0.00    -0.048 C 
BRANCH  20  22
ATOM     21  C   UNL     1       1.040  -0.046   1.461  0.00  0.00    -0.096 C 
ATOM     22  N   UNL     1       0.281   0.403   0.287  0.00  0.00    +0.379 N 
ATOM     23  C   UNL     1       0.951  -0.059  -0.936  0.00  0.00    -0.096 C 
ATOM     24  H   UNL     1       0.231   1.411   0.283  0.00  0.00    -0.082 HD
ENDBRANCH  20  22
BRANCH  20  25
ATOM     25  C   UNL     1      -1.911   0.424  -0.805  0.00  0.00    +0.021 C 
BRANCH  25  26
ATOM     26  C   UNL     1      -2.083   1.908  -0.602  0.00  0.00    -0.049 A 
ATOM     27  C   UNL     1      -3.097   2.381   0.209  0.00  0.00    +0.003 A 
ATOM     28  C   UNL     1      -3.255   3.742   0.396  0.00  0.00    +0.000 A 
ATOM     29  C   UNL     1      -2.399   4.629  -0.229  0.00  0.00    +0.000 A 
ATOM     30  C   UNL     1      -1.384   4.155  -1.040  0.00  0.00    +0.000 A 
ATOM     31  C   UNL     1      -1.224   2.795  -1.223  0.00  0.00    +0.003 A 
ENDBRANCH  25  26
ENDBRANCH  20  25
ENDBRANCH  19  20
ENDBRANCH   1  19
TORSDOF 7
