REMARK  Name = ZINC19125142
REMARK  7 active torsions:
REMARK  status: ('A' for Active; 'I' for Inactive)
REMARK    1  A    between atoms: C_1  and  C_2
REMARK    2  A    between atoms: C_7  and  C_8
REMARK    3  A    between atoms: C_15  and  C_16
REMARK    4  A    between atoms: C_15  and  N_56
REMARK    5  A    between atoms: C_16  and  C_18
REMARK    6  A    between atoms: C_16  and  O_26
REMARK    7  A    between atoms: C_28  and  O_30
REMARK                            x       y       z     vdW  Elec       q    Type
REMARK                         _______ _______ _______ _____ _____    ______ ____
ROOT
ATOM      1  C   UNL     1       6.940   4.979   5.725  0.00  0.00    +0.044 C 
ATOM      2  C   UNL     1       5.548   4.446   5.506  0.00  0.00    -0.047 A 
ATOM      3  C   UNL     1       5.243   3.145   5.856  0.00  0.00    +0.013 A 
ATOM      4  C   UNL     1       3.966   2.648   5.658  0.00  0.00    +0.023 A 
ATOM      5  C   UNL     1       2.989   3.460   5.108  0.00  0.00    +0.127 A 
ATOM      6  C   UNL     1       3.299   4.770   4.758  0.00  0.00    +0.049 A 
ATOM      7  C   UNL     1       4.574   5.259   4.956  0.00  0.00    -0.044 A 
ATOM      8  C   UNL     1       4.905   6.678   4.573  0.00  0.00    +0.044 C 
ATOM      9  O   UNL     1       1.722   3.015   4.900  0.00  0.00    -0.485 OA
ATOM     10  C   UNL     1       1.498   1.607   4.916  0.00  0.00    +0.110 C 
ATOM     11  C   UNL     1      -0.004   1.321   4.953  0.00  0.00    +0.029 C 
ATOM     12  C   UNL     1      -0.652   1.850   3.671  0.00  0.00    -0.075 C 
ATOM     13  C   UNL     1       1.397   1.508   2.424  0.00  0.00    -0.075 C 
ATOM     14  C   UNL     1       2.107   0.969   3.667  0.00  0.00    +0.029 C 
ATOM     15  C   UNL     1       2.162   1.018   6.166  0.00  0.00    +0.084 C 
ATOM     16  C   UNL     1       3.675   1.221   6.047  0.00  0.00    +0.152 C 
ATOM     17  N   UNL     1      -0.040   1.172   2.509  0.00  0.00    +0.382 N 
ATOM     18  H   UNL     1      -0.138   0.156   2.626  0.00  0.00    -0.082 HD
ENDROOT
BRANCH  16  19
ATOM     19  O   UNL     1       4.292   0.935   7.304  0.00  0.00    -0.387 OA
ATOM     20  H   UNL     1       5.254   1.040   7.302  0.00  0.00    +0.210 HD
ENDBRANCH  16  19
BRANCH  17  21
ATOM     21  C   UNL     1      -0.729   1.579   1.267  0.00  0.00    -0.042 C 
BRANCH  21  22
ATOM     22  C   UNL     1      -2.152   1.017   1.285  0.00  0.00    +0.128 C 
BRANCH  22  23
ATOM     23  C   UNL     1      -2.856   1.391   0.006  0.00  0.00    -0.019 A 
ATOM     24  C   UNL     1      -2.698   0.611  -1.124  0.00  0.00    +0.007 A 
ATOM     25  C   UNL     1      -3.348   0.950  -2.295  0.00  0.00    +0.022 A 
ATOM     26  C   UNL     1      -4.149   2.077  -2.341  0.00  0.00    +0.059 A 
ATOM     27  C   UNL     1      -4.302   2.862  -1.211  0.00  0.00    +0.060 A 
ATOM     28  C   UNL     1      -3.655   2.518  -0.037  0.00  0.00    +0.027 A 
ATOM     29 CL   UNL     1      -5.307   4.277  -1.266  0.00  0.00    -0.082 Cl
ATOM     30 CL   UNL     1      -4.960   2.507  -3.814  0.00  0.00    -0.082 Cl
ENDBRANCH  22  23
BRANCH  22  31
ATOM     31  O   UNL     1      -2.100  -0.406   1.401  0.00  0.00    -0.389 OA
ATOM     32  H   UNL     1      -1.629  -0.843   0.678  0.00  0.00    +0.210 HD
ENDBRANCH  22  31
ENDBRANCH  21  22
ENDBRANCH  17  21
TORSDOF 5
