REMARK  Name = ZINC56194566
REMARK  14 active torsions:
REMARK  status: ('A' for Active; 'I' for Inactive)
REMARK    1  A    between atoms: C_1  and  C_2
REMARK    2  A    between atoms: C_2  and  C_4
REMARK    3  A    between atoms: C_2  and  N_14
REMARK    4  A    between atoms: C_7  and  C_10
REMARK    5  A    between atoms: C_10  and  C_11
REMARK    6  A    between atoms: C_10  and  C_12
REMARK    7  A    between atoms: C_10  and  C_13
REMARK    8  A    between atoms: N_14  and  C_15
REMARK    9  A    between atoms: C_15  and  C_17
REMARK   10  A    between atoms: C_15  and  C_18
REMARK   11  A    between atoms: C_18  and  C_20
REMARK   12  A    between atoms: C_21  and  N_30
REMARK   13  A    between atoms: N_22  and  C_29
REMARK   14  A    between atoms: N_25  and  C_28
REMARK                            x       y       z     vdW  Elec       q    Type
REMARK                         _______ _______ _______ _____ _____    ______ ____
ROOT
ATOM      1  C   UNL     1      -2.042  -0.155  -1.260  0.00  0.00    -0.001 C 
ATOM      2  C   UNL     1      -1.385  -0.870  -2.442  0.00  0.00    -0.006 C 
ENDROOT
BRANCH   1   3
ATOM      3  N   UNL     1      -1.362  -0.539  -0.016  0.00  0.00    +0.390 N 
ATOM      4  H   UNL     1      -1.361  -1.545   0.071  0.00  0.00    -0.084 HD
ATOM      5  H   UNL     1      -1.845  -0.134   0.771  0.00  0.00    -0.084 HD
BRANCH   3   7
ATOM      6  C   UNL     1       0.024   1.480  -0.050  0.00  0.00    -0.009 C 
ATOM      7  C   UNL     1       0.023  -0.050  -0.044  0.00  0.00    -0.043 C 
BRANCH   7   8
ATOM      8  C   UNL     1       0.757  -0.548   1.174  0.00  0.00    -0.062 A 
ATOM      9  C   UNL     1       0.118  -0.583   2.400  0.00  0.00    +0.002 A 
ATOM     10  C   UNL     1       0.791  -1.040   3.517  0.00  0.00    +0.004 A 
ATOM     11  C   UNL     1       2.103  -1.462   3.410  0.00  0.00    -0.042 A 
ATOM     12  C   UNL     1       2.742  -1.428   2.184  0.00  0.00    +0.004 A 
ATOM     13  C   UNL     1       2.067  -0.975   1.065  0.00  0.00    +0.002 A 
BRANCH  11  14
ATOM     14  C   UNL     1       2.837  -1.959   4.628  0.00  0.00    -0.013 C 
ATOM     15  C   UNL     1       2.104  -3.172   5.206  0.00  0.00    +0.015 C 
ATOM     16  C   UNL     1       4.260  -2.361   4.237  0.00  0.00    +0.015 C 
ATOM     17  C   UNL     1       2.891  -0.848   5.679  0.00  0.00    +0.015 C 
ENDBRANCH  11  14
ENDBRANCH   7   8
ENDBRANCH   3   7
ENDBRANCH   1   3
BRANCH   1  18
ATOM     18  C   UNL     1      -3.495  -0.549  -1.180  0.00  0.00    +0.158 C 
ATOM     19  O   UNL     1      -3.867  -1.325  -0.324  0.00  0.00    -0.294 OA
BRANCH  18  20
ATOM     20  C   UNL     1      -4.422  -0.014  -2.100  0.00  0.00    +0.118 A 
ATOM     21  C   UNL     1      -5.756  -0.458  -2.126  0.00  0.00    +0.116 A 
ATOM     22  N   UNL     1      -6.616   0.089  -3.034  0.00  0.00    -0.284 N 
ATOM     23  C   UNL     1      -6.212   1.036  -3.895  0.00  0.00    +0.333 A 
ATOM     24  O   UNL     1      -7.017   1.492  -4.684  0.00  0.00    -0.246 OA
ATOM     25  N   UNL     1      -4.952   1.499  -3.917  0.00  0.00    -0.263 N 
ATOM     26  C   UNL     1      -4.027   1.027  -3.056  0.00  0.00    +0.269 A 
ATOM     27  O   UNL     1      -2.886   1.453  -3.075  0.00  0.00    -0.267 OA
ATOM     28  C   UNL     1      -4.579   2.534  -4.884  0.00  0.00    +0.157 C 
ATOM     29  C   UNL     1      -8.008  -0.366  -3.069  0.00  0.00    +0.155 C 
BRANCH  21  30
ATOM     30  N   UNL     1      -6.182  -1.417  -1.260  0.00  0.00    -0.344 N 
ATOM     31  H   UNL     1      -5.587  -1.746  -0.569  0.00  0.00    +0.144 HD
ATOM     32  H   UNL     1      -7.082  -1.773  -1.335  0.00  0.00    +0.144 HD
ENDBRANCH  21  30
ENDBRANCH  18  20
ENDBRANCH   1  18
TORSDOF 7
