REMARK  Name = ZINC36743702
REMARK  7 active torsions:
REMARK  status: ('A' for Active; 'I' for Inactive)
REMARK    1  A    between atoms: C_1  and  C_2
REMARK    2  A    between atoms: C_8  and  O_33
REMARK    3  A    between atoms: N_15  and  C_18
REMARK    4  A    between atoms: C_18  and  C_19
REMARK    5  A    between atoms: C_19  and  C_21
REMARK    6  A    between atoms: C_19  and  O_32
REMARK    7  A    between atoms: C_28  and  C_31
REMARK                            x       y       z     vdW  Elec       q    Type
REMARK                         _______ _______ _______ _____ _____    ______ ____
ROOT
ATOM      1  C   UNL     1      -0.018   1.503   0.010  0.00  0.00    +0.044 C 
ATOM      2  C   UNL     1       0.002  -0.004   0.002  0.00  0.00    -0.050 A 
ATOM      3  C   UNL     1       0.006  -0.689  -1.199  0.00  0.00    +0.007 A 
ATOM      4  C   UNL     1       0.022  -2.068  -1.206  0.00  0.00    +0.046 A 
ATOM      5  C   UNL     1       0.036  -2.774  -0.007  0.00  0.00    +0.127 A 
ATOM      6  C   UNL     1       0.038  -2.086   1.194  0.00  0.00    +0.023 A 
ATOM      7  C   UNL     1       0.023  -0.701   1.194  0.00  0.00    +0.013 A 
ATOM      8  C   UNL     1       0.068  -2.812   2.515  0.00  0.00    +0.152 C 
ATOM      9  C   UNL     1      -0.361  -4.267   2.314  0.00  0.00    +0.084 C 
ATOM     10  C   UNL     1       0.417  -4.841   1.126  0.00  0.00    +0.110 C 
ATOM     11  O   UNL     1       0.043  -4.132  -0.054  0.00  0.00    -0.485 OA
ATOM     12  C   UNL     1       0.082  -6.325   0.966  0.00  0.00    +0.029 C 
ATOM     13  C   UNL     1       0.923  -6.914  -0.170  0.00  0.00    -0.075 C 
ATOM     14  N   UNL     1       2.348  -6.761   0.144  0.00  0.00    +0.382 N 
ATOM     15  C   UNL     1       2.691  -5.336   0.223  0.00  0.00    -0.075 C 
ATOM     16  C   UNL     1       1.919  -4.685   1.373  0.00  0.00    +0.029 C 
ATOM     17  H   UNL     1       2.546  -7.203   1.029  0.00  0.00    -0.082 HD
ENDROOT
BRANCH   8  18
ATOM     18  O   UNL     1      -0.829  -2.174   3.428  0.00  0.00    -0.387 OA
ATOM     19  H   UNL     1      -0.616  -1.248   3.606  0.00  0.00    +0.210 HD
ENDBRANCH   8  18
BRANCH  14  20
ATOM     20  C   UNL     1       3.151  -7.398  -0.908  0.00  0.00    -0.042 C 
BRANCH  20  21
ATOM     21  C   UNL     1       4.630  -7.349  -0.522  0.00  0.00    +0.128 C 
BRANCH  21  22
ATOM     22  C   UNL     1       5.464  -7.891  -1.654  0.00  0.00    -0.020 A 
ATOM     23  C   UNL     1       5.587  -9.257  -1.833  0.00  0.00    +0.009 A 
ATOM     24  C   UNL     1       6.345  -9.759  -2.870  0.00  0.00    +0.046 A 
ATOM     25  C   UNL     1       6.995  -8.893  -3.747  0.00  0.00    +0.124 A 
ATOM     26  C   UNL     1       6.870  -7.523  -3.553  0.00  0.00    -0.002 A 
ATOM     27  C   UNL     1       6.104  -7.025  -2.522  0.00  0.00    +0.013 A 
ATOM     28  C   UNL     1       7.694  -6.845  -4.630  0.00  0.00    +0.083 C 
ATOM     29  C   UNL     1       8.567  -8.012  -5.148  0.00  0.00    +0.175 C 
ATOM     30  O   UNL     1       7.773  -9.168  -4.829  0.00  0.00    -0.488 OA
ATOM     31  C   UNL     1       8.783  -7.898  -6.658  0.00  0.00    +0.052 C 
ENDBRANCH  21  22
BRANCH  21  32
ATOM     32  O   UNL     1       4.843  -8.141   0.648  0.00  0.00    -0.389 OA
ATOM     33  H   UNL     1       4.607  -9.073   0.541  0.00  0.00    +0.210 HD
ENDBRANCH  21  32
ENDBRANCH  20  21
ENDBRANCH  14  20
TORSDOF 5
