REMARK  Name = ZINC17249214
REMARK  13 active torsions:
REMARK  status: ('A' for Active; 'I' for Inactive)
REMARK    1  A    between atoms: C_6  and  C_7
REMARK    2  A    between atoms: C_7  and  C_9
REMARK    3  A    between atoms: C_7  and  O_39
REMARK    4  A    between atoms: C_9  and  C_11
REMARK    5  A    between atoms: C_9  and  C_32
REMARK    6  A    between atoms: C_11  and  C_12
REMARK    7  A    between atoms: C_12  and  C_13
REMARK    8  A    between atoms: C_13  and  C_15
REMARK    9  A    between atoms: C_13  and  C_22
REMARK   10  A    between atoms: C_15  and  N_83
REMARK   11  A    between atoms: C_22  and  C_24
REMARK   12  A    between atoms: C_22  and  O_31
REMARK   13  A    between atoms: C_32  and  N_85
REMARK                            x       y       z     vdW  Elec       q    Type
REMARK                         _______ _______ _______ _____ _____    ______ ____
ROOT
ATOM      1  C   UNL     1      -1.287   3.000  -3.727  0.00  0.00    +0.005 C 
ENDROOT
BRANCH   1   2
ATOM      2  C   UNL     1      -1.112   1.588  -3.164  0.00  0.00    +0.005 C 
BRANCH   2   3
ATOM      3  C   UNL     1       0.102   1.557  -2.234  0.00  0.00    +0.146 C 
BRANCH   3   9
ATOM      4  C   UNL     1      -0.483  -0.271  -0.628  0.00  0.00    +0.009 A 
ATOM      5  C   UNL     1      -0.321  -1.551  -0.134  0.00  0.00    +0.039 A 
ATOM      6  C   UNL     1       0.620  -2.396  -0.698  0.00  0.00    +0.123 A 
ATOM      7  C   UNL     1       1.392  -1.959  -1.761  0.00  0.00    +0.039 A 
ATOM      8  C   UNL     1       1.224  -0.680  -2.257  0.00  0.00    +0.009 A 
ATOM      9  C   UNL     1       0.285   0.163  -1.692  0.00  0.00    -0.019 A 
ATOM     10  F   UNL     1       0.783  -3.646  -0.212  0.00  0.00    -0.205 F 
ENDBRANCH   3   9
BRANCH   3  11
ATOM     11  O   UNL     1      -0.103   2.466  -1.151  0.00  0.00    -0.387 OA
ATOM     12  H   UNL     1      -0.881   2.265  -0.612  0.00  0.00    +0.210 HD
ENDBRANCH   3  11
ENDBRANCH   2   3
BRANCH   2  13
ATOM     13  C   UNL     1      -0.899   0.603  -4.315  0.00  0.00    -0.073 C 
BRANCH  13  20
ATOM     14  C   UNL     1      -3.203  -0.171  -4.313  0.00  0.00    -0.079 C 
ATOM     15  C   UNL     1      -4.393  -0.553  -5.150  0.00  0.00    -0.019 C 
ATOM     16  C   UNL     1      -4.216  -2.014  -5.615  0.00  0.00    -0.002 C 
ATOM     17  C   UNL     1      -3.289  -2.127  -6.736  0.00  0.00    -0.002 C 
ATOM     18  C   UNL     1      -1.875  -1.627  -6.375  0.00  0.00    -0.019 C 
ATOM     19  C   UNL     1      -1.874  -0.123  -6.419  0.00  0.00    -0.079 C 
ATOM     20  N   UNL     1      -2.142   0.545  -5.100  0.00  0.00    +0.380 N 
ATOM     21  H   UNL     1      -2.464   1.503  -5.282  0.00  0.00    -0.082 HD
ENDBRANCH  13  20
ENDBRANCH   2  13
ENDBRANCH   1   2
BRANCH   1  22
ATOM     22  C   UNL     1      -2.599   3.078  -4.510  0.00  0.00    +0.005 C 
BRANCH  22  23
ATOM     23  C   UNL     1      -2.846   4.522  -4.951  0.00  0.00    +0.005 C 
BRANCH  23  24
ATOM     24  C   UNL     1      -1.767   4.941  -5.952  0.00  0.00    -0.073 C 
BRANCH  24  31
ATOM     25  C   UNL     1      -0.420   6.090  -4.287  0.00  0.00    -0.079 C 
ATOM     26  C   UNL     1       0.968   6.353  -3.768  0.00  0.00    -0.019 C 
ATOM     27  C   UNL     1       1.607   7.468  -4.623  0.00  0.00    -0.002 C 
ATOM     28  C   UNL     1       2.095   6.969  -5.904  0.00  0.00    -0.002 C 
ATOM     29  C   UNL     1       0.962   6.376  -6.768  0.00  0.00    -0.019 C 
ATOM     30  C   UNL     1       0.643   4.997  -6.258  0.00  0.00    -0.079 C 
ATOM     31  N   UNL     1      -0.472   4.939  -5.253  0.00  0.00    +0.380 N 
ATOM     32  H   UNL     1      -0.384   4.066  -4.720  0.00  0.00    -0.082 HD
ENDBRANCH  24  31
ENDBRANCH  23  24
BRANCH  23  33
ATOM     33  C   UNL     1      -4.222   4.626  -5.611  0.00  0.00    +0.146 C 
BRANCH  33  34
ATOM     34  C   UNL     1      -4.455   6.044  -6.066  0.00  0.00    -0.019 A 
ATOM     35  C   UNL     1      -4.855   7.004  -5.157  0.00  0.00    +0.009 A 
ATOM     36  C   UNL     1      -5.064   8.306  -5.572  0.00  0.00    +0.039 A 
ATOM     37  C   UNL     1      -4.882   8.645  -6.902  0.00  0.00    +0.123 A 
ATOM     38  C   UNL     1      -4.486   7.681  -7.814  0.00  0.00    +0.039 A 
ATOM     39  C   UNL     1      -4.273   6.381  -7.395  0.00  0.00    +0.009 A 
ATOM     40  F   UNL     1      -5.092   9.916  -7.311  0.00  0.00    -0.205 F 
ENDBRANCH  33  34
BRANCH  33  41
ATOM     41  O   UNL     1      -5.231   4.256  -4.669  0.00  0.00    -0.387 OA
ATOM     42  H   UNL     1      -5.252   4.811  -3.877  0.00  0.00    +0.210 HD
ENDBRANCH  33  41
ENDBRANCH  23  33
ENDBRANCH  22  23
ENDBRANCH   1  22
TORSDOF 13
