REMARK  Name = ZINC48234217
REMARK  7 active torsions:
REMARK  status: ('A' for Active; 'I' for Inactive)
REMARK    1  A    between atoms: C_1  and  C_2
REMARK    2  A    between atoms: C_2  and  C_3
REMARK    3  A    between atoms: C_3  and  C_5
REMARK    4  A    between atoms: C_3  and  N_17
REMARK    5  A    between atoms: C_5  and  N_6
REMARK    6  A    between atoms: N_9  and  C_10
REMARK    7  A    between atoms: C_10  and  C_11
REMARK                            x       y       z     vdW  Elec       q    Type
REMARK                         _______ _______ _______ _____ _____    ______ ____
ROOT
ATOM      1  C   UNL     1      -1.443  -0.556   0.170  0.00  0.00    -0.051 C 
ENDROOT
BRANCH   1   2
ATOM      2  N   UNL     1      -1.704  -0.169   1.563  0.00  0.00    +0.385 N 
ATOM      3  C   UNL     1      -0.704  -0.791   2.443  0.00  0.00    -0.073 C 
ATOM      4  C   UNL     1      -0.799  -0.142   3.825  0.00  0.00    +0.017 C 
ATOM      5  C   UNL     1      -2.230  -0.156   4.297  0.00  0.00    -0.048 A 
ATOM      6  C   UNL     1      -2.489   0.061   5.642  0.00  0.00    +0.004 A 
ATOM      7  C   UNL     1      -3.787   0.059   6.111  0.00  0.00    +0.000 A 
ATOM      8  C   UNL     1      -4.834  -0.161   5.235  0.00  0.00    +0.000 A 
ATOM      9  C   UNL     1      -4.577  -0.378   3.896  0.00  0.00    +0.002 A 
ATOM     10  C   UNL     1      -3.273  -0.378   3.424  0.00  0.00    -0.061 A 
ATOM     11  C   UNL     1      -3.039  -0.628   1.957  0.00  0.00    -0.042 C 
ATOM     12  H   UNL     1      -1.654   0.835   1.649  0.00  0.00    -0.081 HD
ENDBRANCH   1   2
BRANCH   1  14
ATOM     13  C   UNL     1      -0.236   1.587  -0.268  0.00  0.00    +0.002 C 
ATOM     14  C   UNL     1      -0.121   0.061  -0.292  0.00  0.00    -0.017 C 
ENDBRANCH   1  14
BRANCH   1  15
ATOM     15  C   UNL     1      -1.354  -2.081   0.073  0.00  0.00    +0.090 C 
BRANCH  15  16
ATOM     16  N   UNL     1      -2.697  -2.656   0.184  0.00  0.00    -0.301 N 
ATOM     17  C   UNL     1      -2.855  -3.993   0.248  0.00  0.00    +0.300 C 
ATOM     18  O   UNL     1      -1.882  -4.722   0.213  0.00  0.00    -0.253 OA
ATOM     19  N   UNL     1      -4.090  -4.522   0.350  0.00  0.00    -0.294 N 
ATOM     20  H   UNL     1      -3.473  -2.074   0.212  0.00  0.00    +0.150 HD
ATOM     21  H   UNL     1      -4.866  -3.940   0.378  0.00  0.00    +0.151 HD
BRANCH  19  22
ATOM     22  C   UNL     1      -4.261  -5.975   0.419  0.00  0.00    +0.163 C 
BRANCH  22  23
ATOM     23  C   UNL     1      -5.728  -6.304   0.529  0.00  0.00    +0.080 A 
ATOM     24  C   UNL     1      -6.577  -6.629  -0.534  0.00  0.00    +0.045 A 
ATOM     25  C   UNL     1      -7.811  -6.856  -0.027  0.00  0.00    +0.105 A 
ATOM     26  N   UNL     1      -7.745  -6.681   1.310  0.00  0.00    -0.284 N 
ATOM     27  H   UNL     1      -8.480  -6.777   1.935  0.00  0.00    +0.188 HD
ATOM     28  N   UNL     1      -6.426  -6.339   1.635  0.00  0.00    -0.177 NA
ENDBRANCH  22  23
ENDBRANCH  19  22
ENDBRANCH  15  16
ENDBRANCH   1  15
TORSDOF 6
