REMARK  Name = ZINC01159604
REMARK  7 active torsions:
REMARK  status: ('A' for Active; 'I' for Inactive)
REMARK    1  A    between atoms: C_6  and  N_7
REMARK    2  A    between atoms: C_8  and  C_10
REMARK    3  A    between atoms: C_14  and  N_15
REMARK    4  A    between atoms: C_16  and  C_18
REMARK    5  A    between atoms: C_18  and  N_19
REMARK    6  A    between atoms: N_19  and  C_20
REMARK    7  A    between atoms: C_20  and  C_21
REMARK                            x       y       z     vdW  Elec       q    Type
REMARK                         _______ _______ _______ _____ _____    ______ ____
ROOT
ATOM      1  C   UNL     1      -2.442  -2.807  -0.201  0.00  0.00    +0.069 A 
ATOM      2  C   UNL     1      -3.053  -3.096  -1.498  0.00  0.00    -0.023 A 
ATOM      3  C   UNL     1      -4.206  -3.784  -1.420  0.00  0.00    -0.004 A 
ATOM      4  S   UNL     1      -4.461  -4.036   0.318  0.00  0.00    -0.077 S 
ATOM      5  C   UNL     1      -3.099  -3.268   0.925  0.00  0.00    +0.084 A 
ATOM      6  C   UNL     1      -4.793  -4.050  -2.780  0.00  0.00    +0.043 C 
ATOM      7  C   UNL     1      -4.068  -3.060  -3.719  0.00  0.00    +0.010 C 
ATOM      8  C   UNL     1      -2.740  -2.831  -2.969  0.00  0.00    +0.037 C 
ENDROOT
BRANCH   1  10
ATOM      9  N   UNL     1      -1.199  -0.721   0.010  0.00  0.00    -0.281 N 
ATOM     10  C   UNL     1      -1.183  -2.064  -0.099  0.00  0.00    +0.251 C 
ATOM     11  O   UNL     1      -0.122  -2.661  -0.113  0.00  0.00    -0.270 OA
ATOM     12  H   UNL     1      -2.043  -0.252   0.098  0.00  0.00    +0.155 HD
BRANCH   9  18
ATOM     13  C   UNL     1       1.072  -0.453  -0.767  0.00  0.00    +0.024 A 
ATOM     14  C   UNL     1       2.256   0.258  -0.779  0.00  0.00    +0.017 A 
ATOM     15  C   UNL     1       2.377   1.416  -0.032  0.00  0.00    +0.018 A 
ATOM     16  C   UNL     1       1.312   1.866   0.730  0.00  0.00    +0.017 A 
ATOM     17  C   UNL     1       0.126   1.159   0.745  0.00  0.00    +0.024 A 
ATOM     18  C   UNL     1       0.002  -0.004  -0.004  0.00  0.00    +0.034 A 
ATOM     19 BR   UNL     1       4.000   2.386  -0.050  0.00  0.00    -0.050 Br
ENDBRANCH   9  18
ENDBRANCH   1  10
BRANCH   5  20
ATOM     20  N   UNL     1      -2.720  -3.126   2.251  0.00  0.00    -0.281 N 
ATOM     21  C   UNL     1      -3.488  -3.644   3.231  0.00  0.00    +0.201 C 
ATOM     22  O   UNL     1      -4.510  -4.234   2.952  0.00  0.00    -0.278 OA
ATOM     23  H   UNL     1      -1.903  -2.654   2.474  0.00  0.00    +0.155 HD
BRANCH  21  24
ATOM     24  C   UNL     1      -3.076  -3.490   4.672  0.00  0.00    +0.015 C 
BRANCH  24  25
ATOM     25  N   UNL     1      -4.072  -4.136   5.538  0.00  0.00    +0.386 N 
ATOM     26  H   UNL     1      -4.972  -3.702   5.397  0.00  0.00    -0.085 HD
ATOM     27  H   UNL     1      -4.131  -5.116   5.308  0.00  0.00    -0.085 HD
BRANCH  25  28
ATOM     28  C   UNL     1      -3.670  -3.985   6.943  0.00  0.00    -0.050 C 
BRANCH  28  29
ATOM     29  C   UNL     1      -4.707  -4.658   7.844  0.00  0.00    +0.101 C 
ATOM     30  C   UNL     1      -4.320  -4.481   9.334  0.00  0.00    +0.032 C 
ATOM     31  C   UNL     1      -5.709  -4.614  10.017  0.00  0.00    +0.030 C 
ATOM     32  C   UNL     1      -6.650  -3.973   8.975  0.00  0.00    +0.160 C 
ATOM     33  O   UNL     1      -5.982  -4.011   7.706  0.00  0.00    -0.378 OA
ENDBRANCH  28  29
ENDBRANCH  25  28
ENDBRANCH  24  25
ENDBRANCH  21  24
ENDBRANCH   5  20
TORSDOF 7
