REMARK  Name = ZINC66233243
REMARK  9 active torsions:
REMARK  status: ('A' for Active; 'I' for Inactive)
REMARK    1  A    between atoms: C_1  and  N_2
REMARK    2  A    between atoms: N_2  and  S_3
REMARK    3  A    between atoms: S_3  and  C_6
REMARK    4  A    between atoms: C_9  and  C_11
REMARK    5  A    between atoms: C_11  and  N_12
REMARK    6  A    between atoms: N_15  and  C_16
REMARK    7  A    between atoms: C_16  and  C_17
REMARK    8  A    between atoms: C_17  and  C_18
REMARK    9  A    between atoms: N_22  and  C_23
REMARK                            x       y       z     vdW  Elec       q    Type
REMARK                         _______ _______ _______ _____ _____    ______ ____
ROOT
ATOM      1  N   UNL     1       6.887   0.650  -2.871  0.00  0.00    -0.295 N 
ATOM      2  C   UNL     1       8.068   1.134  -3.305  0.00  0.00    +0.300 C 
ATOM      3  O   UNL     1       8.613   2.039  -2.702  0.00  0.00    -0.253 OA
ATOM      4  N   UNL     1       8.646   0.614  -4.406  0.00  0.00    -0.299 N 
ATOM      5  H   UNL     1       6.453  -0.072  -3.352  0.00  0.00    +0.151 HD
ATOM      6  H   UNL     1       8.212  -0.108  -4.887  0.00  0.00    +0.150 HD
ENDROOT
BRANCH   1   7
ATOM      7  C   UNL     1       6.259   1.215  -1.674  0.00  0.00    +0.148 C 
BRANCH   7  11
ATOM      8  C   UNL     1       2.438  -0.437  -1.202  0.00  0.00    +0.143 A 
ATOM      9  C   UNL     1       3.437  -1.084  -0.552  0.00  0.00    +0.037 A 
ATOM     10  C   UNL     1       4.728  -0.603  -0.657  0.00  0.00    +0.015 A 
ATOM     11  C   UNL     1       4.958   0.503  -1.407  0.00  0.00    +0.009 A 
ATOM     12  S   UNL     1       3.320   0.895  -2.000  0.00  0.00    -0.072 S 
BRANCH   8  13
ATOM     13  S   UNL     1       0.718  -0.816  -1.251  0.00  0.00    +0.064 S 
ATOM     14  O   UNL     1       0.599  -2.201  -0.959  0.00  0.00    -0.153 OA
ATOM     15  O   UNL     1       0.211  -0.243  -2.449  0.00  0.00    -0.153 OA
BRANCH  13  17
ATOM     16  C   UNL     1      -0.018   1.461   0.010  0.00  0.00    +0.127 C 
ATOM     17  N   UNL     1       0.002  -0.004   0.002  0.00  0.00    -0.193 NA
ATOM     18  H   UNL     1      -0.404  -0.499   0.731  0.00  0.00    +0.148 HD
ENDBRANCH  13  17
ENDBRANCH   8  13
ENDBRANCH   7  11
ENDBRANCH   1   7
BRANCH   4  19
ATOM     19  C   UNL     1       9.930   1.140  -4.877  0.00  0.00    +0.113 C 
BRANCH  19  20
ATOM     20  C   UNL     1      10.361   0.382  -6.134  0.00  0.00    +0.091 C 
BRANCH  20  21
ATOM     21  C   UNL     1      11.682   0.923  -6.618  0.00  0.00    +0.088 A 
ATOM     22  N   UNL     1      12.858   0.547  -6.197  0.00  0.00    -0.350 N 
ATOM     23  C   UNL     1      13.804   1.240  -6.849  0.00  0.00    +0.101 A 
ATOM     24  C   UNL     1      13.190   2.078  -7.706  0.00  0.00    +0.104 A 
ATOM     25  N   UNL     1      11.844   1.873  -7.564  0.00  0.00    -0.339 N 
ATOM     26  C   UNL     1      10.778   2.559  -8.300  0.00  0.00    +0.150 C 
ATOM     27  H   UNL     1      13.023  -0.127  -5.520  0.00  0.00    +0.166 HD
ENDBRANCH  20  21
ENDBRANCH  19  20
ENDBRANCH   4  19
TORSDOF 7
