REMARK  Name = ZINC12523709
REMARK  3 active torsions:
REMARK  status: ('A' for Active; 'I' for Inactive)
REMARK    1  A    between atoms: C_4  and  O_22
REMARK    2  A    between atoms: C_5  and  C_7
REMARK    3  A    between atoms: O_22  and  C_23
REMARK                            x       y       z     vdW  Elec       q    Type
REMARK                         _______ _______ _______ _____ _____    ______ ____
ROOT
ATOM      1  C   UNL     1       1.227  -2.187  -0.022  0.00  0.00    +0.212 C 
ATOM      2  N   UNL     1      -0.081  -2.700  -0.468  0.00  0.00    -0.294 N 
ATOM      3  C   UNL     1      -1.109  -2.752   0.462  0.00  0.00    +0.159 C 
ATOM      4  N   UNL     1      -0.824  -3.395   1.667  0.00  0.00    -0.259 N 
ATOM      5  C   UNL     1       0.484  -3.248   2.121  0.00  0.00    +0.205 A 
ATOM      6  N   UNL     1       1.468  -2.688   1.336  0.00  0.00    -0.288 N 
ATOM      7  C   UNL     1       2.624  -2.704   2.063  0.00  0.00    +0.072 A 
ATOM      8  C   UNL     1       3.920  -2.284   1.787  0.00  0.00    +0.028 A 
ATOM      9  C   UNL     1       4.865  -2.457   2.785  0.00  0.00    +0.002 A 
ATOM     10  C   UNL     1       4.547  -3.024   4.007  0.00  0.00    +0.002 A 
ATOM     11  C   UNL     1       3.266  -3.451   4.306  0.00  0.00    +0.030 A 
ATOM     12  C   UNL     1       2.294  -3.285   3.313  0.00  0.00    +0.091 A 
ATOM     13  N   UNL     1       0.978  -3.590   3.280  0.00  0.00    -0.214 NA
ATOM     14  N   UNL     1      -2.278  -2.228   0.224  0.00  0.00    -0.375 N 
ATOM     15  H   UNL     1      -0.218  -2.993  -1.383  0.00  0.00    +0.151 HD
ATOM     16  H   UNL     1      -2.448  -1.786  -0.623  0.00  0.00    +0.158 HD
ATOM     17  H   UNL     1      -1.489  -3.908   2.153  0.00  0.00    +0.158 HD
ATOM     18  H   UNL     1      -2.978  -2.279   0.893  0.00  0.00    +0.158 HD
ENDROOT
BRANCH   1  23
ATOM     19  C   UNL     1       1.047   1.385   1.188  0.00  0.00    +0.001 A 
ATOM     20  C   UNL     1       1.170   2.088   0.004  0.00  0.00    +0.004 A 
ATOM     21  C   UNL     1       1.312   1.410  -1.191  0.00  0.00    +0.046 A 
ATOM     22  C   UNL     1       1.331   0.023  -1.203  0.00  0.00    +0.134 A 
ATOM     23  C   UNL     1       1.207  -0.680  -0.013  0.00  0.00    +0.035 A 
ATOM     24  C   UNL     1       1.065   0.003   1.180  0.00  0.00    +0.011 A 
BRANCH  22  25
ATOM     25  O   UNL     1       1.469  -0.646  -2.377  0.00  0.00    -0.434 OA
BRANCH  25  26
ATOM     26  C   UNL     1       1.591   0.142  -3.563  0.00  0.00    +0.541 C 
ATOM     27  F   UNL     1       0.448   0.935  -3.715  0.00  0.00    -0.166 F 
ATOM     28  F   UNL     1       2.718   0.964  -3.463  0.00  0.00    -0.166 F 
ENDBRANCH  25  26
ENDBRANCH  22  25
ENDBRANCH   1  23
TORSDOF 3
