REMARK  Name = ZINC04502039
REMARK  9 active torsions:
REMARK  status: ('A' for Active; 'I' for Inactive)
REMARK    1  A    between atoms: C_1  and  C_2
REMARK    2  A    between atoms: C_2  and  O_3
REMARK    3  A    between atoms: O_3  and  C_4
REMARK    4  A    between atoms: C_4  and  C_6
REMARK    5  A    between atoms: C_7  and  C_23
REMARK    6  A    between atoms: C_12  and  C_14
REMARK    7  A    between atoms: C_23  and  N_66
REMARK    8  A    between atoms: C_24  and  C_25
REMARK    9  A    between atoms: C_24  and  N_66
REMARK                            x       y       z     vdW  Elec       q    Type
REMARK                         _______ _______ _______ _____ _____    ______ ____
ROOT
ATOM      1  C   UNL     1       2.884   0.786  -1.426  0.00  0.00    +0.076 C 
ATOM      2  C   UNL     1       3.020  -0.494  -1.834  0.00  0.00    +0.007 C 
ATOM      3  N   UNL     1       2.849  -1.532  -0.964  0.00  0.00    -0.274 N 
ATOM      4  C   UNL     1       2.541  -1.374   0.330  0.00  0.00    +0.304 C 
ATOM      5  O   UNL     1       2.409  -2.361   1.028  0.00  0.00    -0.252 OA
ATOM      6  N   UNL     1       2.372  -0.157   0.883  0.00  0.00    -0.288 N 
ATOM      7  C   UNL     1       2.535   1.030   0.028  0.00  0.00    +0.144 C 
ATOM      8  H   UNL     1       2.957  -2.435  -1.301  0.00  0.00    +0.156 HD
ATOM      9  H   UNL     1       2.149  -0.065   1.823  0.00  0.00    +0.151 HD
ENDROOT
BRANCH   7  10
ATOM     10  C   UNL     1       1.249   1.815   0.071  0.00  0.00    -0.019 A 
ATOM     11  C   UNL     1       0.036   1.151   0.057  0.00  0.00    +0.009 A 
ATOM     12  C   UNL     1      -1.147   1.866   0.091  0.00  0.00    +0.050 A 
ATOM     13  C   UNL     1      -1.119   3.250   0.151  0.00  0.00    +0.166 A 
ATOM     14  C   UNL     1       0.103   3.918   0.167  0.00  0.00    +0.167 A 
ATOM     15  C   UNL     1       1.284   3.195   0.127  0.00  0.00    +0.055 A 
ATOM     16  O   UNL     1      -0.135   5.261   0.221  0.00  0.00    -0.453 OA
ATOM     17  C   UNL     1      -1.510   5.424  -0.172  0.00  0.00    +0.466 C 
ATOM     18  O   UNL     1      -2.122   4.174   0.197  0.00  0.00    -0.453 OA
ENDBRANCH   7  10
BRANCH   1  19
ATOM     19  C   UNL     1       3.061   1.863  -2.327  0.00  0.00    +0.339 C 
ATOM     20  O   UNL     1       3.257   1.643  -3.507  0.00  0.00    -0.245 OA
BRANCH  19  21
ATOM     21  O   UNL     1       3.011   3.134  -1.877  0.00  0.00    -0.462 OA
BRANCH  21  23
ATOM     22  C   UNL     1       3.109   5.533  -2.149  0.00  0.00    +0.048 C 
ATOM     23  C   UNL     1       3.198   4.172  -2.841  0.00  0.00    +0.229 C 
ENDBRANCH  21  23
ENDBRANCH  19  21
ENDBRANCH   1  19
BRANCH   2  24
ATOM     24  C   UNL     1       3.366  -0.781  -3.272  0.00  0.00    -0.030 C 
BRANCH  24  25
ATOM     25  N   UNL     1       4.825  -0.659  -3.452  0.00  0.00    +0.383 N 
ATOM     26  H   UNL     1       5.300  -1.332  -2.838  0.00  0.00    -0.085 HD
ATOM     27  H   UNL     1       5.118   0.293  -3.206  0.00  0.00    -0.085 HD
BRANCH  25  28
ATOM     28  C   UNL     1       5.194  -0.936  -4.853  0.00  0.00    -0.075 C 
BRANCH  28  29
ATOM     29  C   UNL     1       6.710  -0.802  -5.009  0.00  0.00    -0.044 C 
ATOM     30  C   UNL     1       7.408  -1.804  -4.086  0.00  0.00    +0.008 C 
ATOM     31  C   UNL     1       8.924  -1.670  -4.242  0.00  0.00    -0.010 C 
ATOM     32  C   UNL     1       9.315  -1.955  -5.693  0.00  0.00    +0.007 C 
ATOM     33  C   UNL     1       8.617  -0.954  -6.616  0.00  0.00    -0.010 C 
ATOM     34  C   UNL     1       7.101  -1.088  -6.460  0.00  0.00    +0.008 C 
ATOM     35  C   UNL     1       9.044   0.467  -6.242  0.00  0.00    +0.007 C 
ATOM     36  C   UNL     1       8.654   0.752  -4.791  0.00  0.00    -0.010 C 
ATOM     37  C   UNL     1       9.351  -0.249  -3.869  0.00  0.00    +0.007 C 
ATOM     38  C   UNL     1       7.138   0.619  -4.635  0.00  0.00    +0.008 C 
ENDBRANCH  28  29
ENDBRANCH  25  28
ENDBRANCH  24  25
ENDBRANCH   2  24
TORSDOF 8
