REMARK  Name = ZINC40824939
REMARK  6 active torsions:
REMARK  status: ('A' for Active; 'I' for Inactive)
REMARK    1  A    between atoms: C_1  and  C_2
REMARK    2  A    between atoms: C_6  and  C_7
REMARK    3  A    between atoms: N_9  and  N_10
REMARK    4  A    between atoms: C_11  and  C_13
REMARK    5  A    between atoms: C_18  and  N_19
REMARK    6  A    between atoms: N_26  and  N_27
REMARK                            x       y       z     vdW  Elec       q    Type
REMARK                         _______ _______ _______ _____ _____    ______ ____
ROOT
ATOM      1  C   UNL     1       1.870  -0.048  -0.116  0.00  0.00    +0.048 C 
ATOM      2  C   UNL     1       1.515  -1.500   0.079  0.00  0.00    +0.009 A 
ATOM      3  C   UNL     1       1.480  -2.496  -0.904  0.00  0.00    +0.042 A 
ATOM      4  C   UNL     1       1.107  -3.668  -0.291  0.00  0.00    +0.115 A 
ATOM      5  O   UNL     1       0.924  -3.415   1.003  0.00  0.00    -0.454 OA
ATOM      6  C   UNL     1       1.169  -2.109   1.253  0.00  0.00    +0.194 A 
ATOM      7  C   UNL     1       0.954  -4.970  -1.035  0.00  0.00    +0.075 C 
ATOM      8  C   UNL     1       0.761  -4.684  -2.527  0.00  0.00    +0.014 C 
ATOM      9  C   UNL     1       1.879  -3.778  -3.052  0.00  0.00    +0.058 C 
ATOM     10  C   UNL     1       1.768  -2.430  -2.355  0.00  0.00    +0.072 C 
ATOM     11  N   UNL     1       1.914  -1.306  -2.985  0.00  0.00    -0.175 NA
ENDROOT
BRANCH  11  12
ATOM     12  N   UNL     1       2.186  -1.304  -4.360  0.00  0.00    -0.248 N 
ATOM     13  C   UNL     1       2.340  -0.118  -5.025  0.00  0.00    +0.187 C 
ATOM     14  N   UNL     1       2.598  -0.116  -6.333  0.00  0.00    -0.370 N 
ATOM     15  N   UNL     1       2.231   1.035  -4.366  0.00  0.00    -0.370 N 
ATOM     16  H   UNL     1       2.264  -2.144  -4.840  0.00  0.00    +0.192 HD
ATOM     17  H   UNL     1       2.707   0.725  -6.804  0.00  0.00    +0.159 HD
ATOM     18  H   UNL     1       2.043   1.034  -3.414  0.00  0.00    +0.159 HD
ATOM     19  H   UNL     1       2.341   1.876  -4.838  0.00  0.00    +0.159 HD
ATOM     20  H   UNL     1       2.677  -0.955  -6.813  0.00  0.00    +0.159 HD
ENDBRANCH  11  12
BRANCH   6  21
ATOM     21  C   UNL     1       1.076  -1.455   2.563  0.00  0.00    +0.296 C 
ATOM     22  O   UNL     1       1.318  -0.267   2.669  0.00  0.00    -0.265 OA
ATOM     23  N   UNL     1       0.723  -2.170   3.649  0.00  0.00    -0.228 N 
ATOM     24  H   UNL     1       0.530  -3.117   3.565  0.00  0.00    +0.173 HD
BRANCH  23  25
ATOM     25  N   UNL     1       0.634  -1.546   4.900  0.00  0.00    -0.230 N 
ATOM     26  C   UNL     1       0.281  -2.260   5.987  0.00  0.00    +0.262 C 
ATOM     27  O   UNL     1       0.039  -3.447   5.881  0.00  0.00    -0.269 OA
ATOM     28  H   UNL     1       0.827  -0.599   4.985  0.00  0.00    +0.173 HD
BRANCH  26  29
ATOM     29  C   UNL     1       0.187  -1.601   7.307  0.00  0.00    +0.068 A 
ATOM     30  C   UNL     1       1.276  -0.891   7.815  0.00  0.00    +0.015 A 
ATOM     31  C   UNL     1       1.182  -0.279   9.047  0.00  0.00    +0.001 A 
ATOM     32  C   UNL     1       0.011  -0.367   9.780  0.00  0.00    +0.002 A 
ATOM     33  C   UNL     1      -1.072  -1.069   9.282  0.00  0.00    +0.033 A 
ATOM     34  C   UNL     1      -0.993  -1.682   8.048  0.00  0.00    +0.138 A 
BRANCH  34  35
ATOM     35  N   UNL     1      -2.155  -2.427   7.514  0.00  0.00    +0.057 N 
ATOM     36  O   UNL     1      -3.131  -2.601   8.206  0.00  0.00    -0.126 OA
ATOM     37  O   UNL     1      -2.128  -2.862   6.386  0.00  0.00    -0.126 OA
ENDBRANCH  34  35
ENDBRANCH  26  29
ENDBRANCH  23  25
ENDBRANCH   6  21
TORSDOF 5
