REMARK  Name = ZINC61440101
REMARK  7 active torsions:
REMARK  status: ('A' for Active; 'I' for Inactive)
REMARK    1  A    between atoms: C_1  and  C_2
REMARK    2  A    between atoms: C_9  and  S_11
REMARK    3  A    between atoms: S_11  and  C_12
REMARK    4  A    between atoms: C_12  and  C_14
REMARK    5  A    between atoms: C_12  and  C_20
REMARK    6  A    between atoms: C_20  and  C_22
REMARK    7  A    between atoms: C_20  and  N_23
REMARK                            x       y       z     vdW  Elec       q    Type
REMARK                         _______ _______ _______ _____ _____    ______ ____
ROOT
ATOM      1  C   UNL     1       0.147  -7.146   1.119  0.00  0.00    +0.076 C 
ENDROOT
BRANCH   1   2
ATOM      2  C   UNL     1      -0.121  -8.543   1.615  0.00  0.00    +0.003 A 
ATOM      3  C   UNL     1      -1.127  -9.389   1.282  0.00  0.00    +0.013 A 
ATOM      4  C   UNL     1      -1.175 -10.639   1.870  0.00  0.00    +0.023 A 
ATOM      5  C   UNL     1      -0.214 -10.981   2.765  0.00  0.00    +0.055 A 
ATOM      6  S   UNL     1       0.806  -9.516   2.790  0.00  0.00    -0.085 S 
ATOM      7 BR   UNL     1      -0.006 -12.594   3.729  0.00  0.00    -0.043 Br
ENDBRANCH   1   2
BRANCH   1   8
ATOM      8  C   UNL     1       1.517  -7.101   0.439  0.00  0.00    -0.060 C 
ATOM      9  C   UNL     1       1.755  -5.703  -0.136  0.00  0.00    -0.013 C 
BRANCH   8  10
ATOM     10  N   UNL     1       1.558  -8.090  -0.646  0.00  0.00    +0.381 N 
ATOM     11  H   UNL     1       0.839  -7.878  -1.322  0.00  0.00    -0.090 HD
ATOM     12  H   UNL     1       2.461  -8.060  -1.095  0.00  0.00    -0.090 HD
ATOM     13  H   UNL     1       1.401  -9.012  -0.267  0.00  0.00    -0.090 HD
ENDBRANCH   8  10
ENDBRANCH   1   8
BRANCH   1  14
ATOM     14  S   UNL     1       0.129  -5.992   2.519  0.00  0.00    -0.081 S 
BRANCH  14  23
ATOM     15  C   UNL     1      -6.764  -5.255   5.875  0.00  0.00    +0.044 C 
ATOM     16  C   UNL     1      -5.676  -5.668   4.917  0.00  0.00    -0.048 A 
ATOM     17  C   UNL     1      -5.982  -6.482   3.837  0.00  0.00    +0.005 A 
ATOM     18  C   UNL     1      -5.000  -6.868   2.953  0.00  0.00    +0.030 A 
ATOM     19  C   UNL     1      -3.685  -6.435   3.144  0.00  0.00    +0.090 A 
ATOM     20  C   UNL     1      -3.381  -5.610   4.239  0.00  0.00    +0.067 A 
ATOM     21  C   UNL     1      -4.384  -5.228   5.117  0.00  0.00    +0.031 A 
ATOM     22  N   UNL     1      -2.022  -5.352   4.163  0.00  0.00    -0.333 N 
ATOM     23  C   UNL     1      -1.548  -6.005   3.060  0.00  0.00    +0.168 A 
ATOM     24  N   UNL     1      -2.527  -6.640   2.463  0.00  0.00    -0.222 NA
ATOM     25  H   UNL     1      -1.504  -4.810   4.777  0.00  0.00    +0.168 HD
ENDBRANCH  14  23
ENDBRANCH   1  14
TORSDOF 5
