REMARK  Name = ZINC03426076
REMARK  7 active torsions:
REMARK  status: ('A' for Active; 'I' for Inactive)
REMARK    1  A    between atoms: C_1  and  C_2
REMARK    2  A    between atoms: C_2  and  N_3
REMARK    3  A    between atoms: C_7  and  C_9
REMARK    4  A    between atoms: C_9  and  O_10
REMARK    5  A    between atoms: O_10  and  C_11
REMARK    6  A    between atoms: C_11  and  C_13
REMARK    7  A    between atoms: C_17  and  C_23
REMARK                            x       y       z     vdW  Elec       q    Type
REMARK                         _______ _______ _______ _____ _____    ______ ____
ROOT
ATOM      1  O   UNL     1       2.321  -5.470  -4.003  0.00  0.00    -0.454 OA
ENDROOT
BRANCH   1   2
ATOM      2  C   UNL     1       2.918  -6.066  -5.048  0.00  0.00    +0.329 C 
ATOM      3  O   UNL     1       3.407  -5.396  -5.927  0.00  0.00    -0.249 OA
BRANCH   2   4
ATOM      4  C   UNL     1       2.977  -7.570  -5.125  0.00  0.00    +0.196 C 
ATOM      5  C   UNL     1       3.701  -8.095  -3.863  0.00  0.00    +0.105 C 
ATOM      6  S   UNL     1       5.328  -8.583  -4.596  0.00  0.00    -0.133 S 
ATOM      7  C   UNL     1       4.667  -8.975  -6.269  0.00  0.00    +0.082 C 
ATOM      8  N   UNL     1       3.607  -7.944  -6.395  0.00  0.00    -0.273 N 
ATOM      9  C   UNL     1       3.538  -7.587  -7.706  0.00  0.00    +0.217 C 
ATOM     10  O   UNL     1       2.619  -6.976  -8.210  0.00  0.00    -0.276 OA
ATOM     11  C   UNL     1       4.768  -8.058  -8.448  0.00  0.00    +0.099 C 
ATOM     12  C   UNL     1       5.696  -8.599  -7.348  0.00  0.00    +0.046 C 
ATOM     13  C   UNL     1       4.163 -10.414  -6.396  0.00  0.00    +0.044 C 
ENDBRANCH   2   4
ENDBRANCH   1   2
BRANCH   1  14
ATOM     14  C   UNL     1       2.302  -4.041  -3.995  0.00  0.00    +0.328 C 
BRANCH  14  19
ATOM     15  N   UNL     1       0.688  -0.476  -1.203  0.00  0.00    -0.299 N 
ATOM     16  C   UNL     1       0.827  -1.799  -1.425  0.00  0.00    +0.306 C 
ATOM     17  O   UNL     1       0.383  -2.599  -0.625  0.00  0.00    -0.252 OA
ATOM     18  N   UNL     1       1.458  -2.233  -2.534  0.00  0.00    -0.237 N 
ATOM     19  C   UNL     1       1.597  -3.555  -2.756  0.00  0.00    +0.258 C 
ATOM     20  O   UNL     1       1.154  -4.354  -1.958  0.00  0.00    -0.272 OA
ATOM     21  H   UNL     1       1.042   0.162  -1.842  0.00  0.00    +0.150 HD
ATOM     22  H   UNL     1       1.812  -1.595  -3.172  0.00  0.00    +0.159 HD
BRANCH  15  24
ATOM     23  C   UNL     1      -0.019   1.526   0.010  0.00  0.00    +0.024 C 
ATOM     24  C   UNL     1       0.002  -0.004   0.002  0.00  0.00    +0.102 C 
ENDBRANCH  15  24
ENDBRANCH  14  19
ENDBRANCH   1  14
TORSDOF 5
