REMARK  Name = ZINC32307905
REMARK  9 active torsions:
REMARK  status: ('A' for Active; 'I' for Inactive)
REMARK    1  A    between atoms: C_1  and  C_2
REMARK    2  A    between atoms: C_2  and  C_23
REMARK    3  A    between atoms: C_9  and  N_16
REMARK    4  A    between atoms: C_12  and  S_14
REMARK    5  A    between atoms: S_14  and  C_15
REMARK    6  A    between atoms: N_16  and  C_17
REMARK    7  A    between atoms: C_17  and  C_18
REMARK    8  A    between atoms: C_18  and  C_19
REMARK    9  A    between atoms: C_19  and  O_20
REMARK                            x       y       z     vdW  Elec       q    Type
REMARK                         _______ _______ _______ _____ _____    ______ ____
ROOT
ATOM      1  C   UNL     1      -0.019   1.526   0.010  0.00  0.00    +0.041 C 
ATOM      2  C   UNL     1       0.002  -0.004   0.002  0.00  0.00    +0.068 C 
ATOM      3  C   UNL     1      -1.436  -0.531  -0.008  0.00  0.00    +0.071 C 
ATOM      4  C   UNL     1      -2.062  -0.222   1.350  0.00  0.00    -0.024 A 
ATOM      5  C   UNL     1      -1.248   0.074   2.401  0.00  0.00    +0.021 A 
ATOM      6  S   UNL     1      -2.371   0.358   3.743  0.00  0.00    -0.075 S 
ATOM      7  C   UNL     1      -3.869   0.074   2.850  0.00  0.00    +0.078 A 
ATOM      8  C   UNL     1      -3.444  -0.227   1.581  0.00  0.00    +0.023 A 
ATOM      9  C   UNL     1      -4.490  -0.547   0.521  0.00  0.00    +0.208 C 
ATOM     10  N   UNL     1      -5.817  -0.195   1.006  0.00  0.00    -0.239 NA
ATOM     11  C   UNL     1      -6.135   0.094   2.224  0.00  0.00    +0.155 C 
ATOM     12  N   UNL     1      -5.194   0.122   3.242  0.00  0.00    -0.288 N 
ATOM     13  C   UNL     1       0.243   0.134   2.383  0.00  0.00    +0.203 C 
ATOM     14  O   UNL     1       0.694  -0.474   1.161  0.00  0.00    -0.368 OA
ATOM     15  C   UNL     1       0.726  -0.494  -1.254  0.00  0.00    +0.041 C 
ATOM     16  H   UNL     1      -5.450   0.173   4.176  0.00  0.00    +0.155 HD
ENDROOT
BRANCH  11  17
ATOM     17  S   UNL     1      -7.815   0.464   2.604  0.00  0.00    -0.094 S 
ATOM     18  C   UNL     1      -8.669   0.310   1.011  0.00  0.00    +0.093 C 
ENDBRANCH  11  17
BRANCH   9  19
ATOM     19  N   UNL     1      -4.200   0.220  -0.698  0.00  0.00    -0.291 NA
ATOM     20  H   UNL     1      -4.800   1.029  -0.767  0.00  0.00    +0.124 HD
BRANCH  19  21
ATOM     21  C   UNL     1      -4.316  -0.626  -1.893  0.00  0.00    +0.085 C 
BRANCH  21  22
ATOM     22  C   UNL     1      -4.007   0.207  -3.139  0.00  0.00    +0.043 C 
BRANCH  22  23
ATOM     23  C   UNL     1      -4.128  -0.674  -4.384  0.00  0.00    +0.157 C 
BRANCH  23  24
ATOM     24  O   UNL     1      -3.839   0.103  -5.547  0.00  0.00    -0.395 OA
ATOM     25  H   UNL     1      -3.897  -0.392  -6.376  0.00  0.00    +0.209 HD
ENDBRANCH  23  24
ENDBRANCH  22  23
ENDBRANCH  21  22
ENDBRANCH  19  21
ENDBRANCH   9  19
TORSDOF 6
