REMARK  Name = ZINC65360421
REMARK  11 active torsions:
REMARK  status: ('A' for Active; 'I' for Inactive)
REMARK    1  A    between atoms: C_1  and  C_2
REMARK    2  A    between atoms: N_5  and  C_8
REMARK    3  A    between atoms: C_8  and  C_9
REMARK    4  A    between atoms: C_8  and  C_10
REMARK    5  A    between atoms: C_10  and  N_11
REMARK    6  A    between atoms: N_14  and  C_15
REMARK    7  A    between atoms: C_18  and  C_21
REMARK    8  A    between atoms: N_23  and  C_24
REMARK    9  A    between atoms: C_24  and  C_25
REMARK   10  A    between atoms: C_24  and  C_26
REMARK   11  A    between atoms: C_24  and  C_27
REMARK                            x       y       z     vdW  Elec       q    Type
REMARK                         _______ _______ _______ _____ _____    ______ ____
ROOT
ATOM      1  N   UNL     1       1.950  -3.929   2.404  0.00  0.00    -0.301 N 
ATOM      2  C   UNL     1       2.595  -4.115   3.573  0.00  0.00    +0.304 C 
ATOM      3  O   UNL     1       3.691  -4.641   3.585  0.00  0.00    -0.253 OA
ATOM      4  N   UNL     1       2.024  -3.719   4.728  0.00  0.00    -0.269 N 
ATOM      5  H   UNL     1       1.075  -3.510   2.394  0.00  0.00    +0.150 HD
ATOM      6  H   UNL     1       1.183  -3.236   4.713  0.00  0.00    +0.156 HD
ENDROOT
BRANCH   4   7
ATOM      7  C   UNL     1       2.644  -4.002   5.944  0.00  0.00    +0.035 A 
ATOM      8  C   UNL     1       4.032  -3.978   6.039  0.00  0.00    +0.024 A 
ATOM      9  C   UNL     1       4.646  -4.256   7.239  0.00  0.00    +0.015 A 
ATOM     10  C   UNL     1       3.875  -4.564   8.363  0.00  0.00    +0.037 A 
ATOM     11  C   UNL     1       2.481  -4.587   8.264  0.00  0.00    +0.015 A 
ATOM     12  C   UNL     1       1.872  -4.302   7.063  0.00  0.00    +0.024 A 
BRANCH  10  13
ATOM     13  C   UNL     1       4.530  -4.864   9.650  0.00  0.00    +0.244 C 
ATOM     14  O   UNL     1       5.743  -4.844   9.734  0.00  0.00    -0.270 OA
ATOM     15  N   UNL     1       3.785  -5.160  10.733  0.00  0.00    -0.307 N 
ATOM     16  H   UNL     1       2.817  -5.176  10.666  0.00  0.00    +0.150 HD
BRANCH  15  17
ATOM     17  C   UNL     1       4.435  -5.458  12.011  0.00  0.00    +0.026 C 
ATOM     18  C   UNL     1       5.267  -4.253  12.454  0.00  0.00    +0.031 C 
ATOM     19  C   UNL     1       3.370  -5.759  13.068  0.00  0.00    +0.031 C 
ATOM     20  C   UNL     1       5.349  -6.675  11.847  0.00  0.00    +0.031 C 
ENDBRANCH  15  17
ENDBRANCH  10  13
ENDBRANCH   4   7
BRANCH   1  21
ATOM     21  C   UNL     1       2.570  -4.360   1.149  0.00  0.00    +0.090 C 
BRANCH  21  22
ATOM     22  C   UNL     1       1.697  -3.921  -0.029  0.00  0.00    -0.054 C 
ATOM     23  C   UNL     1       2.400  -4.268  -1.342  0.00  0.00    -0.012 C 
BRANCH  22  28
ATOM     24  C   UNL     1       1.304   1.711  -0.837  0.00  0.00    +0.007 C 
ATOM     25  C   UNL     1       1.585   0.219  -1.031  0.00  0.00    -0.018 C 
ATOM     26  C   UNL     1       2.547  -0.266   0.057  0.00  0.00    -0.016 C 
ATOM     27  C   UNL     1       2.761  -1.774  -0.095  0.00  0.00    -0.078 C 
ATOM     28  N   UNL     1       1.476  -2.470   0.040  0.00  0.00    +0.382 N 
ATOM     29  C   UNL     1       0.572  -2.063  -1.043  0.00  0.00    -0.078 C 
ATOM     30  C   UNL     1       0.274  -0.566  -0.927  0.00  0.00    -0.016 C 
ATOM     31  H   UNL     1       1.060  -2.237   0.929  0.00  0.00    -0.081 HD
ENDBRANCH  22  28
ENDBRANCH  21  22
ENDBRANCH   1  21
TORSDOF 6
