REMARK  Name = ZINC49799258
REMARK  11 active torsions:
REMARK  status: ('A' for Active; 'I' for Inactive)
REMARK    1  A    between atoms: C_1  and  C_2
REMARK    2  A    between atoms: C_2  and  C_3
REMARK    3  A    between atoms: C_6  and  C_9
REMARK    4  A    between atoms: C_9  and  C_11
REMARK    5  A    between atoms: C_9  and  N_27
REMARK    6  A    between atoms: C_11  and  N_12
REMARK    7  A    between atoms: N_15  and  N_16
REMARK    8  A    between atoms: N_19  and  C_20
REMARK    9  A    between atoms: C_25  and  C_26
REMARK   10  A    between atoms: N_27  and  C_28
REMARK   11  A    between atoms: N_27  and  C_29
REMARK                            x       y       z     vdW  Elec       q    Type
REMARK                         _______ _______ _______ _____ _____    ______ ____
ROOT
ATOM      1  N   UNL     1      -7.576  -1.477  -0.671  0.00  0.00    -0.299 N 
ATOM      2  C   UNL     1      -8.582  -0.680  -1.084  0.00  0.00    +0.316 C 
ATOM      3  O   UNL     1      -8.396   0.514  -1.217  0.00  0.00    -0.251 OA
ATOM      4  N   UNL     1      -9.793  -1.207  -1.349  0.00  0.00    -0.217 N 
ATOM      5  H   UNL     1      -7.724  -2.429  -0.565  0.00  0.00    +0.150 HD
ATOM      6  H   UNL     1     -10.517  -0.633  -1.646  0.00  0.00    +0.174 HD
ENDROOT
BRANCH   4   7
ATOM      7  N   UNL     1     -10.008  -2.583  -1.196  0.00  0.00    -0.217 N 
ATOM      8  C   UNL     1     -11.219  -3.110  -1.461  0.00  0.00    +0.320 C 
ATOM      9  O   UNL     1     -11.405  -4.304  -1.329  0.00  0.00    -0.251 OA
ATOM     10  N   UNL     1     -12.225  -2.313  -1.874  0.00  0.00    -0.268 N 
ATOM     11  H   UNL     1      -9.284  -3.156  -0.899  0.00  0.00    +0.174 HD
ATOM     12  H   UNL     1     -12.100  -1.351  -1.905  0.00  0.00    +0.156 HD
BRANCH  10  13
ATOM     13  C   UNL     1     -13.449  -2.873  -2.258  0.00  0.00    +0.038 A 
ATOM     14  C   UNL     1     -13.504  -4.188  -2.701  0.00  0.00    +0.023 A 
ATOM     15  C   UNL     1     -14.713  -4.738  -3.079  0.00  0.00    +0.002 A 
ATOM     16  C   UNL     1     -15.868  -3.979  -3.018  0.00  0.00    +0.000 A 
ATOM     17  C   UNL     1     -15.816  -2.670  -2.578  0.00  0.00    +0.005 A 
ATOM     18  C   UNL     1     -14.611  -2.116  -2.192  0.00  0.00    -0.029 A 
ATOM     19  C   UNL     1     -14.557  -0.691  -1.706  0.00  0.00    +0.045 C 
ENDBRANCH  10  13
ENDBRANCH   4   7
BRANCH   1  20
ATOM     20  C   UNL     1      -6.259  -0.904  -0.382  0.00  0.00    +0.095 C 
BRANCH  20  21
ATOM     21  C   UNL     1      -5.274  -2.028  -0.055  0.00  0.00    -0.021 C 
BRANCH  21  25
ATOM     22  C   UNL     1      -6.465  -3.958   3.565  0.00  0.00    -0.048 A 
ATOM     23  C   UNL     1      -6.769  -4.531   2.344  0.00  0.00    +0.004 A 
ATOM     24  C   UNL     1      -6.384  -3.906   1.172  0.00  0.00    +0.002 A 
ATOM     25  C   UNL     1      -5.695  -2.709   1.222  0.00  0.00    -0.059 A 
ATOM     26  C   UNL     1      -5.392  -2.136   2.443  0.00  0.00    +0.002 A 
ATOM     27  C   UNL     1      -5.781  -2.758   3.614  0.00  0.00    +0.004 A 
BRANCH  22  29
ATOM     28  C   UNL     1      -8.280  -4.155   5.243  0.00  0.00    +0.009 C 
ATOM     29  C   UNL     1      -6.886  -4.639   4.842  0.00  0.00    +0.032 C 
ENDBRANCH  22  29
ENDBRANCH  21  25
BRANCH  21  30
ATOM     30  N   UNL     1      -3.927  -1.467   0.110  0.00  0.00    +0.382 N 
ATOM     31  C   UNL     1      -2.965  -2.556   0.325  0.00  0.00    -0.096 C 
ATOM     32  C   UNL     1      -3.557  -0.718  -1.098  0.00  0.00    -0.096 C 
ATOM     33  H   UNL     1      -3.916  -0.847   0.906  0.00  0.00    -0.082 HD
ENDBRANCH  21  30
ENDBRANCH  20  21
ENDBRANCH   1  20
TORSDOF 7
