REMARK  Name = ZINC66240533
REMARK  8 active torsions:
REMARK  status: ('A' for Active; 'I' for Inactive)
REMARK    1  A    between atoms: C_1  and  C_2
REMARK    2  A    between atoms: C_4  and  C_30
REMARK    3  A    between atoms: N_5  and  C_7
REMARK    4  A    between atoms: C_11  and  N_13
REMARK    5  A    between atoms: C_14  and  C_16
REMARK    6  A    between atoms: C_19  and  N_22
REMARK    7  A    between atoms: C_23  and  N_29
REMARK    8  A    between atoms: C_24  and  C_27
REMARK                            x       y       z     vdW  Elec       q    Type
REMARK                         _______ _______ _______ _____ _____    ______ ____
ROOT
ATOM      1  N   UNL     1       1.679  -4.454   4.476  0.00  0.00    -0.281 N 
ATOM      2  C   UNL     1       1.847  -5.625   5.122  0.00  0.00    +0.248 C 
ATOM      3  O   UNL     1       1.240  -6.614   4.757  0.00  0.00    -0.270 OA
ATOM      4  H   UNL     1       2.109  -3.651   4.809  0.00  0.00    +0.155 HD
ENDROOT
BRANCH   1   9
ATOM      5  C   UNL     1      -1.034  -5.136   2.084  0.00  0.00    +0.067 A 
ATOM      6  C   UNL     1      -0.687  -4.279   1.047  0.00  0.00    +0.028 A 
ATOM      7  C   UNL     1       0.440  -3.486   1.151  0.00  0.00    +0.004 A 
ATOM      8  C   UNL     1       1.225  -3.543   2.287  0.00  0.00    +0.023 A 
ATOM      9  C   UNL     1       0.883  -4.397   3.328  0.00  0.00    +0.036 A 
ATOM     10  C   UNL     1      -0.251  -5.191   3.227  0.00  0.00    +0.051 A 
BRANCH   5  15
ATOM     11  C   UNL     1      -5.242  -7.481   3.265  0.00  0.00    +0.067 C 
ATOM     12  C   UNL     1      -4.039  -6.973   2.513  0.00  0.00    +0.061 A 
ATOM     13  C   UNL     1      -3.716  -7.274   1.185  0.00  0.00    +0.047 A 
ATOM     14  C   UNL     1      -2.567  -6.627   0.879  0.00  0.00    +0.042 A 
ATOM     15  N   UNL     1      -2.177  -5.940   1.977  0.00  0.00    -0.237 N 
ATOM     16  N   UNL     1      -3.121  -6.169   2.986  0.00  0.00    -0.171 NA
ATOM     17  C   UNL     1      -1.851  -6.666  -0.446  0.00  0.00    +0.066 C 
ENDBRANCH   5  15
ENDBRANCH   1   9
BRANCH   2  18
ATOM     18  C   UNL     1       2.768  -5.708   6.273  0.00  0.00    +0.037 A 
ATOM     19  C   UNL     1       3.462  -4.572   6.698  0.00  0.00    +0.015 A 
ATOM     20  C   UNL     1       4.320  -4.653   7.771  0.00  0.00    +0.028 A 
ATOM     21  C   UNL     1       4.497  -5.864   8.433  0.00  0.00    +0.067 A 
ATOM     22  C   UNL     1       3.808  -6.996   8.013  0.00  0.00    +0.028 A 
ATOM     23  C   UNL     1       2.943  -6.921   6.944  0.00  0.00    +0.015 A 
BRANCH  21  24
ATOM     24  N   UNL     1       5.369  -5.942   9.521  0.00  0.00    -0.218 N 
ATOM     25  C   UNL     1       5.202  -6.723  10.620  0.00  0.00    +0.137 A 
ATOM     26  C   UNL     1       6.296  -6.497  11.451  0.00  0.00    +0.111 A 
ATOM     27  C   UNL     1       7.120  -5.548  10.801  0.00  0.00    +0.155 A 
ATOM     28  N   UNL     1       6.568  -5.234   9.664  0.00  0.00    -0.172 NA
BRANCH  25  29
ATOM     29  N   UNL     1       4.147  -7.580  10.866  0.00  0.00    -0.342 N 
ATOM     30  H   UNL     1       3.430  -7.665  10.219  0.00  0.00    +0.144 HD
ATOM     31  H   UNL     1       4.123  -8.096  11.687  0.00  0.00    +0.144 HD
ENDBRANCH  25  29
BRANCH  26  32
ATOM     32  C   UNL     1       6.540  -7.107  12.723  0.00  0.00    +0.104 C 
ATOM     33  N   UNL     1       6.734  -7.592  13.732  0.00  0.00    -0.191 NA
ENDBRANCH  26  32
ENDBRANCH  21  24
ENDBRANCH   2  18
TORSDOF 6
