REMARK  Name = ZINC02355320
REMARK  9 active torsions:
REMARK  status: ('A' for Active; 'I' for Inactive)
REMARK    1  A    between atoms: C_1  and  C_2
REMARK    2  A    between atoms: C_4  and  C_39
REMARK    3  A    between atoms: C_6  and  N_8
REMARK    4  A    between atoms: C_9  and  N_38
REMARK    5  A    between atoms: C_10  and  C_21
REMARK    6  A    between atoms: N_23  and  C_24
REMARK    7  A    between atoms: C_25  and  C_37
REMARK    8  A    between atoms: N_26  and  C_36
REMARK    9  A    between atoms: N_27  and  C_30
REMARK                            x       y       z     vdW  Elec       q    Type
REMARK                         _______ _______ _______ _____ _____    ______ ____
ROOT
ATOM      1  N   UNL     1       0.593  -3.176   2.634  0.00  0.00    -0.280 N 
ATOM      2  C   UNL     1      -0.425  -3.998   3.014  0.00  0.00    +0.117 A 
ATOM      3  C   UNL     1      -0.289  -4.353   4.351  0.00  0.00    +0.102 A 
ATOM      4  C   UNL     1       0.929  -3.686   4.839  0.00  0.00    +0.099 A 
ATOM      5  C   UNL     1       1.456  -2.947   3.688  0.00  0.00    +0.164 A 
ATOM      6  N   UNL     1       2.561  -2.246   3.820  0.00  0.00    -0.226 NA
ATOM      7  C   UNL     1       3.194  -2.214   5.000  0.00  0.00    +0.089 A 
ATOM      8  C   UNL     1       4.377  -1.466   5.150  0.00  0.00    +0.030 A 
ATOM      9  C   UNL     1       5.013  -1.439   6.353  0.00  0.00    +0.002 A 
ATOM     10  C   UNL     1       4.511  -2.145   7.445  0.00  0.00    +0.002 A 
ATOM     11  C   UNL     1       3.371  -2.879   7.339  0.00  0.00    +0.028 A 
ATOM     12  C   UNL     1       2.685  -2.931   6.111  0.00  0.00    +0.065 A 
ATOM     13  N   UNL     1       1.558  -3.644   5.997  0.00  0.00    -0.350 N 
ATOM     14  H   UNL     1       1.211  -4.135   6.759  0.00  0.00    +0.166 HD
ENDROOT
BRANCH   1  20
ATOM     15  C   UNL     1       0.717   0.745  -0.333  0.00  0.00    +0.044 C 
ATOM     16  C   UNL     1       0.811  -0.744  -0.118  0.00  0.00    -0.048 A 
ATOM     17  C   UNL     1       1.050  -1.583  -1.191  0.00  0.00    +0.006 A 
ATOM     18  C   UNL     1       1.137  -2.949  -0.998  0.00  0.00    -0.048 A 
ATOM     19  C   UNL     1       0.986  -3.480   0.269  0.00  0.00    +0.029 A 
ATOM     20  C   UNL     1       0.747  -2.640   1.348  0.00  0.00    +0.050 A 
ATOM     21  C   UNL     1       0.665  -1.268   1.151  0.00  0.00    +0.029 A 
ATOM     22  C   UNL     1       1.396  -3.860  -2.170  0.00  0.00    +0.044 C 
ENDBRANCH   1  20
BRANCH   3  23
ATOM     23  C   UNL     1      -1.179  -5.219   5.121  0.00  0.00    +0.254 C 
ATOM     24  O   UNL     1      -0.977  -6.420   5.161  0.00  0.00    -0.270 OA
ATOM     25  N   UNL     1      -2.225  -4.690   5.787  0.00  0.00    -0.276 N 
ATOM     26  H   UNL     1      -2.344  -3.727   5.816  0.00  0.00    +0.155 HD
BRANCH  25  27
ATOM     27  C   UNL     1      -3.144  -5.534   6.441  0.00  0.00    +0.121 A 
ATOM     28  C   UNL     1      -3.460  -5.510   7.755  0.00  0.00    +0.059 A 
ATOM     29  N   UNL     1      -4.392  -6.485   7.999  0.00  0.00    -0.282 N 
ATOM     30  N   UNL     1      -4.681  -7.152   6.803  0.00  0.00    -0.216 N 
ATOM     31  C   UNL     1      -3.940  -6.595   5.823  0.00  0.00    +0.293 A 
ATOM     32  O   UNL     1      -3.933  -6.916   4.648  0.00  0.00    -0.264 OA
ATOM     33  C   UNL     1      -4.990  -6.781   9.303  0.00  0.00    +0.171 C 
ATOM     34  C   UNL     1      -2.883  -4.569   8.781  0.00  0.00    +0.067 C 
BRANCH  30  35
ATOM     35  C   UNL     1      -5.584  -8.209   6.650  0.00  0.00    +0.067 A 
ATOM     36  C   UNL     1      -5.195  -9.366   5.988  0.00  0.00    +0.028 A 
ATOM     37  C   UNL     1      -6.090 -10.408   5.839  0.00  0.00    +0.002 A 
ATOM     38  C   UNL     1      -7.370 -10.300   6.348  0.00  0.00    +0.000 A 
ATOM     39  C   UNL     1      -7.761  -9.149   7.008  0.00  0.00    +0.002 A 
ATOM     40  C   UNL     1      -6.870  -8.106   7.165  0.00  0.00    +0.028 A 
ENDBRANCH  30  35
ENDBRANCH  25  27
ENDBRANCH   3  23
BRANCH   2  41
ATOM     41  N   UNL     1      -1.441  -4.417   2.193  0.00  0.00    -0.343 N 
ATOM     42  H   UNL     1      -1.468  -4.125   1.269  0.00  0.00    +0.144 HD
ATOM     43  H   UNL     1      -2.132  -5.004   2.538  0.00  0.00    +0.144 HD
ENDBRANCH   2  41
TORSDOF 5
