REMARK  Name = ZINC08899154
REMARK  9 active torsions:
REMARK  status: ('A' for Active; 'I' for Inactive)
REMARK    1  A    between atoms: C_1  and  O_2
REMARK    2  A    between atoms: O_2  and  C_3
REMARK    3  A    between atoms: C_8  and  O_9
REMARK    4  A    between atoms: O_9  and  C_10
REMARK    5  A    between atoms: C_11  and  C_27
REMARK    6  A    between atoms: C_15  and  C_16
REMARK    7  A    between atoms: C_15  and  N_57
REMARK    8  A    between atoms: N_18  and  C_19
REMARK    9  A    between atoms: C_20  and  C_24
REMARK                            x       y       z     vdW  Elec       q    Type
REMARK                         _______ _______ _______ _____ _____    ______ ____
ROOT
ATOM      1  C   UNL     1      -0.511  -1.388   4.021  0.00  0.00    +0.162 A 
ATOM      2  C   UNL     1      -1.179  -2.021   2.987  0.00  0.00    +0.053 A 
ATOM      3  C   UNL     1      -1.024  -1.583   1.680  0.00  0.00    -0.044 A 
ATOM      4  C   UNL     1      -0.200  -0.512   1.406  0.00  0.00    -0.050 A 
ATOM      5  C   UNL     1       0.470   0.127   2.439  0.00  0.00    +0.052 A 
ATOM      6  C   UNL     1       0.319  -0.306   3.745  0.00  0.00    +0.162 A 
ATOM      7  C   UNL     1       0.002  -0.004   0.002  0.00  0.00    -0.006 C 
ATOM      8  C   UNL     1      -1.171  -1.961  -0.773  0.00  0.00    -0.072 C 
ATOM      9  C   UNL     1      -1.774  -2.303   0.589  0.00  0.00    +0.017 C 
ATOM     10  N   UNL     1      -1.080  -0.489  -0.870  0.00  0.00    +0.393 N 
ATOM     11  H   UNL     1      -1.969  -0.077  -0.563  0.00  0.00    -0.080 HD
ENDROOT
BRANCH   7  12
ATOM     12  C   UNL     1      -0.018   1.503   0.010  0.00  0.00    -0.057 A 
ATOM     13  C   UNL     1      -1.225   2.178   0.020  0.00  0.00    +0.002 A 
ATOM     14  C   UNL     1      -1.244   3.560   0.032  0.00  0.00    +0.000 A 
ATOM     15  C   UNL     1      -0.056   4.267   0.025  0.00  0.00    +0.000 A 
ATOM     16  C   UNL     1       1.151   3.592   0.010  0.00  0.00    +0.000 A 
ATOM     17  C   UNL     1       1.169   2.210   0.003  0.00  0.00    +0.002 A 
ENDBRANCH   7  12
BRANCH   1  19
ATOM     18  C   UNL     1      -1.534  -2.938   5.507  0.00  0.00    +0.277 C 
ATOM     19  O   UNL     1      -0.666  -1.821   5.301  0.00  0.00    -0.491 OA
ENDBRANCH   1  19
BRANCH   6  20
ATOM     20  O   UNL     1       0.978   0.324   4.754  0.00  0.00    -0.491 OA
ATOM     21  C   UNL     1       1.812   1.427   4.394  0.00  0.00    +0.277 C 
ENDBRANCH   6  20
BRANCH  10  22
ATOM     22  C   UNL     1      -0.822  -0.088  -2.271  0.00  0.00    +0.020 C 
BRANCH  22  23
ATOM     23  C   UNL     1      -2.042  -0.395  -3.101  0.00  0.00    +0.201 C 
ATOM     24  O   UNL     1      -3.014  -0.905  -2.585  0.00  0.00    -0.278 OA
ATOM     25  N   UNL     1      -2.053  -0.103  -4.416  0.00  0.00    -0.281 N 
ATOM     26  H   UNL     1      -1.275   0.304  -4.829  0.00  0.00    +0.155 HD
BRANCH  25  27
ATOM     27  C   UNL     1      -3.175  -0.386  -5.180  0.00  0.00    +0.084 A 
ATOM     28  C   UNL     1      -3.375  -0.162  -6.537  0.00  0.00    +0.065 A 
ATOM     29  C   UNL     1      -4.653  -0.557  -7.079  0.00  0.00    +0.022 A 
ATOM     30  C   UNL     1      -5.537  -1.107  -6.228  0.00  0.00    +0.048 A 
ATOM     31  S   UNL     1      -4.664  -1.111  -4.676  0.00  0.00    -0.081 S 
BRANCH  28  32
ATOM     32  C   UNL     1      -2.338   0.447  -7.377  0.00  0.00    +0.244 C 
ATOM     33  O   UNL     1      -1.271   0.769  -6.889  0.00  0.00    -0.270 OA
ATOM     34  N   UNL     1      -2.567   0.650  -8.689  0.00  0.00    -0.325 N 
ATOM     35  H   UNL     1      -3.418   0.393  -9.079  0.00  0.00    +0.145 HD
ATOM     36  H   UNL     1      -1.882   1.052  -9.245  0.00  0.00    +0.145 HD
ENDBRANCH  28  32
ENDBRANCH  25  27
ENDBRANCH  22  23
ENDBRANCH  10  22
TORSDOF 7
