REMARK  Name = ZINC09421180
REMARK  5 active torsions:
REMARK  status: ('A' for Active; 'I' for Inactive)
REMARK    1  A    between atoms: C_2  and  C_7
REMARK    2  A    between atoms: C_7  and  C_8
REMARK    3  A    between atoms: C_8  and  N_9
REMARK    4  A    between atoms: C_10  and  C_12
REMARK    5  A    between atoms: C_12  and  N_13
REMARK                            x       y       z     vdW  Elec       q    Type
REMARK                         _______ _______ _______ _____ _____    ______ ____
ROOT
ATOM      1  C   UNL     1       2.863   7.203   2.613  0.00  0.00    +0.198 C 
ENDROOT
BRANCH   1   2
ATOM      2  N   UNL     1       2.916   7.697   3.991  0.00  0.00    -0.319 N 
ATOM      3  C   UNL     1       3.327   8.994   4.247  0.00  0.00    +0.152 A 
ATOM      4  C   UNL     1       3.389   9.482   5.563  0.00  0.00    +0.147 A 
ATOM      5  C   UNL     1       3.814  10.807   5.760  0.00  0.00    +0.164 A 
ATOM      6  N   UNL     1       3.781  11.017   7.115  0.00  0.00    -0.329 N 
ATOM      7  H   UNL     1       4.018  11.838   7.574  0.00  0.00    +0.168 HD
ATOM      8  C   UNL     1       3.353   9.861   7.698  0.00  0.00    +0.198 A 
ATOM      9  N   UNL     1       3.124   8.962   6.785  0.00  0.00    -0.231 NA
ATOM     10  N   UNL     1       4.138  11.545   4.703  0.00  0.00    -0.198 NA
ATOM     11  C   UNL     1       4.064  11.046   3.486  0.00  0.00    +0.226 A 
ATOM     12  N   UNL     1       3.677   9.803   3.253  0.00  0.00    -0.200 NA
ATOM     13 CL   UNL     1       4.499  12.053   2.141  0.00  0.00    -0.041 Cl
ATOM     14  H   UNL     1       2.663   7.115   4.725  0.00  0.00    +0.148 HD
ENDBRANCH   1   2
BRANCH   1  16
ATOM     15  N   UNL     1       2.260   5.108   1.445  0.00  0.00    -0.314 N 
ATOM     16  C   UNL     1       2.388   5.773   2.610  0.00  0.00    +0.230 C 
ATOM     17  O   UNL     1       2.119   5.221   3.656  0.00  0.00    -0.274 OA
ATOM     18  H   UNL     1       2.475   5.549   0.608  0.00  0.00    +0.149 HD
BRANCH  15  19
ATOM     19  C   UNL     1       1.798   3.718   1.442  0.00  0.00    +0.110 C 
BRANCH  19  20
ATOM     20  C   UNL     1       1.743   3.202   0.003  0.00  0.00    +0.073 C 
BRANCH  20  22
ATOM     21  C   UNL     1      -0.017   1.365   0.009  0.00  0.00    +0.105 A 
ATOM     22  C   UNL     1       1.267   1.772  -0.001  0.00  0.00    +0.035 A 
ATOM     23  N   UNL     1       2.048   0.681  -0.014  0.00  0.00    -0.350 N 
ATOM     24  C   UNL     1       1.297  -0.386  -0.012  0.00  0.00    +0.171 A 
ATOM     25  N   UNL     1       0.002  -0.004   0.002  0.00  0.00    -0.352 N 
ATOM     26  H   UNL     1      -0.771  -0.590   0.006  0.00  0.00    +0.166 HD
ATOM     27  H   UNL     1       3.018   0.686  -0.023  0.00  0.00    +0.166 HD
ENDBRANCH  20  22
ENDBRANCH  19  20
ENDBRANCH  15  19
ENDBRANCH   1  16
TORSDOF 5
