REMARK  Name = ZINC09454957
REMARK  9 active torsions:
REMARK  status: ('A' for Active; 'I' for Inactive)
REMARK    1  A    between atoms: C_1  and  C_2
REMARK    2  A    between atoms: C_2  and  C_3
REMARK    3  A    between atoms: C_2  and  C_4
REMARK    4  A    between atoms: C_7  and  C_10
REMARK    5  A    between atoms: C_10  and  C_12
REMARK    6  A    between atoms: C_10  and  N_61
REMARK    7  A    between atoms: C_17  and  C_18
REMARK    8  A    between atoms: C_17  and  N_61
REMARK    9  A    between atoms: N_20  and  N_21
REMARK                            x       y       z     vdW  Elec       q    Type
REMARK                         _______ _______ _______ _____ _____    ______ ____
ROOT
ATOM      1  C   UNL     1      -2.482   0.853   0.018  0.00  0.00    +0.018 C 
ENDROOT
BRANCH   1   2
ATOM      2  C   UNL     1      -1.187   1.624   0.017  0.00  0.00    +0.213 C 
ATOM      3  O   UNL     1      -1.204   2.837   0.023  0.00  0.00    -0.276 OA
ATOM      4  N   UNL     1      -0.011   0.966   0.007  0.00  0.00    -0.225 N 
ATOM      5  H   UNL     1       0.002  -0.004   0.002  0.00  0.00    +0.173 HD
BRANCH   4   6
ATOM      6  N   UNL     1       1.193   1.683  -0.000  0.00  0.00    -0.137 N 
ATOM      7  C   UNL     1       2.002   1.817   1.071  0.00  0.00    +0.263 C 
ATOM      8  O   UNL     1       1.834   1.358   2.180  0.00  0.00    -0.271 OA
ATOM      9  C   UNL     1       3.163   2.660   0.596  0.00  0.00    +0.114 C 
ATOM     10  C   UNL     1       4.469   1.881   0.716  0.00  0.00    +0.035 C 
ATOM     11  C   UNL     1       5.628   2.741   0.204  0.00  0.00    +0.003 C 
ATOM     12  C   UNL     1       5.706   4.030   1.025  0.00  0.00    +0.000 C 
ATOM     13  C   UNL     1       4.399   4.811   0.874  0.00  0.00    +0.003 C 
ATOM     14  C   UNL     1       3.235   3.960   1.389  0.00  0.00    +0.035 C 
ATOM     15  N   UNL     1       2.854   2.932  -0.814  0.00  0.00    -0.284 N 
ATOM     16  C   UNL     1       1.685   2.315  -1.073  0.00  0.00    +0.326 C 
ATOM     17  O   UNL     1       1.137   2.333  -2.157  0.00  0.00    -0.251 OA
ATOM     18  H   UNL     1       3.388   3.450  -1.436  0.00  0.00    +0.151 HD
ENDBRANCH   4   6
ENDBRANCH   1   2
BRANCH   1  19
ATOM     19  N   UNL     1      -3.610   1.803   0.029  0.00  0.00    +0.392 N 
ATOM     20  H   UNL     1      -3.552   2.388   0.870  0.00  0.00    -0.084 HD
ATOM     21  H   UNL     1      -3.560   2.397  -0.806  0.00  0.00    -0.084 HD
BRANCH  19  22
ATOM     22  C   UNL     1      -4.893   1.074   0.031  0.00  0.00    -0.003 C 
BRANCH  22  26
ATOM     23  C   UNL     1      -7.927   3.572  -1.642  0.00  0.00    -0.045 A 
ATOM     24  C   UNL     1      -7.899   2.223  -1.943  0.00  0.00    +0.004 A 
ATOM     25  C   UNL     1      -6.917   1.415  -1.402  0.00  0.00    +0.002 A 
ATOM     26  C   UNL     1      -5.963   1.956  -0.559  0.00  0.00    -0.057 A 
ATOM     27  C   UNL     1      -5.995   3.303  -0.255  0.00  0.00    +0.002 A 
ATOM     28  C   UNL     1      -6.974   4.113  -0.800  0.00  0.00    +0.004 A 
BRANCH  23  30
ATOM     29  C   UNL     1      -9.816   5.086  -1.105  0.00  0.00    +0.012 C 
ATOM     30  C   UNL     1      -8.998   4.453  -2.232  0.00  0.00    +0.013 C 
ATOM     31  C   UNL     1      -8.347   5.555  -3.071  0.00  0.00    +0.012 C 
ENDBRANCH  23  30
ENDBRANCH  22  26
BRANCH  22  32
ATOM     32  C   UNL     1      -5.264   0.713   1.446  0.00  0.00    -0.020 A 
ATOM     33  C   UNL     1      -5.827  -0.427   1.917  0.00  0.00    +0.010 A 
ATOM     34  C   UNL     1      -6.078  -0.541   3.271  0.00  0.00    +0.008 A 
ATOM     35  C   UNL     1      -5.764   0.495   4.088  0.00  0.00    +0.045 A 
ATOM     36  S   UNL     1      -5.084   1.679   2.937  0.00  0.00    -0.103 S 
ENDBRANCH  22  32
ENDBRANCH  19  22
ENDBRANCH   1  19
TORSDOF 7
