REMARK  Name = ZINC34760249
REMARK  10 active torsions:
REMARK  status: ('A' for Active; 'I' for Inactive)
REMARK    1  A    between atoms: C_1  and  C_2
REMARK    2  A    between atoms: C_5  and  N_8
REMARK    3  A    between atoms: C_9  and  C_11
REMARK    4  A    between atoms: C_11  and  S_12
REMARK    5  A    between atoms: S_12  and  C_13
REMARK    6  A    between atoms: C_17  and  C_23
REMARK    7  A    between atoms: C_18  and  C_22
REMARK    8  A    between atoms: N_27  and  C_30
REMARK    9  A    between atoms: C_30  and  C_31
REMARK   10  A    between atoms: C_31  and  C_33
REMARK                            x       y       z     vdW  Elec       q    Type
REMARK                         _______ _______ _______ _____ _____    ______ ____
ROOT
ATOM      1  C   UNL     1       0.590  -8.695   2.644  0.00  0.00    +0.191 A 
ATOM      2  N   UNL     1       0.704  -9.457   3.725  0.00  0.00    -0.206 NA
ATOM      3  C   UNL     1       0.814 -10.773   3.649  0.00  0.00    +0.134 A 
ATOM      4  C   UNL     1       0.811 -11.400   2.372  0.00  0.00    +0.051 A 
ATOM      5  C   UNL     1       0.917 -12.808   2.030  0.00  0.00    -0.028 A 
ATOM      6  C   UNL     1       0.890 -13.172   0.740  0.00  0.00    -0.008 A 
ATOM      7  S   UNL     1       0.718 -11.624  -0.127  0.00  0.00    -0.073 S 
ATOM      8  C   UNL     1       0.686 -10.529   1.268  0.00  0.00    +0.115 A 
ATOM      9  N   UNL     1       0.576  -9.225   1.428  0.00  0.00    -0.214 NA
ATOM     10  C   UNL     1       0.984 -14.560   0.160  0.00  0.00    +0.052 C 
ATOM     11  C   UNL     1       1.056 -13.847   3.112  0.00  0.00    +0.045 C 
ATOM     12  N   UNL     1       0.932 -11.531   4.799  0.00  0.00    -0.318 N 
ATOM     13  C   UNL     1       2.240 -11.736   5.440  0.00  0.00    +0.088 C 
ATOM     14  C   UNL     1       2.110 -11.401   6.929  0.00  0.00    -0.059 C 
ATOM     15  N   UNL     1       1.018 -12.190   7.514  0.00  0.00    +0.384 N 
ATOM     16  C   UNL     1      -0.261 -11.801   6.908  0.00  0.00    -0.059 C 
ATOM     17  C   UNL     1      -0.249 -12.152   5.420  0.00  0.00    +0.088 C 
ATOM     18  H   UNL     1       1.185 -13.171   7.343  0.00  0.00    -0.081 HD
ENDROOT
BRANCH   1  19
ATOM     19  S   UNL     1       0.447  -6.949   2.828  0.00  0.00    -0.077 S 
BRANCH  19  20
ATOM     20  C   UNL     1       0.310  -6.338   1.126  0.00  0.00    +0.173 C 
BRANCH  20  22
ATOM     21  N   UNL     1       0.064  -4.159  -0.019  0.00  0.00    -0.285 N 
ATOM     22  C   UNL     1       0.180  -4.836   1.140  0.00  0.00    +0.227 C 
ATOM     23  O   UNL     1       0.181  -4.237   2.195  0.00  0.00    -0.275 OA
ATOM     24  H   UNL     1      -0.022  -4.641  -0.857  0.00  0.00    +0.155 HD
BRANCH  21  29
ATOM     25  C   UNL     1       0.076   1.514  -0.004  0.00  0.00    +0.044 C 
ATOM     26  C   UNL     1       0.073   0.007  -0.009  0.00  0.00    -0.050 A 
ATOM     27  C   UNL     1       0.702  -0.687   1.009  0.00  0.00    +0.005 A 
ATOM     28  C   UNL     1       0.701  -2.068   1.008  0.00  0.00    +0.023 A 
ATOM     29  C   UNL     1       0.067  -2.760  -0.016  0.00  0.00    +0.033 A 
ATOM     30  C   UNL     1      -0.565  -2.060  -1.035  0.00  0.00    +0.023 A 
ATOM     31  C   UNL     1      -0.564  -0.678  -1.026  0.00  0.00    +0.005 A 
ENDBRANCH  21  29
ENDBRANCH  20  22
ENDBRANCH  19  20
ENDBRANCH   1  19
BRANCH  15  32
ATOM     32  C   UNL     1       0.965 -11.951   8.962  0.00  0.00    -0.048 C 
BRANCH  32  33
ATOM     33  C   UNL     1      -0.072 -12.852   9.582  0.00  0.00    -0.096 C 
ATOM     34  C   UNL     1       0.283 -14.001  10.101  0.00  0.00    +0.005 C 
ATOM     35  C   UNL     1      -1.519 -12.430   9.605  0.00  0.00    +0.036 C 
ENDBRANCH  32  33
ENDBRANCH  15  32
TORSDOF 6
