REMARK  Name = ZINC65305967
REMARK  14 active torsions:
REMARK  status: ('A' for Active; 'I' for Inactive)
REMARK    1  A    between atoms: C_1  and  C_2
REMARK    2  A    between atoms: C_2  and  C_3
REMARK    3  A    between atoms: C_3  and  C_5
REMARK    4  A    between atoms: C_3  and  C_6
REMARK    5  A    between atoms: C_6  and  C_8
REMARK    6  A    between atoms: C_6  and  N_20
REMARK    7  A    between atoms: N_10  and  C_11
REMARK    8  A    between atoms: C_21  and  C_23
REMARK    9  A    between atoms: C_26  and  O_32
REMARK   10  A    between atoms: C_27  and  O_29
REMARK   11  A    between atoms: O_29  and  C_30
REMARK   12  A    between atoms: C_30  and  C_31
REMARK   13  A    between atoms: O_32  and  C_33
REMARK   14  A    between atoms: C_33  and  C_34
REMARK                            x       y       z     vdW  Elec       q    Type
REMARK                         _______ _______ _______ _____ _____    ______ ____
ROOT
ATOM      1  C   UNL     1      -0.175  -0.219  -2.609  0.00  0.00    +0.162 C 
ENDROOT
BRANCH   1   2
ATOM      2  C   UNL     1      -0.209   1.268  -2.851  0.00  0.00    +0.236 C 
ATOM      3  O   UNL     1       0.282   1.729  -3.860  0.00  0.00    -0.274 OA
ATOM      4  N   UNL     1      -0.784   2.085  -1.947  0.00  0.00    -0.277 N 
ATOM      5  H   UNL     1      -1.106   1.727  -1.105  0.00  0.00    +0.152 HD
BRANCH   4   6
ATOM      6  C   UNL     1      -0.923   3.515  -2.235  0.00  0.00    +0.269 C 
ATOM      7  N   UNL     1       0.361   4.197  -2.029  0.00  0.00    -0.348 N 
ATOM      8  C   UNL     1       0.183   5.089  -1.097  0.00  0.00    +0.061 A 
ATOM      9  C   UNL     1       1.081   6.066  -0.466  0.00  0.00    +0.027 A 
ATOM     10  C   UNL     1       0.605   6.881   0.497  0.00  0.00    +0.002 A 
ATOM     11  C   UNL     1      -0.731   6.839   0.934  0.00  0.00    +0.002 A 
ATOM     12  C   UNL     1      -1.636   5.981   0.422  0.00  0.00    +0.027 A 
ATOM     13  C   UNL     1      -1.231   5.045  -0.635  0.00  0.00    +0.061 A 
ATOM     14  N   UNL     1      -1.873   4.128  -1.299  0.00  0.00    -0.348 N 
ATOM     15  H   UNL     1       1.189   4.017  -2.500  0.00  0.00    +0.163 HD
ATOM     16  H   UNL     1      -2.808   3.893  -1.194  0.00  0.00    +0.163 HD
ENDBRANCH   4   6
ENDBRANCH   1   2
BRANCH   1  17
ATOM     17  N   UNL     1       0.043  -0.916  -3.879  0.00  0.00    -0.300 N 
ATOM     18  C   UNL     1      -0.375  -2.188  -4.031  0.00  0.00    +0.245 C 
ATOM     19  O   UNL     1      -0.933  -2.758  -3.113  0.00  0.00    -0.270 OA
ATOM     20  H   UNL     1       0.489  -0.461  -4.611  0.00  0.00    +0.150 HD
BRANCH  18  21
ATOM     21  C   UNL     1      -0.155  -2.890  -5.311  0.00  0.00    +0.040 A 
ATOM     22  C   UNL     1       0.492  -2.239  -6.364  0.00  0.00    +0.017 A 
ATOM     23  C   UNL     1       0.698  -2.895  -7.558  0.00  0.00    +0.050 A 
ATOM     24  C   UNL     1       0.263  -4.204  -7.717  0.00  0.00    +0.162 A 
ATOM     25  C   UNL     1      -0.384  -4.860  -6.671  0.00  0.00    +0.163 A 
ATOM     26  C   UNL     1      -0.587  -4.209  -5.469  0.00  0.00    +0.062 A 
BRANCH  25  27
ATOM     27  O   UNL     1      -0.810  -6.141  -6.831  0.00  0.00    -0.489 OA
BRANCH  27  28
ATOM     28  C   UNL     1      -1.465  -6.751  -5.717  0.00  0.00    +0.226 C 
ATOM     29  C   UNL     1      -1.868  -8.181  -6.082  0.00  0.00    +0.048 C 
ENDBRANCH  27  28
ENDBRANCH  25  27
BRANCH  24  30
ATOM     30  O   UNL     1       0.467  -4.847  -8.896  0.00  0.00    -0.489 OA
BRANCH  30  31
ATOM     31  C   UNL     1       1.135  -4.116  -9.926  0.00  0.00    +0.226 C 
ATOM     32  C   UNL     1       1.274  -4.997 -11.169  0.00  0.00    +0.048 C 
ENDBRANCH  30  31
ENDBRANCH  24  30
ENDBRANCH  18  21
ENDBRANCH   1  17
BRANCH   1  33
ATOM     33  C   UNL     1       0.962  -0.553  -1.642  0.00  0.00    +0.015 C 
ATOM     34  C   UNL     1       2.305  -0.259  -2.313  0.00  0.00    +0.010 C 
BRANCH  33  36
ATOM     35  C   UNL     1      -0.385  -2.300  -0.467  0.00  0.00    +0.004 C 
ATOM     36  C   UNL     1       0.893  -2.035  -1.266  0.00  0.00    +0.002 C 
ENDBRANCH  33  36
ENDBRANCH   1  33
TORSDOF 10
