REMARK  Name = ZINC61642359
REMARK  9 active torsions:
REMARK  status: ('A' for Active; 'I' for Inactive)
REMARK    1  A    between atoms: C_1  and  N_2
REMARK    2  A    between atoms: N_2  and  C_3
REMARK    3  A    between atoms: N_2  and  C_4
REMARK    4  A    between atoms: C_4  and  C_5
REMARK    5  A    between atoms: C_5  and  N_6
REMARK    6  A    between atoms: N_9  and  C_12
REMARK    7  A    between atoms: C_12  and  C_14
REMARK    8  A    between atoms: C_12  and  C_16
REMARK    9  A    between atoms: C_14  and  N_15
REMARK                            x       y       z     vdW  Elec       q    Type
REMARK                         _______ _______ _______ _____ _____    ______ ____
ROOT
ATOM      1  C   UNL     1      -6.811  -4.362  -0.935  0.00  0.00    +0.071 C 
ENDROOT
BRANCH   1   2
ATOM      2  C   UNL     1      -7.032  -5.659  -0.200  0.00  0.00    -0.018 A 
ATOM      3  C   UNL     1      -6.076  -6.656  -0.254  0.00  0.00    +0.006 A 
ATOM      4  C   UNL     1      -6.278  -7.845   0.421  0.00  0.00    +0.000 A 
ATOM      5  C   UNL     1      -7.438  -8.038   1.150  0.00  0.00    +0.001 A 
ATOM      6  C   UNL     1      -8.394  -7.042   1.204  0.00  0.00    +0.015 A 
ATOM      7  C   UNL     1      -8.189  -5.849   0.533  0.00  0.00    +0.022 A 
ATOM      8 BR   UNL     1      -9.494  -4.483   0.612  0.00  0.00    -0.050 Br
ENDBRANCH   1   2
BRANCH   1  12
ATOM      9  N   UNL     1      -3.459  -2.299   0.600  0.00  0.00    -0.302 NA
ATOM     10  C   UNL     1      -3.874  -2.008  -0.779  0.00  0.00    +0.099 C 
ATOM     11  C   UNL     1      -5.327  -2.448  -0.975  0.00  0.00    +0.100 C 
ATOM     12  N   UNL     1      -5.444  -3.884  -0.685  0.00  0.00    -0.295 NA
ATOM     13  C   UNL     1      -5.029  -4.175   0.694  0.00  0.00    +0.100 C 
ATOM     14  C   UNL     1      -3.576  -3.735   0.890  0.00  0.00    +0.099 C 
BRANCH   9  15
ATOM     15  C   UNL     1      -2.093  -1.821   0.851  0.00  0.00    +0.066 C 
BRANCH  15  16
ATOM     16  C   UNL     1      -2.066  -0.293   0.781  0.00  0.00    -0.064 C 
BRANCH  16  18
ATOM     17  C   UNL     1      -0.648   1.641   0.847  0.00  0.00    -0.097 C 
ATOM     18  N   UNL     1      -0.699   0.184   1.031  0.00  0.00    +0.377 N 
ATOM     19  C   UNL     1      -0.309  -0.149   2.408  0.00  0.00    -0.097 C 
ATOM     20  H   UNL     1      -0.064  -0.259   0.385  0.00  0.00    -0.083 HD
ENDBRANCH  16  18
ENDBRANCH  15  16
ENDBRANCH   9  15
ENDBRANCH   1  12
BRANCH   1  21
ATOM     21  C   UNL     1      -7.005  -4.587  -2.436  0.00  0.00    -0.063 C 
BRANCH  21  22
ATOM     22  N   UNL     1      -6.746  -3.334  -3.157  0.00  0.00    +0.379 N 
ATOM     23  H   UNL     1      -7.176  -2.566  -2.663  0.00  0.00    -0.090 HD
ATOM     24  H   UNL     1      -5.750  -3.180  -3.217  0.00  0.00    -0.090 HD
ATOM     25  H   UNL     1      -7.133  -3.394  -4.087  0.00  0.00    -0.090 HD
ENDBRANCH  21  22
ENDBRANCH   1  21
TORSDOF 7
