REMARK  Name = ZINC39664062
REMARK  11 active torsions:
REMARK  status: ('A' for Active; 'I' for Inactive)
REMARK    1  A    between atoms: C_1  and  C_2
REMARK    2  A    between atoms: C_2  and  C_3
REMARK    3  A    between atoms: C_3  and  C_5
REMARK    4  A    between atoms: C_3  and  C_6
REMARK    5  A    between atoms: C_10  and  C_19
REMARK    6  A    between atoms: N_21  and  C_22
REMARK    7  A    between atoms: C_22  and  C_23
REMARK    8  A    between atoms: C_23  and  C_25
REMARK    9  A    between atoms: C_23  and  N_33
REMARK   10  A    between atoms: C_28  and  O_31
REMARK   11  A    between atoms: O_31  and  C_32
REMARK                            x       y       z     vdW  Elec       q    Type
REMARK                         _______ _______ _______ _____ _____    ______ ____
ROOT
ATOM      1  C   UNL     1       0.620  -2.000   5.492  0.00  0.00    +0.218 C 
ATOM      2  O   UNL     1      -0.107  -1.198   4.944  0.00  0.00    -0.275 OA
ATOM      3  N   UNL     1       0.368  -2.382   6.760  0.00  0.00    -0.316 N 
ATOM      4  H   UNL     1       0.950  -3.023   7.197  0.00  0.00    +0.149 HD
ENDROOT
BRANCH   1   9
ATOM      5  C   UNL     1       1.135  -1.189   1.474  0.00  0.00    +0.218 C 
ATOM      6  O   UNL     1       0.613  -1.684   0.497  0.00  0.00    -0.275 OA
ATOM      7  N   UNL     1       1.647  -1.981   2.437  0.00  0.00    -0.300 N 
ATOM      8  C   UNL     1       2.312  -1.566   3.695  0.00  0.00    +0.121 C 
ATOM      9  C   UNL     1       1.804  -2.570   4.754  0.00  0.00    +0.100 C 
ATOM     10  C   UNL     1       1.388  -3.813   3.949  0.00  0.00    -0.004 C 
ATOM     11  C   UNL     1       1.668  -3.463   2.480  0.00  0.00    +0.115 C 
ATOM     12  C   UNL     1       2.220  -5.019   4.373  0.00  0.00    -0.010 C 
ATOM     13  C   UNL     1       1.749  -6.255   3.600  0.00  0.00    -0.082 C 
ATOM     14  N   UNL     1       0.327  -6.494   3.876  0.00  0.00    +0.379 N 
ATOM     15  C   UNL     1      -0.475  -5.369   3.381  0.00  0.00    -0.082 C 
ATOM     16  C   UNL     1      -0.098  -4.096   4.144  0.00  0.00    -0.010 C 
ATOM     17  H   UNL     1       0.035  -7.343   3.415  0.00  0.00    -0.086 HD
ATOM     18  H   UNL     1       0.191  -6.591   4.871  0.00  0.00    -0.086 HD
BRANCH   5  19
ATOM     19  C   UNL     1       1.211   0.309   1.610  0.00  0.00    +0.072 C 
ATOM     20  C   UNL     1       2.676   0.740   1.702  0.00  0.00    +0.017 C 
BRANCH  19  22
ATOM     21  C   UNL     1       0.526   2.483   0.587  0.00  0.00    +0.004 C 
ATOM     22  C   UNL     1       0.561   0.966   0.391  0.00  0.00    +0.009 C 
ENDBRANCH  19  22
ENDBRANCH   5  19
ENDBRANCH   1   9
BRANCH   3  23
ATOM     23  C   UNL     1      -0.783  -1.828   7.477  0.00  0.00    +0.093 C 
BRANCH  23  24
ATOM     24  C   UNL     1      -0.761  -2.314   8.928  0.00  0.00    -0.020 C 
BRANCH  24  25
ATOM     25  C   UNL     1       0.445  -1.747   9.630  0.00  0.00    -0.059 A 
ATOM     26  C   UNL     1       0.421  -0.449  10.106  0.00  0.00    +0.005 A 
ATOM     27  C   UNL     1       1.526   0.073  10.749  0.00  0.00    +0.046 A 
ATOM     28  C   UNL     1       2.661  -0.706  10.918  0.00  0.00    +0.120 A 
ATOM     29  C   UNL     1       2.683  -2.008  10.440  0.00  0.00    +0.046 A 
ATOM     30  C   UNL     1       1.574  -2.527   9.801  0.00  0.00    +0.005 A 
BRANCH  28  31
ATOM     31  O   UNL     1       3.750  -0.194  11.550  0.00  0.00    -0.495 OA
ATOM     32  C   UNL     1       4.883  -1.054  11.688  0.00  0.00    +0.277 C 
ENDBRANCH  28  31
ENDBRANCH  24  25
BRANCH  24  33
ATOM     33  N   UNL     1      -1.982  -1.865   9.612  0.00  0.00    +0.385 N 
ATOM     34  C   UNL     1      -3.177  -2.485   8.986  0.00  0.00    -0.078 C 
ATOM     35  C   UNL     1      -4.249  -2.394  10.101  0.00  0.00    -0.020 C 
ATOM     36  C   UNL     1      -3.434  -2.663  11.387  0.00  0.00    -0.020 C 
ATOM     37  C   UNL     1      -1.977  -2.327  11.017  0.00  0.00    -0.078 C 
ATOM     38  H   UNL     1      -2.051  -0.859   9.576  0.00  0.00    -0.081 HD
ENDBRANCH  24  33
ENDBRANCH  23  24
ENDBRANCH   3  23
TORSDOF 8
