REMARK  Name = ZINC39685847
REMARK  16 active torsions:
REMARK  status: ('A' for Active; 'I' for Inactive)
REMARK    1  A    between atoms: C_1  and  C_2
REMARK    2  A    between atoms: C_4  and  C_11
REMARK    3  A    between atoms: N_5  and  C_7
REMARK    4  A    between atoms: C_7  and  C_8
REMARK    5  A    between atoms: C_7  and  C_9
REMARK    6  A    between atoms: C_7  and  C_10
REMARK    7  A    between atoms: C_15  and  C_24
REMARK    8  A    between atoms: N_26  and  C_27
REMARK    9  A    between atoms: C_27  and  C_29
REMARK   10  A    between atoms: C_27  and  C_32
REMARK   11  A    between atoms: C_29  and  C_30
REMARK   12  A    between atoms: C_29  and  C_31
REMARK   13  A    between atoms: N_34  and  C_35
REMARK   14  A    between atoms: C_35  and  C_36
REMARK   15  A    between atoms: C_35  and  C_37
REMARK   16  A    between atoms: C_35  and  C_38
REMARK                            x       y       z     vdW  Elec       q    Type
REMARK                         _______ _______ _______ _____ _____    ______ ____
ROOT
ATOM      1  C   UNL     1      -0.160  -4.202  -0.483  0.00  0.00    +0.265 C 
ATOM      2  O   UNL     1      -0.204  -4.639  -1.617  0.00  0.00    -0.268 OA
ATOM      3  N   UNL     1      -0.578  -4.961   0.549  0.00  0.00    -0.295 N 
ATOM      4  C   UNL     1      -0.723  -4.563   1.969  0.00  0.00    +0.121 C 
ATOM      5  C   UNL     1      -2.021  -5.257   2.438  0.00  0.00    +0.100 C 
ATOM      6  C   UNL     1      -2.194  -6.452   1.485  0.00  0.00    -0.004 C 
ATOM      7  C   UNL     1      -1.003  -6.381   0.519  0.00  0.00    +0.115 C 
ATOM      8  C   UNL     1      -3.502  -6.324   0.710  0.00  0.00    -0.010 C 
ATOM      9  C   UNL     1      -3.679  -7.551  -0.189  0.00  0.00    -0.082 C 
ATOM     10  N   UNL     1      -3.692  -8.766   0.635  0.00  0.00    +0.379 N 
ATOM     11  C   UNL     1      -2.396  -8.930   1.305  0.00  0.00    -0.082 C 
ATOM     12  C   UNL     1      -2.165  -7.761   2.267  0.00  0.00    -0.010 C 
ATOM     13  H   UNL     1      -4.421  -8.692   1.329  0.00  0.00    -0.086 HD
ATOM     14  H   UNL     1      -3.869  -9.567   0.048  0.00  0.00    -0.086 HD
ENDROOT
BRANCH   1  18
ATOM     15  C   UNL     1       1.516   0.053   1.709  0.00  0.00    +0.067 C 
ATOM     16  C   UNL     1       1.084  -0.981   0.702  0.00  0.00    +0.061 A 
ATOM     17  C   UNL     1       0.627  -2.269   0.990  0.00  0.00    +0.057 A 
ATOM     18  C   UNL     1       0.351  -2.844  -0.238  0.00  0.00    +0.124 A 
ATOM     19  N   UNL     1       0.648  -1.897  -1.178  0.00  0.00    -0.254 N 
ATOM     20  N   UNL     1       1.065  -0.830  -0.598  0.00  0.00    -0.175 NA
BRANCH  19  21
ATOM     21  C   UNL     1       0.507  -2.072  -2.625  0.00  0.00    +0.056 C 
ATOM     22  C   UNL     1      -0.923  -2.508  -2.950  0.00  0.00    +0.036 C 
ATOM     23  C   UNL     1       0.809  -0.748  -3.330  0.00  0.00    +0.036 C 
ATOM     24  C   UNL     1       1.488  -3.142  -3.108  0.00  0.00    +0.036 C 
ENDBRANCH  19  21
ENDBRANCH   1  18
BRANCH   5  25
ATOM     25  C   UNL     1      -3.192  -4.316   2.321  0.00  0.00    +0.219 C 
ATOM     26  O   UNL     1      -3.211  -3.479   1.444  0.00  0.00    -0.275 OA
ATOM     27  N   UNL     1      -4.217  -4.404   3.192  0.00  0.00    -0.303 N 
ATOM     28  H   UNL     1      -4.186  -5.051   3.913  0.00  0.00    +0.149 HD
BRANCH  27  29
ATOM     29  C   UNL     1      -5.378  -3.522   3.047  0.00  0.00    +0.161 C 
BRANCH  29  30
ATOM     30  C   UNL     1      -6.003  -3.289   4.399  0.00  0.00    +0.234 C 
ATOM     31  O   UNL     1      -5.510  -3.787   5.389  0.00  0.00    -0.274 OA
ATOM     32  N   UNL     1      -7.109  -2.527   4.508  0.00  0.00    -0.309 N 
ATOM     33  H   UNL     1      -7.545  -2.188   3.710  0.00  0.00    +0.149 HD
BRANCH  32  34
ATOM     34  C   UNL     1      -7.655  -2.213   5.830  0.00  0.00    +0.026 C 
ATOM     35  C   UNL     1      -6.605  -1.458   6.649  0.00  0.00    +0.031 C 
ATOM     36  C   UNL     1      -8.902  -1.341   5.673  0.00  0.00    +0.031 C 
ATOM     37  C   UNL     1      -8.027  -3.510   6.551  0.00  0.00    +0.031 C 
ENDBRANCH  32  34
ENDBRANCH  29  30
BRANCH  29  38
ATOM     38  C   UNL     1      -6.402  -4.175   2.118  0.00  0.00    +0.012 C 
ATOM     39  C   UNL     1      -5.836  -4.235   0.697  0.00  0.00    +0.009 C 
ATOM     40  C   UNL     1      -6.704  -5.593   2.607  0.00  0.00    +0.009 C 
ENDBRANCH  29  38
ENDBRANCH  27  29
ENDBRANCH   5  25
TORSDOF 7
