REMARK  Name = ZINC34899134
REMARK  9 active torsions:
REMARK  status: ('A' for Active; 'I' for Inactive)
REMARK    1  A    between atoms: C_1  and  C_2
REMARK    2  A    between atoms: N_8  and  C_9
REMARK    3  A    between atoms: C_9  and  C_10
REMARK    4  A    between atoms: C_10  and  C_11
REMARK    5  A    between atoms: C_11  and  N_12
REMARK    6  A    between atoms: C_13  and  C_15
REMARK    7  A    between atoms: C_22  and  C_25
REMARK    8  A    between atoms: C_27  and  C_35
REMARK    9  A    between atoms: C_29  and  C_31
REMARK                            x       y       z     vdW  Elec       q    Type
REMARK                         _______ _______ _______ _____ _____    ______ ____
ROOT
ATOM      1  C   UNL     1       1.359  -0.178   8.483  0.00  0.00    +0.143 A 
ATOM      2  C   UNL     1       1.065   0.136   9.779  0.00  0.00    +0.120 A 
ATOM      3  N   UNL     1       2.032  -0.412  10.543  0.00  0.00    -0.333 N 
ATOM      4  C   UNL     1       2.904  -1.055   9.715  0.00  0.00    +0.111 A 
ATOM      5  N   UNL     1       2.498  -0.919   8.489  0.00  0.00    -0.228 NA
ATOM      6  C   UNL     1       4.127  -1.801  10.194  0.00  0.00    +0.075 C 
ATOM      7  C   UNL     1       3.982  -2.039  11.702  0.00  0.00    +0.017 C 
ATOM      8  C   UNL     1       3.595  -0.726  12.387  0.00  0.00    +0.039 C 
ATOM      9  C   UNL     1       2.160  -0.350  12.001  0.00  0.00    +0.131 C 
ENDROOT
BRANCH   8  10
ATOM     10  C   UNL     1       3.686  -0.893  13.882  0.00  0.00    -0.042 A 
ATOM     11  C   UNL     1       2.914  -1.847  14.519  0.00  0.00    +0.016 A 
ATOM     12  C   UNL     1       2.997  -2.000  15.890  0.00  0.00    +0.056 A 
ATOM     13  C   UNL     1       3.852  -1.199  16.625  0.00  0.00    +0.024 A 
ATOM     14  C   UNL     1       4.624  -0.246  15.988  0.00  0.00    +0.056 A 
ATOM     15  C   UNL     1       4.545  -0.096  14.616  0.00  0.00    +0.016 A 
BRANCH  14  16
ATOM     16  C   UNL     1       5.556   0.627  16.788  0.00  0.00    +0.417 C 
ATOM     17  F   UNL     1       5.465   0.288  18.142  0.00  0.00    -0.166 F 
ATOM     18  F   UNL     1       6.870   0.435  16.347  0.00  0.00    -0.166 F 
ATOM     19  F   UNL     1       5.199   1.969  16.618  0.00  0.00    -0.166 F 
ENDBRANCH  14  16
BRANCH  12  20
ATOM     20  C   UNL     1       2.156  -3.039  16.585  0.00  0.00    +0.417 C 
ATOM     21  F   UNL     1       2.859  -4.247  16.642  0.00  0.00    -0.166 F 
ATOM     22  F   UNL     1       1.861  -2.609  17.883  0.00  0.00    -0.166 F 
ATOM     23  F   UNL     1       0.965  -3.226  15.874  0.00  0.00    -0.166 F 
ENDBRANCH  12  20
ENDBRANCH   8  10
BRANCH   1  25
ATOM     24  N   UNL     1       0.983  -0.177   6.069  0.00  0.00    -0.310 N 
ATOM     25  C   UNL     1       0.579   0.209   7.295  0.00  0.00    +0.264 C 
ATOM     26  O   UNL     1      -0.429   0.878   7.421  0.00  0.00    -0.268 OA
ATOM     27  H   UNL     1       1.787  -0.710   5.968  0.00  0.00    +0.149 HD
BRANCH  24  28
ATOM     28  C   UNL     1       0.207   0.209   4.887  0.00  0.00    +0.103 C 
BRANCH  28  29
ATOM     29  C   UNL     1       0.877  -0.353   3.631  0.00  0.00    +0.000 C 
BRANCH  29  30
ATOM     30  C   UNL     1       0.067   0.050   2.397  0.00  0.00    -0.077 C 
BRANCH  30  37
ATOM     31  C   UNL     1      -0.019   1.526   0.010  0.00  0.00    -0.013 C 
ATOM     32  C   UNL     1       0.002  -0.004   0.002  0.00  0.00    -0.072 C 
ATOM     33  C   UNL     1       0.717  -0.497  -1.258  0.00  0.00    -0.016 C 
ATOM     34  C   UNL     1       0.735  -2.028  -1.262  0.00  0.00    -0.003 C 
ATOM     35  C   UNL     1       1.410  -2.524   0.020  0.00  0.00    -0.019 C 
ATOM     36  C   UNL     1       0.669  -1.956   1.232  0.00  0.00    -0.078 C 
ATOM     37  N   UNL     1       0.711  -0.490   1.192  0.00  0.00    +0.381 N 
ATOM     38  H   UNL     1       1.671  -0.182   1.159  0.00  0.00    -0.081 HD
ENDBRANCH  30  37
ENDBRANCH  29  30
ENDBRANCH  28  29
ENDBRANCH  24  28
ENDBRANCH   1  25
TORSDOF 8
