REMARK  Name = ZINC67401444
REMARK  5 active torsions:
REMARK  status: ('A' for Active; 'I' for Inactive)
REMARK    1  A    between atoms: C_1  and  C_2
REMARK    2  A    between atoms: C_5  and  N_8
REMARK    3  A    between atoms: N_11  and  C_12
REMARK    4  A    between atoms: N_20  and  C_22
REMARK    5  A    between atoms: C_22  and  C_23
REMARK                            x       y       z     vdW  Elec       q    Type
REMARK                         _______ _______ _______ _____ _____    ______ ____
ROOT
ATOM      1  C   UNL     1       0.278  -6.991   2.276  0.00  0.00    +0.038 A 
ATOM      2  C   UNL     1       0.267  -6.310   3.485  0.00  0.00    +0.023 A 
ATOM      3  C   UNL     1       0.278  -7.017   4.671  0.00  0.00    +0.002 A 
ATOM      4  C   UNL     1       0.301  -8.398   4.650  0.00  0.00    +0.002 A 
ATOM      5  C   UNL     1       0.313  -9.084   3.445  0.00  0.00    -0.059 A 
ATOM      6  C   UNL     1       0.294  -8.383   2.259  0.00  0.00    -0.027 A 
ATOM      7  C   UNL     1       0.291  -9.090   0.927  0.00  0.00    +0.019 C 
ATOM      8  C   UNL     1       0.711 -10.548   1.115  0.00  0.00    -0.073 C 
ATOM      9  N   UNL     1      -0.105 -11.138   2.187  0.00  0.00    +0.386 N 
ATOM     10  C   UNL     1       0.342 -10.590   3.474  0.00  0.00    -0.042 C 
ATOM     11  H   UNL     1      -1.077 -10.911   2.035  0.00  0.00    -0.081 HD
ENDROOT
BRANCH   1  15
ATOM     12  N   UNL     1       0.536  -4.268  -0.083  0.00  0.00    -0.269 N 
ATOM     13  C   UNL     1       0.653  -4.987   1.050  0.00  0.00    +0.308 C 
ATOM     14  O   UNL     1       1.108  -4.472   2.053  0.00  0.00    -0.252 OA
ATOM     15  N   UNL     1       0.267  -6.278   1.073  0.00  0.00    -0.269 N 
ATOM     16  H   UNL     1       0.104  -4.655  -0.861  0.00  0.00    +0.156 HD
ATOM     17  H   UNL     1      -0.019  -6.713   0.254  0.00  0.00    +0.156 HD
BRANCH  12  22
ATOM     18  C   UNL     1       2.569   1.024  -0.309  0.00  0.00    +0.044 C 
ATOM     19  C   UNL     1       2.029  -0.382  -0.249  0.00  0.00    -0.050 A 
ATOM     20  C   UNL     1       2.668  -1.334   0.523  0.00  0.00    +0.005 A 
ATOM     21  C   UNL     1       2.176  -2.623   0.580  0.00  0.00    +0.023 A 
ATOM     22  C   UNL     1       1.037  -2.962  -0.139  0.00  0.00    +0.035 A 
ATOM     23  C   UNL     1       0.397  -2.004  -0.913  0.00  0.00    +0.023 A 
ATOM     24  C   UNL     1       0.891  -0.715  -0.961  0.00  0.00    +0.005 A 
ENDBRANCH  12  22
ENDBRANCH   1  15
BRANCH   9  25
ATOM     25  C   UNL     1       0.067 -12.597   2.190  0.00  0.00    -0.021 C 
BRANCH  25  26
ATOM     26  C   UNL     1      -0.862 -13.210   3.206  0.00  0.00    +0.032 A 
ATOM     27  C   UNL     1      -2.081 -13.693   2.853  0.00  0.00    +0.068 A 
ATOM     28  S   UNL     1      -2.679 -14.265   4.436  0.00  0.00    -0.084 S 
ATOM     29  C   UNL     1      -1.338 -13.835   5.358  0.00  0.00    +0.156 A 
ATOM     30  N   UNL     1      -0.526 -13.306   4.477  0.00  0.00    -0.254 NA
ENDBRANCH  25  26
ENDBRANCH   9  25
TORSDOF 4
