REMARK  Name = ZINC62651253
REMARK  13 active torsions:
REMARK  status: ('A' for Active; 'I' for Inactive)
REMARK    1  A    between atoms: C_1  and  C_2
REMARK    2  A    between atoms: C_2  and  C_3
REMARK    3  A    between atoms: C_2  and  C_4
REMARK    4  A    between atoms: C_2  and  O_5
REMARK    5  A    between atoms: O_5  and  C_6
REMARK    6  A    between atoms: N_8  and  C_9
REMARK    7  A    between atoms: C_9  and  C_10
REMARK    8  A    between atoms: C_10  and  N_11
REMARK    9  A    between atoms: N_14  and  C_15
REMARK   10  A    between atoms: C_15  and  C_16
REMARK   11  A    between atoms: C_16  and  C_17
REMARK   12  A    between atoms: C_16  and  C_18
REMARK   13  A    between atoms: C_16  and  N_19
REMARK                            x       y       z     vdW  Elec       q    Type
REMARK                         _______ _______ _______ _____ _____    ______ ____
ROOT
ATOM      1  N   UNL     1       5.550  -0.878  -5.271  0.00  0.00    -0.298 N 
ATOM      2  C   UNL     1       6.533  -1.097  -6.166  0.00  0.00    +0.300 C 
ATOM      3  O   UNL     1       6.313  -1.759  -7.162  0.00  0.00    -0.253 OA
ATOM      4  N   UNL     1       7.761  -0.583  -5.957  0.00  0.00    -0.301 N 
ATOM      5  H   UNL     1       5.726  -0.350  -4.476  0.00  0.00    +0.150 HD
ATOM      6  H   UNL     1       7.937  -0.055  -5.162  0.00  0.00    +0.150 HD
ENDROOT
BRANCH   1   7
ATOM      7  C   UNL     1       4.215  -1.438  -5.498  0.00  0.00    +0.124 C 
BRANCH   7   8
ATOM      8  C   UNL     1       3.293  -1.044  -4.342  0.00  0.00    +0.126 C 
BRANCH   8  11
ATOM      9  C   UNL     1       0.975  -1.385  -3.674  0.00  0.00    +0.401 C 
ATOM     10  O   UNL     1       1.195  -0.723  -2.679  0.00  0.00    -0.226 OA
ATOM     11  N   UNL     1       1.959  -1.604  -4.569  0.00  0.00    -0.280 N 
ATOM     12  H   UNL     1       1.783  -2.132  -5.363  0.00  0.00    +0.152 HD
BRANCH   9  13
ATOM     13  O   UNL     1      -0.252  -1.899  -3.883  0.00  0.00    -0.445 OA
BRANCH  13  15
ATOM     14  C   UNL     1      -1.449  -0.115  -2.775  0.00  0.00    +0.055 C 
ATOM     15  C   UNL     1      -1.246  -1.627  -2.893  0.00  0.00    +0.107 C 
ATOM     16  C   UNL     1      -0.790  -2.187  -1.544  0.00  0.00    +0.055 C 
ATOM     17  C   UNL     1      -2.565  -2.288  -3.300  0.00  0.00    +0.055 C 
ENDBRANCH  13  15
ENDBRANCH   9  13
ENDBRANCH   8  11
ENDBRANCH   7   8
ENDBRANCH   1   7
BRANCH   4  18
ATOM     18  C   UNL     1       8.831  -0.821  -6.930  0.00  0.00    +0.093 C 
BRANCH  18  19
ATOM     19  C   UNL     1      10.113  -0.132  -6.457  0.00  0.00    -0.055 C 
ATOM     20  C   UNL     1      11.229  -0.381  -7.473  0.00  0.00    -0.008 C 
ATOM     21  C   UNL     1       9.866   1.373  -6.328  0.00  0.00    -0.008 C 
BRANCH  19  22
ATOM     22  N   UNL     1      10.508  -0.677  -5.152  0.00  0.00    +0.387 N 
ATOM     23  C   UNL     1      11.796  -0.094  -4.745  0.00  0.00    -0.073 C 
ATOM     24  C   UNL     1      12.039  -0.427  -3.272  0.00  0.00    +0.017 C 
ATOM     25  C   UNL     1      11.855  -1.906  -3.047  0.00  0.00    -0.048 A 
ATOM     26  C   UNL     1      12.355  -2.469  -1.883  0.00  0.00    +0.004 A 
ATOM     27  C   UNL     1      12.203  -3.819  -1.641  0.00  0.00    +0.000 A 
ATOM     28  C   UNL     1      11.547  -4.614  -2.563  0.00  0.00    +0.000 A 
ATOM     29  C   UNL     1      11.050  -4.054  -3.723  0.00  0.00    +0.002 A 
ATOM     30  C   UNL     1      11.204  -2.698  -3.969  0.00  0.00    -0.061 A 
ATOM     31  C   UNL     1      10.653  -2.132  -5.251  0.00  0.00    -0.042 C 
ATOM     32  H   UNL     1       9.803  -0.454  -4.465  0.00  0.00    -0.080 HD
ENDBRANCH  19  22
ENDBRANCH  18  19
ENDBRANCH   4  18
TORSDOF 8
