REMARK  Name = ZINC08927635
REMARK  5 active torsions:
REMARK  status: ('A' for Active; 'I' for Inactive)
REMARK    1  A    between atoms: C_1  and  C_2
REMARK    2  A    between atoms: C_2  and  N_42
REMARK    3  A    between atoms: C_10  and  O_23
REMARK    4  A    between atoms: C_12  and  C_15
REMARK    5  A    between atoms: C_20  and  O_21
REMARK                            x       y       z     vdW  Elec       q    Type
REMARK                         _______ _______ _______ _____ _____    ______ ____
ROOT
ATOM      1  C   UNL     1       0.170  -0.627   6.566  0.00  0.00    -0.074 C 
ATOM      2  C   UNL     1       0.733  -1.005   5.194  0.00  0.00    +0.018 C 
ATOM      3  C   UNL     1      -0.377  -0.842   4.162  0.00  0.00    -0.027 A 
ATOM      4  C   UNL     1      -1.669  -0.778   4.564  0.00  0.00    -0.021 A 
ATOM      5  S   UNL     1      -2.602  -0.591   3.069  0.00  0.00    -0.080 S 
ATOM      6  C   UNL     1      -1.310  -0.602   1.947  0.00  0.00    +0.080 A 
ATOM      7  C   UNL     1      -0.158  -0.744   2.732  0.00  0.00    +0.067 A 
ATOM      8  C   UNL     1       1.148  -0.773   2.024  0.00  0.00    +0.220 C 
ATOM      9  N   UNL     1       1.159  -0.468   0.758  0.00  0.00    -0.223 NA
ATOM     10  C   UNL     1       0.002  -0.004   0.002  0.00  0.00    +0.227 C 
ATOM     11  N   UNL     1      -1.260  -0.505   0.577  0.00  0.00    -0.313 N 
ATOM     12  C   UNL     1      -2.168  -0.853   5.973  0.00  0.00    -0.035 C 
ATOM     13  H   UNL     1      -2.013  -0.753   0.019  0.00  0.00    +0.149 HD
ATOM     14  N   UNL     1      -1.071  -1.389   6.815  0.00  0.00    +0.383 N 
ATOM     15  H   UNL     1      -0.913  -2.373   6.571  0.00  0.00    -0.081 HD
ENDROOT
BRANCH  10  16
ATOM     16  C   UNL     1      -0.018   1.503   0.010  0.00  0.00    +0.037 A 
ATOM     17  C   UNL     1      -1.224   2.178   0.020  0.00  0.00    +0.025 A 
ATOM     18  C   UNL     1      -1.243   3.561   0.032  0.00  0.00    +0.014 A 
ATOM     19  C   UNL     1      -0.056   4.271   0.025  0.00  0.00    +0.018 A 
ATOM     20  C   UNL     1       1.151   3.600   0.010  0.00  0.00    +0.047 A 
ATOM     21  C   UNL     1       1.173   2.213   0.003  0.00  0.00    +0.124 A 
ATOM     22  I   UNL     1      -3.073   4.581   0.054  0.00  0.00    -0.044 I 
BRANCH  21  23
ATOM     23  O   UNL     1       2.360   1.551  -0.012  0.00  0.00    -0.506 OA
ATOM     24  H   UNL     1       2.695   1.364  -0.900  0.00  0.00    +0.292 HD
ENDBRANCH  21  23
ENDBRANCH  10  16
BRANCH  14  26
ATOM     25  C   UNL     1      -1.581   0.161   8.671  0.00  0.00    -0.017 C 
ATOM     26  C   UNL     1      -1.441  -1.301   8.244  0.00  0.00    -0.082 C 
ENDBRANCH  14  26
BRANCH   8  27
ATOM     27  O   UNL     1       2.288  -1.105   2.674  0.00  0.00    -0.492 OA
ATOM     28  H   UNL     1       3.077  -1.090   2.116  0.00  0.00    +0.294 HD
ENDBRANCH   8  27
TORSDOF 4
