REMARK  Name = ZINC40098230
REMARK  7 active torsions:
REMARK  status: ('A' for Active; 'I' for Inactive)
REMARK    1  A    between atoms: C_1  and  C_2
REMARK    2  A    between atoms: C_2  and  C_3
REMARK    3  A    between atoms: C_3  and  N_4
REMARK    4  A    between atoms: C_5  and  C_7
REMARK    5  A    between atoms: C_7  and  C_9
REMARK    6  A    between atoms: C_7  and  N_10
REMARK    7  A    between atoms: N_13  and  C_14
REMARK                            x       y       z     vdW  Elec       q    Type
REMARK                         _______ _______ _______ _____ _____    ______ ____
ROOT
ATOM      1  N   UNL     1      -3.928  -4.695  -0.001  0.00  0.00    -0.288 N 
ATOM      2  C   UNL     1      -4.197  -5.923  -0.486  0.00  0.00    +0.304 C 
ATOM      3  O   UNL     1      -3.299  -6.609  -0.936  0.00  0.00    -0.252 OA
ATOM      4  N   UNL     1      -5.461  -6.392  -0.473  0.00  0.00    -0.268 N 
ATOM      5  H   UNL     1      -4.645  -4.148   0.358  0.00  0.00    +0.151 HD
ATOM      6  H   UNL     1      -6.163  -5.881  -0.042  0.00  0.00    +0.156 HD
ENDROOT
BRANCH   4   7
ATOM      7  C   UNL     1      -5.760  -7.616  -1.083  0.00  0.00    +0.049 A 
ATOM      8  C   UNL     1      -4.955  -8.098  -2.107  0.00  0.00    +0.025 A 
ATOM      9  C   UNL     1      -5.252  -9.306  -2.707  0.00  0.00    +0.017 A 
ATOM     10  C   UNL     1      -6.350 -10.037  -2.289  0.00  0.00    +0.019 A 
ATOM     11  C   UNL     1      -7.154  -9.559  -1.269  0.00  0.00    +0.032 A 
ATOM     12  C   UNL     1      -6.859  -8.353  -0.662  0.00  0.00    +0.040 A 
ATOM     13 BR   UNL     1      -7.954  -7.705   0.737  0.00  0.00    -0.048 Br
ATOM     14 BR   UNL     1      -6.754 -11.690  -3.113  0.00  0.00    -0.050 Br
ENDBRANCH   4   7
BRANCH   1  15
ATOM     15  C   UNL     1      -2.555  -4.186  -0.015  0.00  0.00    +0.157 C 
ATOM     16  C   UNL     1      -1.815  -4.680   1.230  0.00  0.00    +0.038 C 
BRANCH  15  18
ATOM     17  N   UNL     1      -1.421  -1.988  -0.034  0.00  0.00    -0.314 N 
ATOM     18  C   UNL     1      -2.578  -2.679  -0.021  0.00  0.00    +0.233 C 
ATOM     19  O   UNL     1      -3.637  -2.089  -0.014  0.00  0.00    -0.274 OA
ATOM     20  H   UNL     1      -0.574  -2.460  -0.039  0.00  0.00    +0.149 HD
BRANCH  17  21
ATOM     21  C   UNL     1      -1.443  -0.523  -0.040  0.00  0.00    +0.104 C 
BRANCH  21  23
ATOM     22  C   UNL     1      -0.032   1.539  -0.061  0.00  0.00    +0.005 C 
ATOM     23  C   UNL     1      -0.008   0.009  -0.054  0.00  0.00    +0.015 C 
ENDBRANCH  21  23
ENDBRANCH  17  21
ENDBRANCH  15  18
ENDBRANCH   1  15
TORSDOF 5
