REMARK  Name = ZINC29499907
REMARK  4 active torsions:
REMARK  status: ('A' for Active; 'I' for Inactive)
REMARK    1  A    between atoms: N_11  and  C_12
REMARK    2  A    between atoms: C_12  and  N_13
REMARK    3  A    between atoms: N_16  and  C_19
REMARK    4  A    between atoms: C_19  and  C_20
REMARK                            x       y       z     vdW  Elec       q    Type
REMARK                         _______ _______ _______ _____ _____    ______ ____
ROOT
ATOM      1  N   UNL     1      -1.074   7.490  -1.335  0.00  0.00    +0.393 N 
ATOM      2  C   UNL     1      -0.046   8.372  -1.907  0.00  0.00    -0.061 C 
ATOM      3  C   UNL     1      -0.392   8.674  -3.367  0.00  0.00    +0.066 C 
ATOM      4  N   UNL     1      -1.718   9.303  -3.434  0.00  0.00    -0.302 NA
ATOM      5  C   UNL     1      -2.746   8.422  -2.862  0.00  0.00    +0.066 C 
ATOM      6  C   UNL     1      -2.401   8.120  -1.402  0.00  0.00    -0.061 C 
ATOM      7  H   UNL     1      -1.105   6.570  -1.936  0.00  0.00    -0.079 HD
ENDROOT
BRANCH   1   8
ATOM      8  C   UNL     1      -0.739   7.116   0.045  0.00  0.00    +0.054 C 
BRANCH   8  19
ATOM      9  C   UNL     1      -1.234   2.559   0.022  0.00  0.00    +0.017 A 
ATOM     10  C   UNL     1      -1.260   3.941   0.034  0.00  0.00    +0.031 A 
ATOM     11  C   UNL     1      -0.071   4.653   0.027  0.00  0.00    +0.088 A 
ATOM     12  C   UNL     1       1.148   3.977   0.012  0.00  0.00    +0.158 A 
ATOM     13  C   UNL     1       1.166   2.591   0.005  0.00  0.00    +0.063 A 
ATOM     14  C   UNL     1      -0.024   1.887   0.012  0.00  0.00    +0.021 A 
ATOM     15 BR   UNL     1       0.002  -0.004   0.002  0.00  0.00    -0.050 Br
ATOM     16  O   UNL     1       2.128   4.913   0.007  0.00  0.00    -0.407 OA
ATOM     17  C   UNL     1       1.571   6.135   0.019  0.00  0.00    +0.420 A 
ATOM     18  O   UNL     1       2.183   7.186   0.019  0.00  0.00    -0.223 OA
ATOM     19  N   UNL     1       0.229   6.016   0.031  0.00  0.00    -0.291 N 
ENDBRANCH   8  19
ENDBRANCH   1   8
BRANCH   4  20
ATOM     20  C   UNL     1      -2.054   9.678  -4.814  0.00  0.00    +0.119 C 
BRANCH  20  21
ATOM     21  C   UNL     1      -0.875  10.371  -5.447  0.00  0.00    -0.031 A 
ATOM     22  C   UNL     1      -0.733  11.748  -5.366  0.00  0.00    +0.024 A 
ATOM     23  C   UNL     1       0.364  12.348  -5.955  0.00  0.00    +0.111 A 
ATOM     24  N   UNL     1       1.263  11.628  -6.597  0.00  0.00    -0.263 NA
ATOM     25  C   UNL     1       1.158  10.317  -6.699  0.00  0.00    +0.111 A 
ATOM     26  C   UNL     1       0.091   9.647  -6.130  0.00  0.00    +0.024 A 
ENDBRANCH  20  21
ENDBRANCH   4  20
TORSDOF 4
