REMARK  Name = ZINC42955632
REMARK  10 active torsions:
REMARK  status: ('A' for Active; 'I' for Inactive)
REMARK    1  A    between atoms: C_1  and  C_2
REMARK    2  A    between atoms: C_2  and  C_3
REMARK    3  A    between atoms: C_3  and  C_5
REMARK    4  A    between atoms: C_3  and  N_22
REMARK    5  A    between atoms: C_5  and  C_7
REMARK    6  A    between atoms: C_5  and  N_14
REMARK    7  A    between atoms: N_14  and  C_15
REMARK    8  A    between atoms: N_14  and  C_17
REMARK    9  A    between atoms: C_15  and  C_16
REMARK   10  A    between atoms: C_17  and  C_18
REMARK                            x       y       z     vdW  Elec       q    Type
REMARK                         _______ _______ _______ _____ _____    ______ ____
ROOT
ATOM      1  C   UNL     1       0.366  -1.811  -1.666  0.00  0.00    +0.073 C 
ENDROOT
BRANCH   1   2
ATOM      2  C   UNL     1      -1.085  -2.220  -1.667  0.00  0.00    -0.032 A 
ATOM      3  C   UNL     1      -1.765  -2.351  -2.863  0.00  0.00    +0.006 A 
ATOM      4  C   UNL     1      -3.095  -2.727  -2.864  0.00  0.00    +0.015 A 
ATOM      5  C   UNL     1      -3.746  -2.971  -1.668  0.00  0.00    +0.018 A 
ATOM      6  C   UNL     1      -3.064  -2.839  -0.471  0.00  0.00    +0.015 A 
ATOM      7  C   UNL     1      -1.733  -2.469  -0.472  0.00  0.00    +0.006 A 
ATOM      8 BR   UNL     1      -5.566  -3.484  -1.669  0.00  0.00    -0.050 Br
ENDBRANCH   1   2
BRANCH   1   9
ATOM      9  C   UNL     1       0.481  -0.341  -2.075  0.00  0.00    -0.053 C 
BRANCH   9  10
ATOM     10  N   UNL     1       1.895   0.060  -2.068  0.00  0.00    +0.381 N 
ATOM     11  H   UNL     1       2.281  -0.086  -1.147  0.00  0.00    -0.090 HD
ATOM     12  H   UNL     1       2.405  -0.495  -2.738  0.00  0.00    -0.090 HD
ATOM     13  H   UNL     1       1.969   1.036  -2.313  0.00  0.00    -0.090 HD
ENDBRANCH   9  10
BRANCH   9  15
ATOM     14  C   UNL     1      -0.289   1.980  -1.564  0.00  0.00    +0.002 C 
ATOM     15  C   UNL     1      -0.300   0.527  -1.087  0.00  0.00    -0.018 C 
ENDBRANCH   9  15
ENDBRANCH   1   9
BRANCH   1  16
ATOM     16  N   UNL     1       1.110  -2.644  -2.620  0.00  0.00    -0.289 NA
BRANCH  16  17
ATOM     17  C   UNL     1       1.136  -2.026  -3.952  0.00  0.00    +0.082 C 
ATOM     18  C   UNL     1       2.034  -2.847  -4.878  0.00  0.00    +0.020 C 
ENDBRANCH  16  17
BRANCH  16  19
ATOM     19  C   UNL     1       0.551  -4.002  -2.680  0.00  0.00    +0.198 C 
BRANCH  19  20
ATOM     20  C   UNL     1       1.000  -4.793  -1.450  0.00  0.00    +0.402 C 
ATOM     21  F   UNL     1       0.433  -4.231  -0.301  0.00  0.00    -0.169 F 
ATOM     22  F   UNL     1       0.583  -6.123  -1.573  0.00  0.00    -0.169 F 
ATOM     23  F   UNL     1       2.395  -4.750  -1.351  0.00  0.00    -0.169 F 
ENDBRANCH  19  20
ENDBRANCH  16  19
ENDBRANCH   1  16
TORSDOF 8
