REMARK  Name = ZINC61882230
REMARK  5 active torsions:
REMARK  status: ('A' for Active; 'I' for Inactive)
REMARK    1  A    between atoms: C_1  and  N_2
REMARK    2  A    between atoms: C_6  and  N_9
REMARK    3  A    between atoms: N_9  and  S_10
REMARK    4  A    between atoms: S_10  and  C_13
REMARK    5  A    between atoms: C_17  and  N_20
REMARK                            x       y       z     vdW  Elec       q    Type
REMARK                         _______ _______ _______ _____ _____    ______ ____
ROOT
ATOM      1  S   UNL     1       0.773  -3.776   3.283  0.00  0.00    +0.060 S 
ATOM      2  O   UNL     1       1.516  -4.001   4.473  0.00  0.00    -0.153 OA
ATOM      3  O   UNL     1      -0.616  -3.475   3.298  0.00  0.00    -0.153 OA
ENDROOT
BRANCH   1   4
ATOM      4  C   UNL     1       0.965  -5.218   2.288  0.00  0.00    +0.122 A 
ATOM      5  C   UNL     1      -0.147  -5.834   1.743  0.00  0.00    +0.049 A 
ATOM      6  C   UNL     1       0.000  -6.966   0.961  0.00  0.00    +0.045 A 
ATOM      7  C   UNL     1       1.259  -7.484   0.722  0.00  0.00    +0.044 A 
ATOM      8  C   UNL     1       2.377  -6.868   1.268  0.00  0.00    +0.042 A 
ATOM      9  C   UNL     1       2.226  -5.728   2.049  0.00  0.00    +0.065 A 
ATOM     10 BR   UNL     1       3.746  -4.879   2.788  0.00  0.00    -0.046 Br
ATOM     11 CL   UNL     1      -1.398  -7.737   0.280  0.00  0.00    -0.083 Cl
BRANCH   8  12
ATOM     12  N   UNL     1       3.651  -7.389   1.029  0.00  0.00    -0.357 N 
ATOM     13  H   UNL     1       3.755  -8.183   0.481  0.00  0.00    +0.142 HD
ATOM     14  H   UNL     1       4.431  -6.957   1.411  0.00  0.00    +0.142 HD
ENDBRANCH   8  12
ENDBRANCH   1   4
BRANCH   1  15
ATOM     15  N   UNL     1       1.518  -2.529   2.487  0.00  0.00    -0.189 NA
ATOM     16  H   UNL     1       2.290  -2.095   2.882  0.00  0.00    +0.148 HD
BRANCH  15  22
ATOM     17  C   UNL     1      -0.415   1.212   0.096  0.00  0.00    -0.096 C 
ATOM     18  N   UNL     1       0.072  -0.169  -0.020  0.00  0.00    +0.379 N 
ATOM     19  C   UNL     1       1.147  -0.225  -1.018  0.00  0.00    -0.079 C 
ATOM     20  C   UNL     1       1.603  -1.674  -1.202  0.00  0.00    -0.017 C 
ATOM     21  C   UNL     1       2.117  -2.215   0.135  0.00  0.00    +0.017 C 
ATOM     22  C   UNL     1       1.012  -2.083   1.187  0.00  0.00    +0.060 C 
ATOM     23  C   UNL     1       0.578  -0.619   1.282  0.00  0.00    -0.059 C 
ATOM     24  H   UNL     1      -0.686  -0.768  -0.311  0.00  0.00    -0.082 HD
ENDBRANCH  15  22
ENDBRANCH   1  15
TORSDOF 4
