REMARK  Name = ZINC35091964
REMARK  10 active torsions:
REMARK  status: ('A' for Active; 'I' for Inactive)
REMARK    1  A    between atoms: C_1  and  C_2
REMARK    2  A    between atoms: C_2  and  O_3
REMARK    3  A    between atoms: O_3  and  C_4
REMARK    4  A    between atoms: C_7  and  N_10
REMARK    5  A    between atoms: C_20  and  C_21
REMARK    6  A    between atoms: C_21  and  C_23
REMARK    7  A    between atoms: C_21  and  N_24
REMARK    8  A    between atoms: C_28  and  C_31
REMARK    9  A    between atoms: N_34  and  C_35
REMARK   10  A    between atoms: C_40  and  C_41
REMARK                            x       y       z     vdW  Elec       q    Type
REMARK                         _______ _______ _______ _____ _____    ______ ____
ROOT
ATOM      1  C   UNL     1       2.204  -6.195  -3.946  0.00  0.00    -0.003 C 
ATOM      2  C   UNL     1       3.136  -5.126  -3.372  0.00  0.00    -0.005 C 
ENDROOT
BRANCH   1   3
ATOM      3  N   UNL     1       2.829  -6.808  -5.125  0.00  0.00    +0.388 N 
ATOM      4  C   UNL     1       3.002  -5.791  -6.170  0.00  0.00    -0.058 C 
ATOM      5  C   UNL     1       3.757  -6.401  -7.356  0.00  0.00    +0.091 C 
ATOM      6  N   UNL     1       3.039  -7.607  -7.795  0.00  0.00    -0.286 N 
ATOM      7  C   UNL     1       2.679  -8.609  -6.779  0.00  0.00    +0.058 C 
ATOM      8  C   UNL     1       1.975  -7.895  -5.621  0.00  0.00    -0.055 C 
ATOM      9  C   UNL     1       1.741  -9.650  -7.393  0.00  0.00    +0.026 C 
ATOM     10  C   UNL     1       2.719  -7.790  -9.091  0.00  0.00    +0.307 C 
ATOM     11  O   UNL     1       2.048  -8.748  -9.423  0.00  0.00    -0.252 OA
ATOM     12  N   UNL     1       3.141  -6.909 -10.020  0.00  0.00    -0.269 N 
ATOM     13  H   UNL     1       3.724  -6.177  -9.765  0.00  0.00    +0.156 HD
ATOM     14  H   UNL     1       3.732  -7.181  -4.870  0.00  0.00    -0.081 HD
BRANCH  12  15
ATOM     15  C   UNL     1       2.740  -7.051 -11.353  0.00  0.00    +0.038 A 
ATOM     16  C   UNL     1       1.649  -7.851 -11.670  0.00  0.00    +0.023 A 
ATOM     17  C   UNL     1       1.255  -7.989 -12.986  0.00  0.00    +0.002 A 
ATOM     18  C   UNL     1       1.945  -7.332 -13.989  0.00  0.00    +0.000 A 
ATOM     19  C   UNL     1       3.031  -6.535 -13.677  0.00  0.00    +0.005 A 
ATOM     20  C   UNL     1       3.427  -6.388 -12.361  0.00  0.00    -0.029 A 
ATOM     21  C   UNL     1       4.607  -5.515 -12.021  0.00  0.00    +0.045 C 
ENDBRANCH  12  15
ENDBRANCH   1   3
BRANCH   1  32
ATOM     22  N   UNL     1       0.834  -7.149  -2.135  0.00  0.00    -0.266 N 
ATOM     23  C   UNL     1       0.559  -8.078  -1.189  0.00  0.00    +0.266 A 
ATOM     24  O   UNL     1      -0.440  -8.000  -0.498  0.00  0.00    -0.267 OA
ATOM     25  C   UNL     1       1.514  -9.184  -1.030  0.00  0.00    +0.065 A 
ATOM     26  C   UNL     1       1.323 -10.192  -0.086  0.00  0.00    +0.015 A 
ATOM     27  C   UNL     1       2.250 -11.206   0.021  0.00  0.00    +0.001 A 
ATOM     28  C   UNL     1       3.368 -11.231  -0.803  0.00  0.00    +0.002 A 
ATOM     29  C   UNL     1       3.575 -10.246  -1.742  0.00  0.00    +0.028 A 
ATOM     30  C   UNL     1       2.650  -9.207  -1.869  0.00  0.00    +0.078 A 
ATOM     31  N   UNL     1       2.814  -8.216  -2.781  0.00  0.00    -0.235 NA
ATOM     32  C   UNL     1       1.951  -7.254  -2.904  0.00  0.00    +0.104 A 
BRANCH  22  36
ATOM     33  C   UNL     1      -1.777  -3.949  -2.709  0.00  0.00    +0.121 A 
ATOM     34  C   UNL     1      -1.017  -4.024  -1.551  0.00  0.00    +0.047 A 
ATOM     35  C   UNL     1      -0.152  -5.083  -1.361  0.00  0.00    +0.030 A 
ATOM     36  C   UNL     1      -0.044  -6.074  -2.328  0.00  0.00    +0.051 A 
ATOM     37  C   UNL     1      -0.805  -5.998  -3.486  0.00  0.00    +0.030 A 
ATOM     38  C   UNL     1      -1.673  -4.940  -3.674  0.00  0.00    +0.047 A 
BRANCH  33  39
ATOM     39  O   UNL     1      -2.628  -2.905  -2.897  0.00  0.00    -0.492 OA
BRANCH  39  41
ATOM     40  C   UNL     1      -3.689  -0.833  -2.248  0.00  0.00    +0.048 C 
ATOM     41  C   UNL     1      -2.684  -1.920  -1.863  0.00  0.00    +0.225 C 
ENDBRANCH  39  41
ENDBRANCH  33  39
ENDBRANCH  22  36
ENDBRANCH   1  32
TORSDOF 6
