REMARK  Name = ZINC39617351
REMARK  9 active torsions:
REMARK  status: ('A' for Active; 'I' for Inactive)
REMARK    1  A    between atoms: C_1  and  C_2
REMARK    2  A    between atoms: C_2  and  C_3
REMARK    3  A    between atoms: C_2  and  C_4
REMARK    4  A    between atoms: C_2  and  N_5
REMARK    5  A    between atoms: N_5  and  C_6
REMARK    6  A    between atoms: C_6  and  C_7
REMARK    7  A    between atoms: C_7  and  C_9
REMARK    8  A    between atoms: C_11  and  C_17
REMARK    9  A    between atoms: C_12  and  N_16
REMARK                            x       y       z     vdW  Elec       q    Type
REMARK                         _______ _______ _______ _____ _____    ______ ____
ROOT
ATOM      1  C   UNL     1       4.171  -0.081  -2.700  0.00  0.00    +0.017 A 
ATOM      2  C   UNL     1       4.827  -0.526  -3.855  0.00  0.00    +0.025 A 
ATOM      3  C   UNL     1       6.127  -0.178  -4.081  0.00  0.00    +0.077 A 
ATOM      4  C   UNL     1       6.808   0.622  -3.166  0.00  0.00    +0.055 A 
ATOM      5  C   UNL     1       6.164   1.072  -2.014  0.00  0.00    +0.063 A 
ATOM      6  C   UNL     1       4.852   0.729  -1.782  0.00  0.00    +0.033 A 
ATOM      7 CL   UNL     1       7.016   2.068  -0.875  0.00  0.00    -0.082 Cl
ENDROOT
BRANCH   3   8
ATOM      8  C   UNL     1       6.829  -0.660  -5.324  0.00  0.00    +0.419 C 
ATOM      9  F   UNL     1       5.950  -1.440  -6.083  0.00  0.00    -0.166 F 
ATOM     10  F   UNL     1       7.247   0.440  -6.080  0.00  0.00    -0.166 F 
ATOM     11  F   UNL     1       7.942  -1.427  -4.963  0.00  0.00    -0.166 F 
ENDBRANCH   3   8
BRANCH   4  12
ATOM     12  N   UNL     1       8.131   0.972  -3.402  0.00  0.00    -0.356 N 
ATOM     13  H   UNL     1       8.580   0.660  -4.203  0.00  0.00    +0.142 HD
ATOM     14  H   UNL     1       8.607   1.529  -2.765  0.00  0.00    +0.142 HD
ENDBRANCH   4  12
BRANCH   1  15
ATOM     15  C   UNL     1       2.773  -0.455  -2.457  0.00  0.00    +0.146 C 
ATOM     16  O   UNL     1       2.186  -1.156  -3.254  0.00  0.00    -0.294 OA
BRANCH  15  17
ATOM     17  C   UNL     1       2.068   0.031  -1.217  0.00  0.00    -0.001 C 
BRANCH  17  18
ATOM     18  N   UNL     1       0.690  -0.478  -1.207  0.00  0.00    +0.387 N 
ATOM     19  H   UNL     1       0.703  -1.487  -1.212  0.00  0.00    -0.085 HD
ATOM     20  H   UNL     1       0.202  -0.144  -2.024  0.00  0.00    -0.085 HD
BRANCH  18  22
ATOM     21  C   UNL     1      -0.019   1.526   0.010  0.00  0.00    -0.011 C 
ATOM     22  C   UNL     1       0.002  -0.004   0.002  0.00  0.00    -0.076 C 
ATOM     23  C   UNL     1       0.742  -0.511   1.242  0.00  0.00    -0.011 C 
ATOM     24  C   UNL     1      -1.433  -0.534   0.013  0.00  0.00    -0.011 C 
ENDBRANCH  18  22
ENDBRANCH  17  18
ENDBRANCH  15  17
ENDBRANCH   1  15
TORSDOF 6
