REMARK  Name = ZINC12470955
REMARK  11 active torsions:
REMARK  status: ('A' for Active; 'I' for Inactive)
REMARK    1  A    between atoms: C_1  and  C_2
REMARK    2  A    between atoms: C_2  and  O_3
REMARK    3  A    between atoms: O_3  and  C_4
REMARK    4  A    between atoms: C_4  and  C_6
REMARK    5  A    between atoms: C_7  and  C_27
REMARK    6  A    between atoms: N_8  and  C_26
REMARK    7  A    between atoms: C_17  and  N_20
REMARK    8  A    between atoms: C_18  and  O_19
REMARK    9  A    between atoms: C_27  and  N_28
REMARK   10  A    between atoms: N_28  and  C_29
REMARK   11  A    between atoms: N_28  and  C_30
REMARK                            x       y       z     vdW  Elec       q    Type
REMARK                         _______ _______ _______ _____ _____    ______ ____
ROOT
ATOM      1  C   UNL     1       1.466  -2.348  -2.523  0.00  0.00    +0.086 A 
ATOM      2  C   UNL     1       2.813  -2.611  -2.664  0.00  0.00    +0.017 A 
ATOM      3  N   UNL     1       3.051  -3.074  -3.903  0.00  0.00    -0.345 N 
ATOM      4  C   UNL     1       1.879  -3.136  -4.633  0.00  0.00    +0.095 A 
ATOM      5  C   UNL     1       0.843  -2.694  -3.806  0.00  0.00    +0.025 A 
ATOM      6  C   UNL     1      -0.531  -2.651  -4.302  0.00  0.00    -0.005 A 
ATOM      7  C   UNL     1      -1.585  -2.208  -3.496  0.00  0.00    +0.024 A 
ATOM      8  C   UNL     1      -2.856  -2.183  -3.997  0.00  0.00    +0.018 A 
ATOM      9  C   UNL     1      -3.116  -2.592  -5.300  0.00  0.00    +0.016 A 
ATOM     10  C   UNL     1      -2.106  -3.029  -6.110  0.00  0.00    +0.012 A 
ATOM     11  C   UNL     1      -0.797  -3.065  -5.625  0.00  0.00    +0.013 A 
ATOM     12  C   UNL     1       0.316  -3.527  -6.465  0.00  0.00    +0.133 A 
ATOM     13  C   UNL     1       1.617  -3.544  -5.947  0.00  0.00    +0.169 A 
ATOM     14 BR   UNL     1      -4.279  -1.585  -2.905  0.00  0.00    -0.050 Br
ATOM     15  C   UNL     1       4.371  -3.458  -4.410  0.00  0.00    +0.149 C 
ENDROOT
BRANCH  12  16
ATOM     16  N   UNL     1       0.088  -3.926  -7.724  0.00  0.00    -0.175 NA
ATOM     17  N   UNL     1       0.827  -3.483  -8.684  0.00  0.00    -0.190 N 
ATOM     18  C   UNL     1       0.538  -3.808  -9.965  0.00  0.00    +0.317 C 
ATOM     19  O   UNL     1       1.235  -3.391 -10.870  0.00  0.00    -0.251 OA
ATOM     20  N   UNL     1      -0.522  -4.595 -10.238  0.00  0.00    -0.312 N 
ATOM     21  H   UNL     1      -1.077  -4.928  -9.515  0.00  0.00    +0.147 HD
ATOM     22  H   UNL     1      -0.729  -4.828 -11.156  0.00  0.00    +0.147 HD
ATOM     23  H   UNL     1       1.589  -2.917  -8.488  0.00  0.00    +0.179 HD
ENDBRANCH  12  16
BRANCH   1  24
ATOM     24  C   UNL     1       0.789  -1.831  -1.326  0.00  0.00    +0.341 C 
ATOM     25  O   UNL     1       0.356  -2.602  -0.491  0.00  0.00    -0.245 OA
BRANCH  24  26
ATOM     26  O   UNL     1       0.648  -0.501  -1.153  0.00  0.00    -0.461 OA
BRANCH  26  28
ATOM     27  C   UNL     1      -0.084   1.460   0.056  0.00  0.00    +0.048 C 
ATOM     28  C   UNL     1      -0.020  -0.069   0.034  0.00  0.00    +0.229 C 
ENDBRANCH  26  28
ENDBRANCH  24  26
ENDBRANCH   1  24
BRANCH  13  29
ATOM     29  O   UNL     1       2.638  -3.974  -6.726  0.00  0.00    -0.503 OA
ATOM     30  H   UNL     1       2.803  -4.925  -6.669  0.00  0.00    +0.292 HD
ENDBRANCH  13  29
BRANCH   2  31
ATOM     31  C   UNL     1       3.855  -2.411  -1.595  0.00  0.00    -0.024 C 
BRANCH  31  32
ATOM     32  N   UNL     1       4.401  -1.051  -1.691  0.00  0.00    +0.380 N 
ATOM     33  C   UNL     1       3.343  -0.077  -1.389  0.00  0.00    -0.096 C 
ATOM     34  C   UNL     1       5.499  -0.894  -0.728  0.00  0.00    -0.096 C 
ATOM     35  H   UNL     1       4.747  -0.892  -2.625  0.00  0.00    -0.082 HD
ENDBRANCH  31  32
ENDBRANCH   2  31
TORSDOF 7
