REMARK  Name = ZINC33386987
REMARK  10 active torsions:
REMARK  status: ('A' for Active; 'I' for Inactive)
REMARK    1  A    between atoms: C_1  and  C_2
REMARK    2  A    between atoms: C_2  and  N_3
REMARK    3  A    between atoms: N_6  and  C_9
REMARK    4  A    between atoms: C_10  and  C_20
REMARK    5  A    between atoms: C_11  and  C_19
REMARK    6  A    between atoms: C_12  and  C_17
REMARK    7  A    between atoms: N_15  and  C_16
REMARK    8  A    between atoms: N_24  and  C_28
REMARK    9  A    between atoms: C_28  and  C_29
REMARK   10  A    between atoms: C_28  and  C_30
REMARK                            x       y       z     vdW  Elec       q    Type
REMARK                         _______ _______ _______ _____ _____    ______ ____
ROOT
ATOM      1  C   UNL     1       1.588  -2.496  -4.717  0.00  0.00    +0.111 A 
ATOM      2  C   UNL     1       1.032  -2.227  -5.978  0.00  0.00    +0.019 A 
ATOM      3  C   UNL     1       1.711  -2.642  -7.136  0.00  0.00    -0.017 A 
ATOM      4  C   UNL     1       2.924  -3.312  -7.000  0.00  0.00    +0.120 A 
ATOM      5  C   UNL     1       3.443  -3.558  -5.704  0.00  0.00    +0.270 A 
ATOM      6  O   UNL     1       4.505  -4.144  -5.579  0.00  0.00    -0.266 OA
ATOM      7  N   UNL     1       2.776  -3.146  -4.611  0.00  0.00    -0.298 N 
ATOM      8  C   UNL     1       3.337  -3.408  -3.283  0.00  0.00    +0.154 C 
ATOM      9  C   UNL     1       1.137  -2.367  -8.501  0.00  0.00    +0.046 C 
ENDROOT
BRANCH   2  10
ATOM     10  C   UNL     1      -0.246  -1.521  -6.086  0.00  0.00    +0.032 C 
ATOM     11  C   UNL     1      -1.342  -2.167  -6.569  0.00  0.00    +0.077 C 
ATOM     12  C   UNL     1      -2.647  -1.659  -6.850  0.00  0.00    +0.259 C 
ATOM     13  O   UNL     1      -2.916  -0.486  -6.663  0.00  0.00    -0.269 OA
ATOM     14  N   UNL     1      -3.551  -2.498  -7.324  0.00  0.00    -0.253 N 
ATOM     15  C   UNL     1      -3.254  -3.801  -7.524  0.00  0.00    +0.121 C 
ATOM     16  S   UNL     1      -4.261  -5.052  -8.115  0.00  0.00    -0.027 S 
ATOM     17  S   UNL     1      -1.543  -3.886  -7.016  0.00  0.00    -0.061 S 
BRANCH  14  18
ATOM     18  C   UNL     1      -4.898  -2.010  -7.630  0.00  0.00    +0.077 C 
ATOM     19  C   UNL     1      -5.200  -2.240  -9.112  0.00  0.00    +0.028 C 
ATOM     20  C   UNL     1      -5.920  -2.765  -6.778  0.00  0.00    +0.028 C 
ENDBRANCH  14  18
ENDBRANCH   2  10
BRANCH   1  24
ATOM     21  N   UNL     1      -1.146  -0.808  -2.131  0.00  0.00    +0.382 N 
ATOM     22  C   UNL     1      -1.082  -2.274  -2.211  0.00  0.00    -0.060 C 
ATOM     23  C   UNL     1      -0.412  -2.682  -3.525  0.00  0.00    +0.088 C 
ATOM     24  N   UNL     1       0.933  -2.095  -3.589  0.00  0.00    -0.320 N 
ATOM     25  C   UNL     1       0.870  -0.629  -3.509  0.00  0.00    +0.088 C 
ATOM     26  C   UNL     1       0.200  -0.221  -2.195  0.00  0.00    -0.060 C 
ATOM     27  H   UNL     1      -1.716  -0.445  -2.999  0.00  0.00    -0.082 HD
BRANCH  21  29
ATOM     28  C   UNL     1      -3.320  -0.797  -1.003  0.00  0.00    -0.017 C 
ATOM     29  C   UNL     1      -1.851  -0.377  -0.917  0.00  0.00    -0.082 C 
ENDBRANCH  21  29
ENDBRANCH   1  24
BRANCH   4  30
ATOM     30  C   UNL     1       3.642  -3.748  -8.160  0.00  0.00    +0.105 C 
ATOM     31  N   UNL     1       4.211  -4.095  -9.081  0.00  0.00    -0.191 NA
ENDBRANCH   4  30
TORSDOF 5
