REMARK  Name = ZINC39530003
REMARK  7 active torsions:
REMARK  status: ('A' for Active; 'I' for Inactive)
REMARK    1  A    between atoms: C_4  and  O_7
REMARK    2  A    between atoms: O_7  and  S_8
REMARK    3  A    between atoms: S_8  and  C_11
REMARK    4  A    between atoms: N_14  and  C_18
REMARK    5  A    between atoms: C_21  and  O_31
REMARK    6  A    between atoms: C_23  and  C_24
REMARK    7  A    between atoms: C_29  and  O_30
REMARK                            x       y       z     vdW  Elec       q    Type
REMARK                         _______ _______ _______ _____ _____    ______ ____
ROOT
ATOM      1  C   UNL     1       2.848  -2.419   1.844  0.00  0.00    +0.133 C 
ATOM      2  C   UNL     1       3.056  -2.723   3.332  0.00  0.00    +0.115 C 
ATOM      3  N   UNL     1       2.163  -3.829   3.711  0.00  0.00    -0.331 N 
ATOM      4  C   UNL     1       0.741  -3.726   3.349  0.00  0.00    +0.086 C 
ATOM      5  C   UNL     1       0.642  -3.375   1.861  0.00  0.00    -0.061 C 
ATOM      6  N   UNL     1       1.425  -2.162   1.592  0.00  0.00    +0.398 N 
ATOM      7  H   UNL     1       1.107  -1.418   2.195  0.00  0.00    -0.083 HD
ATOM      8  H   UNL     1       1.299  -1.888   0.629  0.00  0.00    -0.083 HD
ENDROOT
BRANCH   3   9
ATOM      9  C   UNL     1       2.651  -4.945   4.395  0.00  0.00    +0.038 A 
ATOM     10  C   UNL     1       2.979  -6.099   3.699  0.00  0.00    +0.027 A 
ATOM     11  C   UNL     1       3.462  -7.203   4.375  0.00  0.00    +0.047 A 
ATOM     12  C   UNL     1       3.623  -7.164   5.753  0.00  0.00    +0.118 A 
ATOM     13  C   UNL     1       3.299  -6.018   6.460  0.00  0.00    +0.055 A 
ATOM     14  C   UNL     1       2.817  -4.899   5.784  0.00  0.00    +0.010 A 
BRANCH  14  15
ATOM     15  C   UNL     1       2.474  -3.667   6.535  0.00  0.00    +0.025 A 
ATOM     16  C   UNL     1       3.479  -2.915   7.140  0.00  0.00    +0.012 A 
ATOM     17  C   UNL     1       3.155  -1.768   7.837  0.00  0.00    +0.001 A 
ATOM     18  C   UNL     1       1.835  -1.363   7.937  0.00  0.00    +0.004 A 
ATOM     19  C   UNL     1       0.832  -2.102   7.340  0.00  0.00    +0.046 A 
ATOM     20  C   UNL     1       1.143  -3.252   6.633  0.00  0.00    +0.125 A 
BRANCH  20  21
ATOM     21  O   UNL     1       0.158  -3.976   6.041  0.00  0.00    -0.506 OA
ATOM     22  H   UNL     1      -0.222  -4.661   6.608  0.00  0.00    +0.292 HD
ENDBRANCH  20  21
ENDBRANCH  14  15
BRANCH  12  23
ATOM     23  O   UNL     1       4.098  -8.255   6.412  0.00  0.00    -0.507 OA
ATOM     24  H   UNL     1       5.061  -8.274   6.498  0.00  0.00    +0.292 HD
ENDBRANCH  12  23
ENDBRANCH   3   9
BRANCH   1  25
ATOM     25  S   UNL     1       3.818  -0.957   1.385  0.00  0.00    +0.109 S 
ATOM     26  O   UNL     1       5.205  -1.267   1.391  0.00  0.00    -0.138 OA
ATOM     27  O   UNL     1       3.329   0.189   2.068  0.00  0.00    -0.138 OA
BRANCH  25  28
ATOM     28  O   UNL     1       3.482  -0.709  -0.079  0.00  0.00    -0.347 OA
BRANCH  28  32
ATOM     29  C   UNL     1       5.298  -3.337  -2.688  0.00  0.00    +0.000 A 
ATOM     30  C   UNL     1       4.091  -3.670  -2.103  0.00  0.00    +0.004 A 
ATOM     31  C   UNL     1       3.480  -2.791  -1.228  0.00  0.00    +0.048 A 
ATOM     32  C   UNL     1       4.080  -1.575  -0.938  0.00  0.00    +0.156 A 
ATOM     33  C   UNL     1       5.292  -1.244  -1.526  0.00  0.00    +0.048 A 
ATOM     34  C   UNL     1       5.898  -2.126  -2.400  0.00  0.00    +0.004 A 
ENDBRANCH  28  32
ENDBRANCH  25  28
ENDBRANCH   1  25
TORSDOF 7
