REMARK  Name = ZINC43283215
REMARK  8 active torsions:
REMARK  status: ('A' for Active; 'I' for Inactive)
REMARK    1  A    between atoms: C_1  and  C_2
REMARK    2  A    between atoms: C_2  and  C_3
REMARK    3  A    between atoms: C_3  and  C_5
REMARK    4  A    between atoms: C_3  and  N_21
REMARK    5  A    between atoms: C_5  and  C_7
REMARK    6  A    between atoms: C_5  and  O_13
REMARK    7  A    between atoms: O_13  and  C_14
REMARK    8  A    between atoms: C_14  and  C_15
REMARK                            x       y       z     vdW  Elec       q    Type
REMARK                         _______ _______ _______ _____ _____    ______ ____
ROOT
ATOM      1  C   UNL     1       0.736  -2.131   1.280  0.00  0.00    +0.140 C 
ENDROOT
BRANCH   1   2
ATOM      2  C   UNL     1       1.494  -2.871   2.353  0.00  0.00    +0.018 A 
ATOM      3  C   UNL     1       2.785  -3.281   2.356  0.00  0.00    +0.015 A 
ATOM      4  C   UNL     1       3.274  -3.951   3.462  0.00  0.00    +0.023 A 
ATOM      5  C   UNL     1       2.445  -4.178   4.512  0.00  0.00    +0.055 A 
ATOM      6  S   UNL     1       0.925  -3.427   3.951  0.00  0.00    -0.084 S 
ATOM      7 BR   UNL     1       2.807  -5.056   6.147  0.00  0.00    -0.043 Br
ENDBRANCH   1   2
BRANCH   1   8
ATOM      8  C   UNL     1       0.779  -0.629   1.569  0.00  0.00    -0.041 C 
BRANCH   8   9
ATOM      9  N   UNL     1       0.153   0.101   0.459  0.00  0.00    +0.382 N 
ATOM     10  H   UNL     1       0.275   1.093   0.598  0.00  0.00    -0.090 HD
ATOM     11  H   UNL     1       0.585  -0.173  -0.410  0.00  0.00    -0.090 HD
ATOM     12  H   UNL     1      -0.833  -0.115   0.428  0.00  0.00    -0.090 HD
ENDBRANCH   8   9
BRANCH   8  14
ATOM     13  C   UNL     1       0.155   1.147   3.212  0.00  0.00    +0.002 C 
ATOM     14  C   UNL     1       0.020  -0.337   2.865  0.00  0.00    -0.017 C 
ENDBRANCH   8  14
ENDBRANCH   1   8
BRANCH   1  15
ATOM     15  O   UNL     1      -0.622  -2.574   1.266  0.00  0.00    -0.373 OA
BRANCH  15  16
ATOM     16  C   UNL     1      -1.177  -2.705  -0.045  0.00  0.00    +0.166 C 
BRANCH  16  17
ATOM     17  C   UNL     1      -2.647  -3.114   0.061  0.00  0.00    +0.043 C 
ATOM     18  C   UNL     1      -3.250  -3.340  -1.346  0.00  0.00    +0.036 C 
ATOM     19  C   UNL     1      -4.658  -2.707  -1.202  0.00  0.00    +0.160 C 
ATOM     20  O   UNL     1      -4.426  -1.560  -0.357  0.00  0.00    -0.379 OA
ATOM     21  C   UNL     1      -3.485  -1.965   0.655  0.00  0.00    +0.165 C 
ENDBRANCH  16  17
ENDBRANCH  15  16
ENDBRANCH   1  15
TORSDOF 7
