REMARK  Name = ZINC02794185
REMARK  10 active torsions:
REMARK  status: ('A' for Active; 'I' for Inactive)
REMARK    1  A    between atoms: C_1  and  C_2
REMARK    2  A    between atoms: C_7  and  N_8
REMARK    3  A    between atoms: N_8  and  C_9
REMARK    4  A    between atoms: C_9  and  N_11
REMARK    5  A    between atoms: N_11  and  N_12
REMARK    6  A    between atoms: C_13  and  C_15
REMARK    7  A    between atoms: C_20  and  C_34
REMARK    8  A    between atoms: C_23  and  C_26
REMARK    9  A    between atoms: C_29  and  C_33
REMARK   10  A    between atoms: C_30  and  C_32
REMARK                            x       y       z     vdW  Elec       q    Type
REMARK                         _______ _______ _______ _____ _____    ______ ____
ROOT
ATOM      1  C   UNL     1       2.360   1.125   0.445  0.00  0.00    +0.150 A 
ATOM      2  C   UNL     1       3.623   1.757   0.485  0.00  0.00    +0.078 A 
ATOM      3  C   UNL     1       4.519   0.850   0.920  0.00  0.00    +0.119 A 
ATOM      4  N   UNL     1       3.860  -0.326   1.142  0.00  0.00    -0.238 N 
ATOM      5  N   UNL     1       2.514  -0.127   0.839  0.00  0.00    -0.164 NA
ATOM      6  C   UNL     1       4.516  -1.549   1.615  0.00  0.00    +0.215 C 
ATOM      7  C   UNL     1       6.021  -1.439   1.349  0.00  0.00    +0.063 C 
ATOM      8  C   UNL     1       6.549  -0.102   1.879  0.00  0.00    +0.104 C 
ATOM      9  N   UNL     1       5.893   0.991   1.134  0.00  0.00    -0.322 N 
ATOM     10  H   UNL     1       6.484   1.850   0.783  0.00  0.00    +0.148 HD
ENDROOT
BRANCH   8  11
ATOM     11  C   UNL     1       8.041  -0.031   1.678  0.00  0.00    -0.027 A 
ATOM     12  C   UNL     1       8.558   0.292   0.437  0.00  0.00    +0.006 A 
ATOM     13  C   UNL     1       9.926   0.361   0.255  0.00  0.00    +0.004 A 
ATOM     14  C   UNL     1      10.778   0.097   1.311  0.00  0.00    -0.048 A 
ATOM     15  C   UNL     1      10.262  -0.232   2.550  0.00  0.00    -0.047 A 
ATOM     16  C   UNL     1       8.894  -0.296   2.734  0.00  0.00    +0.009 A 
ATOM     17  C   UNL     1      11.192  -0.520   3.701  0.00  0.00    +0.044 C 
ATOM     18  C   UNL     1      12.271   0.167   1.110  0.00  0.00    +0.044 C 
ENDBRANCH   8  11
BRANCH   1  20
ATOM     19  N   UNL     1      -0.051   1.033   0.032  0.00  0.00    -0.230 N 
ATOM     20  C   UNL     1       1.089   1.752   0.029  0.00  0.00    +0.280 C 
ATOM     21  O   UNL     1       1.071   2.918  -0.315  0.00  0.00    -0.267 OA
ATOM     22  H   UNL     1      -0.035  -0.021   0.348  0.00  0.00    +0.173 HD
BRANCH  19  23
ATOM     23  N   UNL     1      -1.255   1.626  -0.368  0.00  0.00    -0.245 N 
ATOM     24  H   UNL     1      -1.272   2.681  -0.680  0.00  0.00    +0.172 HD
BRANCH  23  25
ATOM     25  C   UNL     1      -2.393   0.905  -0.371  0.00  0.00    +0.151 C 
ATOM     26  S   UNL     1      -3.865   1.630  -0.859  0.00  0.00    -0.017 S 
BRANCH  25  27
ATOM     27  N   UNL     1      -2.373  -0.388   0.011  0.00  0.00    -0.296 N 
ATOM     28  H   UNL     1      -1.416  -0.879   0.238  0.00  0.00    +0.154 HD
BRANCH  27  35
ATOM     29  C   UNL     1      -2.466  -3.019  -1.067  0.00  0.00    +0.045 C 
ATOM     30  C   UNL     1      -3.659  -2.391  -0.394  0.00  0.00    -0.029 A 
ATOM     31  C   UNL     1      -4.840  -3.098  -0.282  0.00  0.00    +0.005 A 
ATOM     32  C   UNL     1      -5.938  -2.520   0.330  0.00  0.00    +0.000 A 
ATOM     33  C   UNL     1      -5.854  -1.236   0.837  0.00  0.00    +0.002 A 
ATOM     34  C   UNL     1      -4.674  -0.527   0.733  0.00  0.00    +0.023 A 
ATOM     35  C   UNL     1      -3.570  -1.104   0.119  0.00  0.00    +0.036 A 
ENDBRANCH  27  35
ENDBRANCH  25  27
ENDBRANCH  23  25
ENDBRANCH  19  23
ENDBRANCH   1  20
BRANCH   6  36
ATOM     36  C   UNL     1       3.949  -2.757   0.867  0.00  0.00    +0.412 C 
ATOM     37  F   UNL     1       4.180  -2.606  -0.505  0.00  0.00    -0.168 F 
ATOM     38  F   UNL     1       4.576  -3.922   1.320  0.00  0.00    -0.168 F 
ATOM     39  F   UNL     1       2.573  -2.846   1.101  0.00  0.00    -0.168 F 
ENDBRANCH   6  36
TORSDOF 7
