REMARK  Name = ZINC15202723
REMARK  9 active torsions:
REMARK  status: ('A' for Active; 'I' for Inactive)
REMARK    1  A    between atoms: C_1  and  N_2
REMARK    2  A    between atoms: N_2  and  C_3
REMARK    3  A    between atoms: N_2  and  C_4
REMARK    4  A    between atoms: C_7  and  C_10
REMARK    5  A    between atoms: C_13  and  C_18
REMARK    6  A    between atoms: C_13  and  O_22
REMARK    7  A    between atoms: C_14  and  C_16
REMARK    8  A    between atoms: C_16  and  C_17
REMARK    9  A    between atoms: C_17  and  N_40
REMARK                            x       y       z     vdW  Elec       q    Type
REMARK                         _______ _______ _______ _____ _____    ______ ____
ROOT
ATOM      1  C   UNL     1      -0.136  -0.410  -2.610  0.00  0.00    +0.097 C 
ATOM      2  N   UNL     1      -1.034  -0.687  -3.497  0.00  0.00    -0.085 NA
ATOM      3  O   UNL     1      -1.629   0.468  -4.056  0.00  0.00    -0.348 OA
ATOM      4  C   UNL     1      -0.767   1.587  -3.764  0.00  0.00    +0.340 C 
ATOM      5  C   UNL     1      -0.037   1.099  -2.490  0.00  0.00    +0.123 C 
ENDROOT
BRANCH   1   9
ATOM      6  C   UNL     1       2.143  -3.236  -0.408  0.00  0.00    +0.029 A 
ATOM      7  C   UNL     1       1.204  -3.674  -1.338  0.00  0.00    +0.024 A 
ATOM      8  C   UNL     1       0.464  -2.760  -2.054  0.00  0.00    +0.011 A 
ATOM      9  C   UNL     1       0.655  -1.391  -1.845  0.00  0.00    +0.000 A 
ATOM     10  C   UNL     1       1.603  -0.955  -0.915  0.00  0.00    +0.011 A 
ATOM     11  C   UNL     1       2.336  -1.875  -0.198  0.00  0.00    +0.024 A 
BRANCH   6  13
ATOM     12  C   UNL     1       2.688  -5.598   0.095  0.00  0.00    +0.129 C 
ATOM     13  N   UNL     1       2.890  -4.164   0.314  0.00  0.00    -0.336 N 
ATOM     14  C   UNL     1       3.879  -3.705   1.293  0.00  0.00    +0.129 C 
ENDBRANCH   6  13
ENDBRANCH   1   9
BRANCH   4  15
ATOM     15  C   UNL     1      -1.585   2.848  -3.478  0.00  0.00    +0.459 C 
ATOM     16  F   UNL     1      -0.733   3.864  -3.032  0.00  0.00    -0.164 F 
ATOM     17  F   UNL     1      -2.230   3.260  -4.649  0.00  0.00    -0.164 F 
ATOM     18  F   UNL     1      -2.538   2.572  -2.492  0.00  0.00    -0.164 F 
ENDBRANCH   4  15
BRANCH   4  19
ATOM     19  O   UNL     1       0.159   1.810  -4.830  0.00  0.00    -0.347 OA
ATOM     20  H   UNL     1      -0.253   2.117  -5.650  0.00  0.00    +0.214 HD
ENDBRANCH   4  19
BRANCH   5  21
ATOM     21  C   UNL     1      -0.753   1.593  -1.232  0.00  0.00    -0.003 C 
BRANCH  21  22
ATOM     22  C   UNL     1      -0.013   1.086   0.008  0.00  0.00    -0.086 C 
BRANCH  22  25
ATOM     23  H   UNL     1      -0.230   1.238   2.050  0.00  0.00    -0.090 HD
ATOM     24  H   UNL     1      -0.784   2.565   1.214  0.00  0.00    -0.090 HD
ATOM     25  N   UNL     1      -0.723   1.548   1.214  0.00  0.00    +0.378 N 
ATOM     26  H   UNL     1      -1.671   1.155   1.218  0.00  0.00    -0.090 HD
ENDBRANCH  22  25
ENDBRANCH  21  22
ENDBRANCH   5  21
TORSDOF 7
