REMARK  Name = ZINC61882436
REMARK  6 active torsions:
REMARK  status: ('A' for Active; 'I' for Inactive)
REMARK    1  A    between atoms: C_1  and  N_2
REMARK    2  A    between atoms: C_6  and  C_9
REMARK    3  A    between atoms: C_9  and  N_10
REMARK    4  A    between atoms: N_10  and  S_11
REMARK    5  A    between atoms: S_11  and  C_14
REMARK    6  A    between atoms: C_18  and  N_21
REMARK                            x       y       z     vdW  Elec       q    Type
REMARK                         _______ _______ _______ _____ _____    ______ ____
ROOT
ATOM      1  S   UNL     1       2.901  -4.714   3.200  0.00  0.00    +0.060 S 
ATOM      2  O   UNL     1       3.033  -6.088   2.861  0.00  0.00    -0.153 OA
ATOM      3  O   UNL     1       3.978  -3.795   3.086  0.00  0.00    -0.153 OA
ENDROOT
BRANCH   1   4
ATOM      4  C   UNL     1       2.366  -4.659   4.878  0.00  0.00    +0.122 A 
ATOM      5  C   UNL     1       3.023  -3.848   5.785  0.00  0.00    +0.049 A 
ATOM      6  C   UNL     1       2.607  -3.801   7.104  0.00  0.00    +0.045 A 
ATOM      7  C   UNL     1       1.531  -4.566   7.518  0.00  0.00    +0.044 A 
ATOM      8  C   UNL     1       0.870  -5.380   6.609  0.00  0.00    +0.042 A 
ATOM      9  C   UNL     1       1.288  -5.421   5.284  0.00  0.00    +0.065 A 
ATOM     10 BR   UNL     1       0.386  -6.523   4.040  0.00  0.00    -0.046 Br
ATOM     11 CL   UNL     1       3.435  -2.783   8.239  0.00  0.00    -0.083 Cl
BRANCH   8  12
ATOM     12  N   UNL     1      -0.217  -6.154   7.024  0.00  0.00    -0.357 N 
ATOM     13  H   UNL     1      -0.510  -6.122   7.948  0.00  0.00    +0.142 HD
ATOM     14  H   UNL     1      -0.678  -6.723   6.388  0.00  0.00    +0.142 HD
ENDBRANCH   8  12
ENDBRANCH   1   4
BRANCH   1  15
ATOM     15  N   UNL     1       1.667  -4.114   2.272  0.00  0.00    -0.190 NA
ATOM     16  H   UNL     1       1.214  -4.689   1.636  0.00  0.00    +0.148 HD
BRANCH  15  17
ATOM     17  C   UNL     1       1.259  -2.714   2.413  0.00  0.00    +0.107 C 
BRANCH  17  23
ATOM     18  C   UNL     1      -1.018   1.013   0.201  0.00  0.00    -0.096 C 
ATOM     19  N   UNL     1      -0.770  -0.434   0.158  0.00  0.00    +0.378 N 
ATOM     20  C   UNL     1      -2.051  -1.150   0.211  0.00  0.00    -0.079 C 
ATOM     21  C   UNL     1      -1.804  -2.655   0.085  0.00  0.00    -0.018 C 
ATOM     22  C   UNL     1      -0.911  -3.118   1.239  0.00  0.00    +0.001 C 
ATOM     23  C   UNL     1       0.392  -2.313   1.219  0.00  0.00    -0.012 C 
ATOM     24  C   UNL     1       0.064  -0.821   1.302  0.00  0.00    -0.074 C 
ATOM     25  H   UNL     1      -0.292  -0.668  -0.699  0.00  0.00    -0.082 HD
ENDBRANCH  17  23
ENDBRANCH  15  17
ENDBRANCH   1  15
TORSDOF 5
