REMARK  Name = ZINC17082862
REMARK  9 active torsions:
REMARK  status: ('A' for Active; 'I' for Inactive)
REMARK    1  A    between atoms: C_1  and  C_2
REMARK    2  A    between atoms: C_5  and  S_7
REMARK    3  A    between atoms: S_7  and  C_8
REMARK    4  A    between atoms: C_8  and  C_9
REMARK    5  A    between atoms: C_11  and  C_17
REMARK    6  A    between atoms: C_14  and  O_15
REMARK    7  A    between atoms: O_15  and  C_16
REMARK    8  A    between atoms: N_18  and  N_19
REMARK    9  A    between atoms: C_20  and  C_21
REMARK                            x       y       z     vdW  Elec       q    Type
REMARK                         _______ _______ _______ _____ _____    ______ ____
ROOT
ATOM      1  C   UNL     1       2.034  -1.784  -0.033  0.00  0.00    +0.005 A 
ATOM      2  C   UNL     1       2.174  -2.464   1.157  0.00  0.00    +0.017 A 
ATOM      3  C   UNL     1       2.425  -3.841   1.147  0.00  0.00    -0.005 A 
ATOM      4  C   UNL     1       2.543  -4.517  -0.073  0.00  0.00    +0.013 A 
ATOM      5  C   UNL     1       2.406  -3.826  -1.256  0.00  0.00    +0.046 A 
ATOM      6  C   UNL     1       2.152  -2.460  -1.241  0.00  0.00    +0.124 A 
ENDROOT
BRANCH   6   7
ATOM      7  O   UNL     1       2.018  -1.783  -2.410  0.00  0.00    -0.495 OA
ATOM      8  C   UNL     1       2.151  -2.539  -3.616  0.00  0.00    +0.277 C 
ENDBRANCH   6   7
BRANCH   3   9
ATOM      9  C   UNL     1       2.570  -4.573   2.413  0.00  0.00    +0.140 C 
ATOM     10  N   UNL     1       2.809  -5.859   2.401  0.00  0.00    -0.180 NA
BRANCH  10  11
ATOM     11  N   UNL     1       2.937  -6.501   3.512  0.00  0.00    -0.263 N 
ATOM     12  C   UNL     1       3.178  -7.794   3.500  0.00  0.00    +0.143 C 
ATOM     13  N   UNL     1       3.295  -8.463   2.299  0.00  0.00    -0.342 N 
ATOM     14  H   UNL     1       3.496  -9.544   2.289  0.00  0.00    +0.144 HD
ATOM     15  H   UNL     1       3.186  -7.915   1.352  0.00  0.00    +0.144 HD
ATOM     16  H   UNL     1       2.843  -5.968   4.470  0.00  0.00    +0.190 HD
BRANCH  12  17
ATOM     17  C   UNL     1       3.323  -8.530   4.772  0.00  0.00    +0.187 A 
ATOM     18  C   UNL     1       3.346  -7.997   6.155  0.00  0.00    +0.191 A 
ATOM     19  N   UNL     1       3.494  -9.083   6.876  0.00  0.00    -0.033 NA
ATOM     20  O   UNL     1       3.558 -10.046   6.149  0.00  0.00    -0.240 OA
ATOM     21  N   UNL     1       3.471  -9.825   4.964  0.00  0.00    -0.044 NA
ATOM     22  N   UNL     1       3.235  -6.680   6.580  0.00  0.00    -0.339 N 
ATOM     23  H   UNL     1       3.271  -6.444   7.654  0.00  0.00    +0.144 HD
ATOM     24  H   UNL     1       3.112  -5.873   5.844  0.00  0.00    +0.144 HD
ENDBRANCH  12  17
ENDBRANCH  10  11
ENDBRANCH   3   9
BRANCH   1  25
ATOM     25  C   UNL     1       1.758  -0.302  -0.023  0.00  0.00    +0.115 C 
BRANCH  25  26
ATOM     26  S   UNL     1      -0.030  -0.022  -0.009  0.00  0.00    -0.092 S 
BRANCH  26  31
ATOM     27  C   UNL     1      -0.925   5.810   0.026  0.00  0.00    +0.075 C 
ATOM     28  C   UNL     1      -0.482   4.370   0.016  0.00  0.00    +0.100 A 
ATOM     29  N   UNL     1       0.732   3.857   0.004  0.00  0.00    -0.146 NA
ATOM     30  N   UNL     1       0.936   2.613  -0.004  0.00  0.00    -0.135 NA
ATOM     31  C   UNL     1      -0.063   1.740   0.000  0.00  0.00    +0.159 A 
ATOM     32  S   UNL     1      -1.455   2.866   0.009  0.00  0.00    -0.044 S 
ENDBRANCH  26  31
ENDBRANCH  25  26
ENDBRANCH   1  25
TORSDOF 7
