REMARK  Name = ZINC07623780
REMARK  9 active torsions:
REMARK  status: ('A' for Active; 'I' for Inactive)
REMARK    1  A    between atoms: C_1  and  C_2
REMARK    2  A    between atoms: C_5  and  N_8
REMARK    3  A    between atoms: C_9  and  C_11
REMARK    4  A    between atoms: C_11  and  N_12
REMARK    5  A    between atoms: N_12  and  C_13
REMARK    6  A    between atoms: N_12  and  C_14
REMARK    7  A    between atoms: C_14  and  C_15
REMARK    8  A    between atoms: N_17  and  C_18
REMARK    9  A    between atoms: C_19  and  C_26
REMARK                            x       y       z     vdW  Elec       q    Type
REMARK                         _______ _______ _______ _____ _____    ______ ____
ROOT
ATOM      1  C   UNL     1       0.420  -8.826   3.909  0.00  0.00    +0.201 C 
ATOM      2  O   UNL     1       0.406  -8.043   4.835  0.00  0.00    -0.278 OA
ATOM      3  N   UNL     1       0.426 -10.152   4.148  0.00  0.00    -0.281 N 
ATOM      4  H   UNL     1       0.437 -10.778   3.407  0.00  0.00    +0.155 HD
ENDROOT
BRANCH   3   5
ATOM      5  C   UNL     1       0.417 -10.622   5.452  0.00  0.00    +0.084 A 
ATOM      6  C   UNL     1       0.427 -11.935   5.883  0.00  0.00    +0.068 A 
ATOM      7  C   UNL     1       0.414 -12.167   7.327  0.00  0.00    -0.023 A 
ATOM      8  C   UNL     1       0.393 -11.041   8.063  0.00  0.00    -0.004 A 
ATOM      9  S   UNL     1       0.399  -9.727   6.871  0.00  0.00    -0.077 S 
ATOM     10  C   UNL     1       0.377 -11.336   9.538  0.00  0.00    +0.043 C 
ATOM     11  C   UNL     1      -0.042 -12.820   9.635  0.00  0.00    +0.010 C 
ATOM     12  C   UNL     1       0.422 -13.368   8.270  0.00  0.00    +0.037 C 
BRANCH   6  13
ATOM     13  C   UNL     1       0.449 -13.050   4.931  0.00  0.00    +0.244 C 
ATOM     14  O   UNL     1       1.512 -13.502   4.547  0.00  0.00    -0.270 OA
ATOM     15  N   UNL     1      -0.708 -13.575   4.482  0.00  0.00    -0.325 N 
ATOM     16  H   UNL     1      -1.555 -13.216   4.788  0.00  0.00    +0.145 HD
ATOM     17  H   UNL     1      -0.694 -14.313   3.852  0.00  0.00    +0.145 HD
ENDBRANCH   6  13
ENDBRANCH   3   5
BRANCH   1  18
ATOM     18  C   UNL     1       0.429  -8.315   2.491  0.00  0.00    +0.019 C 
BRANCH  18  19
ATOM     19  N   UNL     1       0.420  -6.846   2.499  0.00  0.00    +0.389 N 
ATOM     20  C   UNL     1       1.667  -6.352   3.099  0.00  0.00    -0.095 C 
ATOM     21  H   UNL     1      -0.366  -6.518   3.040  0.00  0.00    -0.081 HD
BRANCH  19  22
ATOM     22  C   UNL     1       0.309  -6.349   1.121  0.00  0.00    +0.019 C 
BRANCH  22  24
ATOM     23  N   UNL     1       0.059  -4.170  -0.021  0.00  0.00    -0.287 N 
ATOM     24  C   UNL     1       0.175  -4.848   1.138  0.00  0.00    +0.201 C 
ATOM     25  O   UNL     1       0.173  -4.251   2.193  0.00  0.00    -0.278 OA
ATOM     26  H   UNL     1      -0.007  -4.651  -0.861  0.00  0.00    +0.155 HD
BRANCH  23  31
ATOM     27  C   UNL     1      -0.047   1.502   0.014  0.00  0.00    +0.044 C 
ATOM     28  C   UNL     1      -0.019  -0.004   0.005  0.00  0.00    -0.050 A 
ATOM     29  C   UNL     1      -0.605  -0.712   1.038  0.00  0.00    +0.005 A 
ATOM     30  C   UNL     1      -0.581  -2.093   1.033  0.00  0.00    +0.023 A 
ATOM     31  C   UNL     1       0.032  -2.771  -0.013  0.00  0.00    +0.033 A 
ATOM     32  C   UNL     1       0.620  -2.058  -1.049  0.00  0.00    +0.023 A 
ATOM     33  C   UNL     1       0.588  -0.677  -1.040  0.00  0.00    +0.005 A 
ENDBRANCH  23  31
ENDBRANCH  22  24
ENDBRANCH  19  22
ENDBRANCH  18  19
ENDBRANCH   1  18
TORSDOF 7
