REMARK  Name = ZINC03021949
REMARK  8 active torsions:
REMARK  status: ('A' for Active; 'I' for Inactive)
REMARK    1  A    between atoms: C_1  and  C_2
REMARK    2  A    between atoms: C_5  and  N_8
REMARK    3  A    between atoms: C_9  and  C_11
REMARK    4  A    between atoms: C_11  and  S_12
REMARK    5  A    between atoms: S_12  and  C_13
REMARK    6  A    between atoms: C_17  and  C_21
REMARK    7  A    between atoms: N_24  and  C_25
REMARK    8  A    between atoms: C_29  and  C_31
REMARK                            x       y       z     vdW  Elec       q    Type
REMARK                         _______ _______ _______ _____ _____    ______ ____
ROOT
ATOM      1  C   UNL     1       3.864  -6.549  -0.522  0.00  0.00    +0.177 A 
ATOM      2  N   UNL     1       2.632  -6.982  -0.484  0.00  0.00    -0.201 NA
ATOM      3  C   UNL     1       2.331  -8.306  -0.579  0.00  0.00    +0.187 A 
ATOM      4  C   UNL     1       3.432  -9.270  -0.717  0.00  0.00    +0.082 A 
ATOM      5  C   UNL     1       2.864 -10.515  -0.785  0.00  0.00    +0.046 A 
ATOM      6  N   UNL     1       1.532 -10.362  -0.700  0.00  0.00    -0.279 N 
ATOM      7  H   UNL     1       0.874 -11.243  -0.735  0.00  0.00    +0.189 HD
ATOM      8  N   UNL     1       1.218  -9.004  -0.575  0.00  0.00    -0.153 NA
ATOM      9  C   UNL     1       3.602 -11.821  -0.931  0.00  0.00    +0.066 C 
ATOM     10  C   UNL     1       4.806  -8.739  -0.749  0.00  0.00    +0.124 A 
ATOM     11  N   UNL     1       5.840  -9.530  -0.868  0.00  0.00    -0.384 N 
ATOM     12  N   UNL     1       4.957  -7.364  -0.647  0.00  0.00    -0.275 N 
ATOM     13  H   UNL     1       6.855  -9.109  -0.890  0.00  0.00    +0.157 HD
ATOM     14  H   UNL     1       5.694 -10.618  -0.947  0.00  0.00    +0.157 HD
ENDROOT
BRANCH  12  15
ATOM     15  C   UNL     1       6.240  -6.804  -0.672  0.00  0.00    +0.051 A 
ATOM     16  C   UNL     1       7.022  -6.908  -1.816  0.00  0.00    +0.028 A 
ATOM     17  C   UNL     1       8.285  -6.350  -1.840  0.00  0.00    +0.022 A 
ATOM     18  C   UNL     1       8.776  -5.697  -0.723  0.00  0.00    +0.044 A 
ATOM     19  C   UNL     1       8.002  -5.597   0.419  0.00  0.00    -0.030 A 
ATOM     20  C   UNL     1       6.735  -6.148   0.447  0.00  0.00    +0.031 A 
ATOM     21  C   UNL     1       8.539  -4.885   1.634  0.00  0.00    +0.045 C 
ATOM     22 CL   UNL     1      10.367  -5.003  -0.754  0.00  0.00    -0.083 Cl
ENDBRANCH  12  15
BRANCH   1  23
ATOM     23  S   UNL     1       4.135  -4.812  -0.398  0.00  0.00    -0.078 S 
BRANCH  23  24
ATOM     24  C   UNL     1       2.425  -4.236  -0.258  0.00  0.00    +0.173 C 
BRANCH  24  26
ATOM     25  N   UNL     1       1.237  -2.079  -0.020  0.00  0.00    -0.285 N 
ATOM     26  C   UNL     1       2.410  -2.734  -0.137  0.00  0.00    +0.227 C 
ATOM     27  O   UNL     1       3.452  -2.114  -0.144  0.00  0.00    -0.275 OA
ATOM     28  H   UNL     1       0.298  -2.645   0.073  0.00  0.00    +0.155 HD
BRANCH  25  33
ATOM     29  C   UNL     1       1.143   3.593  -0.015  0.00  0.00    +0.044 C 
ATOM     30  C   UNL     1       1.168   2.086  -0.017  0.00  0.00    -0.050 A 
ATOM     31  C   UNL     1       2.111   1.412  -0.771  0.00  0.00    +0.005 A 
ATOM     32  C   UNL     1       2.137   0.031  -0.774  0.00  0.00    +0.023 A 
ATOM     33  C   UNL     1       1.214  -0.680  -0.019  0.00  0.00    +0.033 A 
ATOM     34  C   UNL     1       0.268  -0.001   0.737  0.00  0.00    +0.023 A 
ATOM     35  C   UNL     1       0.248   1.380   0.736  0.00  0.00    +0.005 A 
ENDBRANCH  25  33
ENDBRANCH  24  26
ENDBRANCH  23  24
ENDBRANCH   1  23
TORSDOF 5
