REMARK  Name = ZINC03048943
REMARK  8 active torsions:
REMARK  status: ('A' for Active; 'I' for Inactive)
REMARK    1  A    between atoms: C_1  and  C_2
REMARK    2  A    between atoms: C_5  and  N_9
REMARK    3  A    between atoms: C_10  and  C_12
REMARK    4  A    between atoms: C_12  and  S_13
REMARK    5  A    between atoms: S_13  and  C_14
REMARK    6  A    between atoms: C_15  and  C_20
REMARK    7  A    between atoms: C_20  and  O_22
REMARK    8  A    between atoms: O_22  and  C_23
REMARK                            x       y       z     vdW  Elec       q    Type
REMARK                         _______ _______ _______ _____ _____    ______ ____
ROOT
ATOM      1  C   UNL     1       0.601  -8.710   2.632  0.00  0.00    +0.111 A 
ATOM      2  C   UNL     1       0.720  -9.529   3.769  0.00  0.00    +0.091 A 
ATOM      3  C   UNL     1       0.831 -10.914   3.594  0.00  0.00    +0.019 A 
ATOM      4  C   UNL     1       0.819 -11.416   2.305  0.00  0.00    +0.021 A 
ATOM      5  C   UNL     1       0.699 -10.546   1.235  0.00  0.00    +0.112 A 
ATOM      6  N   UNL     1       0.590  -9.245   1.420  0.00  0.00    -0.248 NA
ENDROOT
BRANCH   2   7
ATOM      7  C   UNL     1       0.728  -8.941   5.119  0.00  0.00    +0.347 C 
ATOM      8  O   UNL     1       0.631  -7.738   5.259  0.00  0.00    -0.244 OA
BRANCH   7   9
ATOM      9  O   UNL     1       0.842  -9.738   6.201  0.00  0.00    -0.421 OA
BRANCH   9  10
ATOM     10  C   UNL     1       0.740  -9.165   7.429  0.00  0.00    +0.150 A 
ATOM     11  C   UNL     1       1.884  -8.872   8.156  0.00  0.00    +0.048 A 
ATOM     12  C   UNL     1       1.777  -8.289   9.405  0.00  0.00    +0.004 A 
ATOM     13  C   UNL     1       0.532  -7.998   9.930  0.00  0.00    +0.002 A 
ATOM     14  C   UNL     1      -0.611  -8.290   9.208  0.00  0.00    +0.024 A 
ATOM     15  C   UNL     1      -0.510  -8.868   7.956  0.00  0.00    +0.083 A 
ATOM     16 CL   UNL     1      -1.944  -9.227   7.046  0.00  0.00    -0.080 Cl
ENDBRANCH   9  10
ENDBRANCH   7   9
ENDBRANCH   2   7
BRANCH   1  17
ATOM     17  S   UNL     1       0.459  -6.964   2.820  0.00  0.00    -0.096 S 
BRANCH  17  18
ATOM     18  C   UNL     1       0.325  -6.348   1.119  0.00  0.00    +0.171 C 
BRANCH  18  20
ATOM     19  N   UNL     1       0.083  -4.167  -0.022  0.00  0.00    -0.285 N 
ATOM     20  C   UNL     1       0.196  -4.847   1.136  0.00  0.00    +0.227 C 
ATOM     21  O   UNL     1       0.195  -4.251   2.192  0.00  0.00    -0.275 OA
ATOM     22  H   UNL     1      -0.001  -4.648  -0.860  0.00  0.00    +0.155 HD
BRANCH  19  27
ATOM     23  C   UNL     1       0.097   1.507   0.009  0.00  0.00    +0.045 C 
ATOM     24  C   UNL     1       0.094  -0.000   0.001  0.00  0.00    -0.032 A 
ATOM     25  C   UNL     1       0.720  -0.698   1.017  0.00  0.00    +0.006 A 
ATOM     26  C   UNL     1       0.718  -2.079   1.012  0.00  0.00    +0.023 A 
ATOM     27  C   UNL     1       0.086  -2.768  -0.015  0.00  0.00    +0.035 A 
ATOM     28  C   UNL     1      -0.543  -2.066  -1.034  0.00  0.00    +0.043 A 
ATOM     29  C   UNL     1      -0.542  -0.683  -1.021  0.00  0.00    +0.046 A 
ATOM     30 CL   UNL     1      -1.333   0.196  -2.292  0.00  0.00    -0.083 Cl
ENDBRANCH  19  27
ENDBRANCH  18  20
ENDBRANCH  17  18
ENDBRANCH   1  17
TORSDOF 7
