REMARK  Name = ZINC17125810
REMARK  4 active torsions:
REMARK  status: ('A' for Active; 'I' for Inactive)
REMARK    1  A    between atoms: C_1  and  C_2
REMARK    2  A    between atoms: C_2  and  C_9
REMARK    3  A    between atoms: N_3  and  N_4
REMARK    4  A    between atoms: N_6  and  C_7
REMARK                            x       y       z     vdW  Elec       q    Type
REMARK                         _______ _______ _______ _____ _____    ______ ____
ROOT
ATOM      1  C   UNL     1       2.436   4.141   0.001  0.00  0.00    -0.002 A 
ATOM      2  C   UNL     1       2.419   5.540   0.003  0.00  0.00    +0.010 A 
ATOM      3  C   UNL     1       3.601   6.243   0.001  0.00  0.00    +0.009 A 
ATOM      4  C   UNL     1       4.824   5.563  -0.015  0.00  0.00    -0.014 A 
ATOM      5  C   UNL     1       4.836   4.169  -0.022  0.00  0.00    -0.035 A 
ATOM      6  C   UNL     1       3.657   3.461  -0.014  0.00  0.00    +0.014 A 
ATOM      7  C   UNL     1       6.280   3.728  -0.038  0.00  0.00    +0.071 C 
ATOM      8  C   UNL     1       7.102   4.993  -0.040  0.00  0.00    -0.034 A 
ATOM      9  C   UNL     1       6.218   6.069  -0.026  0.00  0.00    -0.014 A 
ATOM     10  C   UNL     1       6.723   7.372  -0.024  0.00  0.00    +0.010 A 
ATOM     11  C   UNL     1       8.086   7.582  -0.035  0.00  0.00    +0.020 A 
ATOM     12  C   UNL     1       8.957   6.506  -0.050  0.00  0.00    +0.041 A 
ATOM     13  C   UNL     1       8.463   5.212  -0.052  0.00  0.00    +0.024 A 
ATOM     14 CL   UNL     1      10.672   6.779  -0.065  0.00  0.00    -0.084 Cl
ENDROOT
BRANCH   1  16
ATOM     15  C   UNL     1      -0.146   4.123   0.026  0.00  0.00    +0.068 C 
ATOM     16  C   UNL     1       1.169   3.387   0.009  0.00  0.00    +0.066 C 
ATOM     17  N   UNL     1       1.187   2.089   0.002  0.00  0.00    -0.176 NA
BRANCH  17  18
ATOM     18  N   UNL     1      -0.017   1.372   0.010  0.00  0.00    -0.248 N 
ATOM     19  C   UNL     1       0.002  -0.004   0.002  0.00  0.00    +0.189 C 
ATOM     20  N   UNL     1       1.140  -0.640  -0.012  0.00  0.00    -0.359 N 
ATOM     21  C   UNL     1       1.160  -2.105  -0.020  0.00  0.00    +0.142 C 
ATOM     22  N   UNL     1      -1.180  -0.708   0.009  0.00  0.00    -0.370 N 
ATOM     23  H   UNL     1      -0.977   1.909   0.022  0.00  0.00    +0.192 HD
ATOM     24  H   UNL     1      -1.165  -1.808   0.003  0.00  0.00    +0.159 HD
ATOM     25  H   UNL     1      -2.140  -0.171   0.022  0.00  0.00    +0.159 HD
ATOM     26  H   UNL     1       2.085  -0.077  -0.018  0.00  0.00    +0.162 HD
ENDBRANCH  17  18
ENDBRANCH   1  16
TORSDOF 2
