REMARK  Name = ZINC38688734
REMARK  10 active torsions:
REMARK  status: ('A' for Active; 'I' for Inactive)
REMARK    1  A    between atoms: C_1  and  O_2
REMARK    2  A    between atoms: O_2  and  C_3
REMARK    3  A    between atoms: C_6  and  O_37
REMARK    4  A    between atoms: C_7  and  C_9
REMARK    5  A    between atoms: C_14  and  O_23
REMARK    6  A    between atoms: C_18  and  N_22
REMARK    7  A    between atoms: C_19  and  C_20
REMARK    8  A    between atoms: O_23  and  C_24
REMARK    9  A    between atoms: C_24  and  C_26
REMARK   10  A    between atoms: O_37  and  C_38
REMARK                            x       y       z     vdW  Elec       q    Type
REMARK                         _______ _______ _______ _____ _____    ______ ____
ROOT
ATOM      1  C   UNL     1       1.381  -4.124   2.143  0.00  0.00    +0.102 C 
ATOM      2  C   UNL     1      -0.016  -4.685   2.198  0.00  0.00    +0.008 A 
ATOM      3  C   UNL     1      -0.689  -4.716   3.406  0.00  0.00    +0.012 A 
ATOM      4  C   UNL     1      -1.970  -5.228   3.475  0.00  0.00    +0.047 A 
ATOM      5  C   UNL     1      -2.587  -5.712   2.330  0.00  0.00    +0.135 A 
ATOM      6  C   UNL     1      -1.915  -5.681   1.119  0.00  0.00    +0.093 A 
ATOM      7  C   UNL     1      -0.627  -5.167   1.051  0.00  0.00    +0.138 A 
ATOM      8  O   UNL     1       0.017  -5.144  -0.142  0.00  0.00    -0.441 OA
ATOM      9  C   UNL     1       1.355  -5.026  -0.179  0.00  0.00    +0.199 C 
ATOM     10  C   UNL     1       2.058  -4.549   0.871  0.00  0.00    +0.098 C 
ENDROOT
BRANCH   1  15
ATOM     11  C   UNL     1       0.584  -0.537   1.263  0.00  0.00    +0.121 A 
ATOM     12  C   UNL     1       1.203   0.147   2.299  0.00  0.00    +0.049 A 
ATOM     13  C   UNL     1       1.878  -0.551   3.282  0.00  0.00    +0.049 A 
ATOM     14  C   UNL     1       1.936  -1.936   3.232  0.00  0.00    +0.124 A 
ATOM     15  C   UNL     1       1.317  -2.620   2.197  0.00  0.00    +0.010 A 
ATOM     16  C   UNL     1       0.638  -1.922   1.217  0.00  0.00    +0.053 A 
BRANCH  11  18
ATOM     17  C   UNL     1      -0.095   1.575   0.406  0.00  0.00    +0.277 C 
ATOM     18  O   UNL     1      -0.080   0.150   0.296  0.00  0.00    -0.495 OA
ENDBRANCH  11  18
BRANCH  14  19
ATOM     19  O   UNL     1       2.601  -2.623   4.199  0.00  0.00    -0.495 OA
ATOM     20  C   UNL     1       3.215  -1.854   5.236  0.00  0.00    +0.277 C 
ENDBRANCH  14  19
ENDBRANCH   1  15
BRANCH   9  21
ATOM     21  N   UNL     1       2.025  -5.401  -1.317  0.00  0.00    -0.328 N 
ATOM     22  H   UNL     1       1.533  -5.744  -2.079  0.00  0.00    +0.145 HD
ATOM     23  H   UNL     1       2.991  -5.321  -1.359  0.00  0.00    +0.145 HD
ENDBRANCH   9  21
BRANCH  10  24
ATOM     24  C   UNL     1       3.483  -4.447   0.767  0.00  0.00    +0.101 C 
ATOM     25  N   UNL     1       4.613  -4.366   0.684  0.00  0.00    -0.191 NA
ENDBRANCH  10  24
BRANCH   5  26
ATOM     26  O   UNL     1      -3.847  -6.216   2.397  0.00  0.00    -0.422 OA
BRANCH  26  27
ATOM     27  C   UNL     1      -4.009  -7.542   2.219  0.00  0.00    +0.351 C 
ATOM     28  O   UNL     1      -3.036  -8.264   2.111  0.00  0.00    -0.244 OA
BRANCH  27  29
ATOM     29  C   UNL     1      -5.362  -8.117   2.156  0.00  0.00    +0.144 A 
ATOM     30  C   UNL     1      -5.560  -9.480   1.979  0.00  0.00    +0.033 A 
ATOM     31  C   UNL     1      -6.894  -9.955   1.897  0.00  0.00    +0.018 A 
ATOM     32  C   UNL     1      -7.162 -11.332   1.920  0.00  0.00    +0.011 A 
ATOM     33  C   UNL     1      -8.453 -11.772   1.882  0.00  0.00    +0.001 A 
ATOM     34  C   UNL     1      -9.505 -10.869   1.812  0.00  0.00    +0.004 A 
ATOM     35  C   UNL     1      -9.264  -9.511   1.768  0.00  0.00    +0.047 A 
ATOM     36  C   UNL     1      -7.959  -9.040   1.799  0.00  0.00    +0.139 A 
ATOM     37  O   UNL     1      -7.707  -7.712   1.713  0.00  0.00    -0.422 OA
ATOM     38  C   UNL     1      -6.561  -7.269   2.283  0.00  0.00    +0.351 A 
ATOM     39  O   UNL     1      -6.521  -6.207   2.877  0.00  0.00    -0.244 OA
ENDBRANCH  27  29
ENDBRANCH  26  27
ENDBRANCH   5  26
TORSDOF 8
