REMARK  Name = ZINC52807568
REMARK  8 active torsions:
REMARK  status: ('A' for Active; 'I' for Inactive)
REMARK    1  A    between atoms: C_1  and  N_2
REMARK    2  A    between atoms: C_3  and  N_22
REMARK    3  A    between atoms: C_4  and  C_11
REMARK    4  A    between atoms: N_7  and  C_10
REMARK    5  A    between atoms: C_11  and  C_13
REMARK    6  A    between atoms: C_13  and  N_14
REMARK    7  A    between atoms: C_17  and  C_20
REMARK    8  A    between atoms: C_20  and  O_21
REMARK                            x       y       z     vdW  Elec       q    Type
REMARK                         _______ _______ _______ _____ _____    ______ ____
ROOT
ATOM      1  C   UNL     1       0.265   1.450   0.033  0.00  0.00    +0.155 C 
ATOM      2  N   UNL     1       0.138  -0.010   0.013  0.00  0.00    -0.284 N 
ATOM      3  C   UNL     1      -1.106  -0.574   0.028  0.00  0.00    +0.116 A 
ATOM      4  C   UNL     1      -1.218  -1.975   0.008  0.00  0.00    +0.118 A 
ATOM      5  C   UNL     1       0.022  -2.762  -0.028  0.00  0.00    +0.269 A 
ATOM      6  O   UNL     1      -0.015  -3.978  -0.047  0.00  0.00    -0.267 OA
ATOM      7  N   UNL     1       1.202  -2.108  -0.040  0.00  0.00    -0.263 N 
ATOM      8  C   UNL     1       1.246  -0.766  -0.025  0.00  0.00    +0.333 A 
ATOM      9  O   UNL     1       2.330  -0.216  -0.042  0.00  0.00    -0.246 OA
ATOM     10  C   UNL     1       2.451  -2.872  -0.076  0.00  0.00    +0.157 C 
ENDROOT
BRANCH   3  11
ATOM     11  N   UNL     1      -2.219   0.208   0.062  0.00  0.00    -0.344 N 
ATOM     12  H   UNL     1      -2.134   1.170   0.156  0.00  0.00    +0.144 HD
ATOM     13  H   UNL     1      -3.098  -0.196  -0.009  0.00  0.00    +0.144 HD
ENDBRANCH   3  11
BRANCH   4  14
ATOM     14  C   UNL     1      -2.480  -2.605   0.022  0.00  0.00    +0.155 C 
ATOM     15  O   UNL     1      -3.493  -1.938  -0.055  0.00  0.00    -0.294 OA
BRANCH  14  16
ATOM     16  C   UNL     1      -2.572  -4.105   0.134  0.00  0.00    +0.002 C 
BRANCH  16  17
ATOM     17  N   UNL     1      -3.984  -4.511   0.128  0.00  0.00    +0.385 N 
ATOM     18  C   UNL     1      -4.583  -4.172  -1.169  0.00  0.00    -0.078 C 
ATOM     19  C   UNL     1      -6.073  -4.519  -1.153  0.00  0.00    -0.013 C 
ATOM     20  C   UNL     1      -6.241  -6.017  -0.887  0.00  0.00    +0.011 C 
ATOM     21  C   UNL     1      -5.548  -6.373   0.431  0.00  0.00    -0.013 C 
ATOM     22  C   UNL     1      -4.077  -5.958   0.356  0.00  0.00    -0.078 C 
ATOM     23  H   UNL     1      -4.476  -4.023   0.861  0.00  0.00    -0.081 HD
BRANCH  20  24
ATOM     24  C   UNL     1      -7.729  -6.357  -0.791  0.00  0.00    +0.159 C 
BRANCH  24  25
ATOM     25  O   UNL     1      -7.888  -7.771  -0.660  0.00  0.00    -0.395 OA
ATOM     26  H   UNL     1      -8.809  -8.059  -0.593  0.00  0.00    +0.209 HD
ENDBRANCH  24  25
ENDBRANCH  20  24
ENDBRANCH  16  17
ENDBRANCH  14  16
ENDBRANCH   4  14
TORSDOF 6
