REMARK  Name = ZINC66887626
REMARK  8 active torsions:
REMARK  status: ('A' for Active; 'I' for Inactive)
REMARK    1  A    between atoms: C_1  and  C_2
REMARK    2  A    between atoms: C_2  and  C_4
REMARK    3  A    between atoms: C_2  and  N_15
REMARK    4  A    between atoms: C_7  and  S_10
REMARK    5  A    between atoms: S_10  and  N_13
REMARK    6  A    between atoms: N_13  and  C_14
REMARK    7  A    between atoms: C_16  and  C_17
REMARK    8  A    between atoms: C_22  and  O_23
REMARK                            x       y       z     vdW  Elec       q    Type
REMARK                         _______ _______ _______ _____ _____    ______ ____
ROOT
ATOM      1  C   UNL     1      -0.036   1.534  -0.002  0.00  0.00    +0.035 C 
ATOM      2  C   UNL     1      -0.003   0.005  -0.003  0.00  0.00    +0.106 C 
ENDROOT
BRANCH   2   3
ATOM      3  C   UNL     1       0.732  -0.483   1.218  0.00  0.00    -0.025 A 
ATOM      4  C   UNL     1       2.115  -0.482   1.239  0.00  0.00    +0.007 A 
ATOM      5  C   UNL     1       2.789  -0.930   2.359  0.00  0.00    +0.029 A 
ATOM      6  C   UNL     1       2.082  -1.378   3.459  0.00  0.00    +0.105 A 
ATOM      7  C   UNL     1       0.700  -1.377   3.439  0.00  0.00    +0.029 A 
ATOM      8  C   UNL     1       0.025  -0.926   2.320  0.00  0.00    +0.007 A 
BRANCH   6   9
ATOM      9  S   UNL     1       2.942  -1.949   4.887  0.00  0.00    +0.058 S 
ATOM     10  O   UNL     1       2.056  -2.824   5.572  0.00  0.00    -0.153 OA
ATOM     11  O   UNL     1       4.230  -2.359   4.448  0.00  0.00    -0.153 OA
BRANCH   9  12
ATOM     12  N   UNL     1       3.173  -0.641   5.876  0.00  0.00    -0.193 NA
ATOM     13  C   UNL     1       2.021   0.036   6.476  0.00  0.00    +0.127 C 
ATOM     14  H   UNL     1       4.071  -0.323   6.057  0.00  0.00    +0.148 HD
ENDBRANCH   9  12
ENDBRANCH   6   9
ENDBRANCH   2   3
BRANCH   2  15
ATOM     15  N   UNL     1       0.684  -0.468  -1.208  0.00  0.00    -0.383 N 
ATOM     16  C   UNL     1       0.061  -1.224  -2.053  0.00  0.00    +0.090 C 
ATOM     17  H   UNL     1       1.605  -0.213  -1.372  0.00  0.00    +0.160 HD
BRANCH  16  18
ATOM     18  C   UNL     1       0.713  -1.609  -3.318  0.00  0.00    +0.035 A 
ATOM     19  C   UNL     1       0.004  -2.328  -4.284  0.00  0.00    +0.033 A 
ATOM     20  C   UNL     1       0.619  -2.685  -5.465  0.00  0.00    +0.043 A 
ATOM     21  C   UNL     1       1.939  -2.333  -5.699  0.00  0.00    +0.043 A 
ATOM     22  C   UNL     1       2.651  -1.622  -4.752  0.00  0.00    +0.084 A 
ATOM     23  C   UNL     1       2.045  -1.250  -3.561  0.00  0.00    +0.144 A 
ATOM     24 CL   UNL     1       4.304  -1.188  -5.056  0.00  0.00    -0.080 Cl
ATOM     25 CL   UNL     1      -0.263  -3.579  -6.664  0.00  0.00    -0.083 Cl
BRANCH  23  26
ATOM     26  O   UNL     1       2.742  -0.547  -2.632  0.00  0.00    -0.505 OA
ATOM     27  H   UNL     1       3.215  -1.099  -1.994  0.00  0.00    +0.292 HD
ENDBRANCH  23  26
ENDBRANCH  16  18
ENDBRANCH   2  15
TORSDOF 6
