REMARK  Name = ZINC38547665
REMARK  9 active torsions:
REMARK  status: ('A' for Active; 'I' for Inactive)
REMARK    1  A    between atoms: C_1  and  C_2
REMARK    2  A    between atoms: C_6  and  N_8
REMARK    3  A    between atoms: N_8  and  C_9
REMARK    4  A    between atoms: C_9  and  C_11
REMARK    5  A    between atoms: C_9  and  C_18
REMARK    6  A    between atoms: C_19  and  C_32
REMARK    7  A    between atoms: C_20  and  C_31
REMARK    8  A    between atoms: C_22  and  N_23
REMARK    9  A    between atoms: C_24  and  C_26
REMARK                            x       y       z     vdW  Elec       q    Type
REMARK                         _______ _______ _______ _____ _____    ______ ____
ROOT
ATOM      1  C   UNL     1       0.384  -4.464   2.339  0.00  0.00    +0.135 C 
ENDROOT
BRANCH   1   2
ATOM      2  C   UNL     1       1.710  -5.163   2.497  0.00  0.00    -0.022 A 
ATOM      3  C   UNL     1       2.716  -4.579   3.244  0.00  0.00    +0.006 A 
ATOM      4  C   UNL     1       3.931  -5.220   3.389  0.00  0.00    +0.001 A 
ATOM      5  C   UNL     1       4.142  -6.446   2.788  0.00  0.00    +0.015 A 
ATOM      6  C   UNL     1       3.136  -7.032   2.041  0.00  0.00    +0.018 A 
ATOM      7  C   UNL     1       1.918  -6.392   1.900  0.00  0.00    +0.021 A 
ATOM      8 BR   UNL     1       3.425  -8.710   1.217  0.00  0.00    -0.050 Br
ENDBRANCH   1   2
BRANCH   1   9
ATOM      9  C   UNL     1      -0.542  -4.885   3.450  0.00  0.00    +0.009 A 
ATOM     10  C   UNL     1      -1.605  -5.732   3.197  0.00  0.00    -0.033 A 
ATOM     11  C   UNL     1      -2.418  -6.091   4.220  0.00  0.00    -0.008 A 
ATOM     12  S   UNL     1      -1.689  -5.225   5.599  0.00  0.00    -0.078 S 
ATOM     13  C   UNL     1      -0.343  -4.444   4.724  0.00  0.00    +0.078 A 
ATOM     14  C   UNL     1      -3.628  -6.990   4.198  0.00  0.00    +0.052 C 
ATOM     15  C   UNL     1      -1.857  -6.247   1.804  0.00  0.00    +0.045 C 
BRANCH  13  16
ATOM     16  N   UNL     1       0.653  -3.598   5.216  0.00  0.00    -0.273 N 
ATOM     17  C   UNL     1       0.747  -3.367   6.541  0.00  0.00    +0.284 C 
ATOM     18  O   UNL     1      -0.036  -3.896   7.308  0.00  0.00    -0.266 OA
ATOM     19  H   UNL     1       1.277  -3.176   4.605  0.00  0.00    +0.156 HD
BRANCH  17  20
ATOM     20  C   UNL     1       1.793  -2.479   7.058  0.00  0.00    +0.189 A 
ATOM     21  C   UNL     1       2.002  -2.165   8.370  0.00  0.00    +0.054 A 
ATOM     22  C   UNL     1       3.100  -1.291   8.405  0.00  0.00    +0.042 A 
ATOM     23  C   UNL     1       3.507  -1.112   7.130  0.00  0.00    +0.196 A 
ATOM     24  O   UNL     1       2.720  -1.833   6.321  0.00  0.00    -0.458 OA
ENDBRANCH  17  20
ENDBRANCH  13  16
ENDBRANCH   1   9
BRANCH   1  25
ATOM     25  N   UNL     1       0.588  -3.014   2.396  0.00  0.00    -0.320 N 
ATOM     26  H   UNL     1       0.301  -2.514   3.176  0.00  0.00    +0.148 HD
BRANCH  25  32
ATOM     27  C   UNL     1       2.123   1.112   0.515  0.00  0.00    +0.063 C 
ATOM     28  C   UNL     1       1.941  -0.380   0.401  0.00  0.00    +0.014 A 
ATOM     29  C   UNL     1       2.371  -1.034  -0.737  0.00  0.00    +0.021 A 
ATOM     30  C   UNL     1       2.200  -2.408  -0.837  0.00  0.00    +0.005 A 
ATOM     31  C   UNL     1       1.601  -3.077   0.216  0.00  0.00    +0.041 A 
ATOM     32  C   UNL     1       1.192  -2.355   1.332  0.00  0.00    +0.097 A 
ATOM     33  N   UNL     1       1.377  -1.045   1.391  0.00  0.00    -0.347 N 
ATOM     34  H   UNL     1       1.088  -0.562   2.181  0.00  0.00    +0.167 HD
ENDBRANCH  25  32
ENDBRANCH   1  25
TORSDOF 6
