REMARK  Name = ZINC39550196
REMARK  9 active torsions:
REMARK  status: ('A' for Active; 'I' for Inactive)
REMARK    1  A    between atoms: C_1  and  C_2
REMARK    2  A    between atoms: C_2  and  C_3
REMARK    3  A    between atoms: C_3  and  C_4
REMARK    4  A    between atoms: C_4  and  C_5
REMARK    5  A    between atoms: C_5  and  N_6
REMARK    6  A    between atoms: C_13  and  O_35
REMARK    7  A    between atoms: C_15  and  C_19
REMARK    8  A    between atoms: N_21  and  C_22
REMARK    9  A    between atoms: C_24  and  O_34
REMARK                            x       y       z     vdW  Elec       q    Type
REMARK                         _______ _______ _______ _____ _____    ______ ____
ROOT
ATOM      1  N   UNL     1       1.523  -4.012   2.465  0.00  0.00    -0.270 N 
ATOM      2  C   UNL     1       0.484  -4.724   3.073  0.00  0.00    +0.042 A 
ATOM      3  C   UNL     1      -0.728  -4.101   3.337  0.00  0.00    +0.024 A 
ATOM      4  C   UNL     1      -1.750  -4.810   3.937  0.00  0.00    +0.002 A 
ATOM      5  C   UNL     1      -1.567  -6.139   4.275  0.00  0.00    +0.000 A 
ATOM      6  C   UNL     1      -0.361  -6.762   4.013  0.00  0.00    +0.008 A 
ATOM      7  C   UNL     1       0.665  -6.058   3.413  0.00  0.00    +0.003 A 
ATOM      8  C   UNL     1       1.980  -6.734   3.126  0.00  0.00    +0.167 C 
ATOM      9  C   UNL     1       2.575  -6.168   1.835  0.00  0.00    +0.194 C 
ATOM     10  C   UNL     1       2.538  -4.664   1.867  0.00  0.00    +0.235 C 
ATOM     11  O   UNL     1       3.436  -4.031   1.353  0.00  0.00    -0.274 OA
ENDROOT
BRANCH   9  12
ATOM     12  C   UNL     1       4.002  -6.631   1.696  0.00  0.00    +0.229 C 
ATOM     13  O   UNL     1       4.494  -7.344   2.545  0.00  0.00    -0.275 OA
ATOM     14  N   UNL     1       4.732  -6.254   0.628  0.00  0.00    -0.297 N 
ATOM     15  H   UNL     1       4.338  -5.684  -0.051  0.00  0.00    +0.150 HD
BRANCH  14  16
ATOM     16  C   UNL     1       6.119  -6.704   0.492  0.00  0.00    +0.226 C 
ATOM     17  C   UNL     1       6.876  -5.651  -0.294  0.00  0.00    +0.132 C 
ATOM     18  C   UNL     1       7.494  -6.064  -1.476  0.00  0.00    +0.036 A 
ATOM     19  C   UNL     1       8.219  -5.150  -2.267  0.00  0.00    +0.013 A 
ATOM     20  C   UNL     1       8.812  -5.578  -3.415  0.00  0.00    +0.001 A 
ATOM     21  C   UNL     1       8.719  -6.904  -3.825  0.00  0.00    +0.002 A 
ATOM     22  C   UNL     1       8.033  -7.834  -3.102  0.00  0.00    +0.024 A 
ATOM     23  C   UNL     1       7.395  -7.462  -1.907  0.00  0.00    +0.044 A 
ATOM     24  N   UNL     1       6.722  -8.377  -1.198  0.00  0.00    -0.283 N 
ATOM     25  C   UNL     1       6.098  -8.108  -0.069  0.00  0.00    +0.245 C 
ATOM     26  O   UNL     1       5.505  -8.991   0.522  0.00  0.00    -0.273 OA
ATOM     27  H   UNL     1       6.691  -9.286  -1.534  0.00  0.00    +0.155 HD
BRANCH  17  28
ATOM     28  O   UNL     1       6.947  -4.384   0.126  0.00  0.00    -0.508 OA
ATOM     29  H   UNL     1       7.457  -3.804  -0.458  0.00  0.00    +0.292 HD
ENDBRANCH  17  28
ENDBRANCH  14  16
ENDBRANCH   9  12
BRANCH   8  30
ATOM     30  O   UNL     1       2.883  -6.499   4.208  0.00  0.00    -0.386 OA
ATOM     31  H   UNL     1       2.570  -6.833   5.060  0.00  0.00    +0.210 HD
ENDBRANCH   8  30
BRANCH   1  32
ATOM     32  C   UNL     1       1.503  -2.548   2.473  0.00  0.00    +0.114 C 
BRANCH  32  33
ATOM     33  C   UNL     1       0.763  -2.041   1.233  0.00  0.00    +0.019 C 
BRANCH  33  34
ATOM     34  C   UNL     1       0.742  -0.511   1.242  0.00  0.00    +0.001 C 
BRANCH  34  36
ATOM     35  C   UNL     1      -0.019   1.526   0.010  0.00  0.00    +0.004 C 
ATOM     36  C   UNL     1       0.002  -0.004   0.002  0.00  0.00    -0.003 C 
ENDBRANCH  34  36
ENDBRANCH  33  34
ENDBRANCH  32  33
ENDBRANCH   1  32
TORSDOF 8
