REMARK  Name = ZINC51098670
REMARK  9 active torsions:
REMARK  status: ('A' for Active; 'I' for Inactive)
REMARK    1  A    between atoms: C_1  and  C_2
REMARK    2  A    between atoms: C_5  and  C_7
REMARK    3  A    between atoms: N_9  and  C_10
REMARK    4  A    between atoms: N_13  and  C_16
REMARK    5  A    between atoms: C_16  and  C_18
REMARK    6  A    between atoms: C_16  and  C_19
REMARK    7  A    between atoms: N_24  and  C_25
REMARK    8  A    between atoms: C_25  and  C_26
REMARK    9  A    between atoms: C_25  and  C_27
REMARK                            x       y       z     vdW  Elec       q    Type
REMARK                         _______ _______ _______ _____ _____    ______ ____
ROOT
ATOM      1  C   UNL     1       2.468  -6.568  -0.960  0.00  0.00    +0.070 C 
ATOM      2  C   UNL     1       2.672  -6.452   0.553  0.00  0.00    +0.004 C 
ATOM      3  C   UNL     1       3.576  -7.591   1.029  0.00  0.00    -0.076 C 
ATOM      4  N   UNL     1       4.875  -7.506   0.351  0.00  0.00    +0.387 N 
ATOM      5  C   UNL     1       4.695  -7.688  -1.095  0.00  0.00    -0.076 C 
ATOM      6  C   UNL     1       3.834  -6.553  -1.652  0.00  0.00    +0.004 C 
ATOM      7  H   UNL     1       5.287  -6.602   0.526  0.00  0.00    -0.081 HD
ENDROOT
BRANCH   1  10
ATOM      8  C   UNL     1       0.321  -5.499  -1.386  0.00  0.00    +0.251 C 
ATOM      9  O   UNL     1      -0.228  -6.494  -0.950  0.00  0.00    -0.270 OA
ATOM     10  N   UNL     1       1.666  -5.438  -1.434  0.00  0.00    -0.308 N 
ATOM     11  H   UNL     1       2.103  -4.645  -1.782  0.00  0.00    +0.149 HD
BRANCH   8  16
ATOM     12  C   UNL     1      -1.727  -0.746  -3.401  0.00  0.00    +0.051 C 
ATOM     13  C   UNL     1      -1.438  -2.106  -2.820  0.00  0.00    -0.013 A 
ATOM     14  C   UNL     1      -2.328  -3.040  -2.403  0.00  0.00    +0.011 A 
ATOM     15  C   UNL     1      -1.861  -4.230  -1.899  0.00  0.00    +0.021 A 
ATOM     16  C   UNL     1      -0.482  -4.368  -1.861  0.00  0.00    +0.074 A 
ATOM     17  S   UNL     1       0.060  -2.814  -2.546  0.00  0.00    -0.089 S 
ENDBRANCH   8  16
ENDBRANCH   1  10
BRANCH   4  18
ATOM     18  C   UNL     1       5.766  -8.554   0.867  0.00  0.00    +0.017 C 
ATOM     19  C   UNL     1       5.968  -8.356   2.371  0.00  0.00    -0.004 C 
BRANCH  18  20
ATOM     20  C   UNL     1       7.098  -8.472   0.167  0.00  0.00    +0.207 C 
ATOM     21  O   UNL     1       7.496  -7.408  -0.256  0.00  0.00    -0.277 OA
ATOM     22  N   UNL     1       7.846  -9.582   0.010  0.00  0.00    -0.242 N 
ATOM     23  C   UNL     1       9.037  -9.509  -0.617  0.00  0.00    +0.306 C 
ATOM     24  O   UNL     1       9.436  -8.442  -1.040  0.00  0.00    -0.252 OA
ATOM     25  N   UNL     1       9.785 -10.619  -0.774  0.00  0.00    -0.297 N 
ATOM     26  H   UNL     1       7.527 -10.434   0.348  0.00  0.00    +0.159 HD
ATOM     27  H   UNL     1       9.466 -11.470  -0.436  0.00  0.00    +0.151 HD
BRANCH  25  28
ATOM     28  C   UNL     1      11.080 -10.539  -1.455  0.00  0.00    +0.068 C 
ATOM     29  C   UNL     1      11.975 -11.686  -0.983  0.00  0.00    +0.027 C 
ATOM     30  C   UNL     1      10.868 -10.645  -2.966  0.00  0.00    +0.027 C 
ENDBRANCH  25  28
ENDBRANCH  18  20
ENDBRANCH   4  18
TORSDOF 5
