REMARK  Name = ZINC12697712
REMARK  4 active torsions:
REMARK  status: ('A' for Active; 'I' for Inactive)
REMARK    1  A    between atoms: C_6  and  N_7
REMARK    2  A    between atoms: C_8  and  C_10
REMARK    3  A    between atoms: C_10  and  N_38
REMARK    4  A    between atoms: C_15  and  C_17
REMARK                            x       y       z     vdW  Elec       q    Type
REMARK                         _______ _______ _______ _____ _____    ______ ____
ROOT
ATOM      1  C   UNL     1      -2.169   0.625  -0.275  0.00  0.00    +0.020 C 
ENDROOT
BRANCH   1   7
ATOM      2  C   UNL     1      -0.430   0.469  -1.951  0.00  0.00    -0.077 C 
ATOM      3  C   UNL     1       0.761   1.206  -2.566  0.00  0.00    -0.019 C 
ATOM      4  C   UNL     1       1.857   1.369  -1.508  0.00  0.00    -0.003 C 
ATOM      5  C   UNL     1       1.285   2.125  -0.306  0.00  0.00    -0.006 C 
ATOM      6  C   UNL     1       0.078   1.361   0.244  0.00  0.00    +0.020 C 
ATOM      7  N   UNL     1      -0.949   1.259  -0.815  0.00  0.00    +0.393 N 
ATOM      8  H   UNL     1      -1.181   2.203  -1.145  0.00  0.00    -0.080 HD
BRANCH   6   9
ATOM      9  C   UNL     1      -0.500   2.111   1.416  0.00  0.00    +0.197 C 
ATOM     10  O   UNL     1      -1.401   2.905   1.243  0.00  0.00    -0.278 OA
ATOM     11  N   UNL     1      -0.017   1.900   2.656  0.00  0.00    -0.331 N 
ATOM     12  H   UNL     1       0.704   1.265   2.795  0.00  0.00    +0.145 HD
ATOM     13  H   UNL     1      -0.389   2.383   3.411  0.00  0.00    +0.145 HD
ENDBRANCH   6   9
ENDBRANCH   1   7
BRANCH   1  15
ATOM     14  N   UNL     1      -4.530   0.374  -0.968  0.00  0.00    -0.287 N 
ATOM     15  C   UNL     1      -3.299   0.847  -1.246  0.00  0.00    +0.201 C 
ATOM     16  O   UNL     1      -3.101   1.451  -2.279  0.00  0.00    -0.278 OA
ATOM     17  H   UNL     1      -4.707  -0.044  -0.111  0.00  0.00    +0.155 HD
BRANCH  14  23
ATOM     18  C   UNL     1      -5.604   1.591  -2.757  0.00  0.00    +0.024 A 
ATOM     19  C   UNL     1      -6.612   1.697  -3.695  0.00  0.00    +0.016 A 
ATOM     20  C   UNL     1      -7.579   0.712  -3.788  0.00  0.00    +0.013 A 
ATOM     21  C   UNL     1      -7.535  -0.386  -2.946  0.00  0.00    +0.016 A 
ATOM     22  C   UNL     1      -6.526  -0.500  -2.010  0.00  0.00    +0.024 A 
ATOM     23  C   UNL     1      -5.554   0.488  -1.915  0.00  0.00    +0.033 A 
ATOM     24  I   UNL     1      -9.111   0.881  -5.206  0.00  0.00    -0.044 I 
ENDBRANCH  14  23
ENDBRANCH   1  15
TORSDOF 4
