REMARK  Name = ZINC33058237
REMARK  12 active torsions:
REMARK  status: ('A' for Active; 'I' for Inactive)
REMARK    1  A    between atoms: C_1  and  C_2
REMARK    2  A    between atoms: C_2  and  O_3
REMARK    3  A    between atoms: O_3  and  C_4
REMARK    4  A    between atoms: C_7  and  N_10
REMARK    5  A    between atoms: N_10  and  C_11
REMARK    6  A    between atoms: C_12  and  S_27
REMARK    7  A    between atoms: C_13  and  N_26
REMARK    8  A    between atoms: C_14  and  C_16
REMARK    9  A    between atoms: C_16  and  C_18
REMARK   10  A    between atoms: C_21  and  C_25
REMARK   11  A    between atoms: C_23  and  C_24
REMARK   12  A    between atoms: S_27  and  C_30
REMARK                            x       y       z     vdW  Elec       q    Type
REMARK                         _______ _______ _______ _____ _____    ______ ____
ROOT
ATOM      1  C   UNL     1      -2.232   3.807  -0.241  0.00  0.00    +0.098 A 
ATOM      2  C   UNL     1      -1.121   2.995  -0.369  0.00  0.00    +0.143 A 
ATOM      3  C   UNL     1      -1.261   1.645  -0.171  0.00  0.00    +0.070 A 
ATOM      4  C   UNL     1      -2.529   1.153   0.165  0.00  0.00    +0.084 A 
ATOM      5  S   UNL     1      -3.514   2.641   0.184  0.00  0.00    -0.066 S 
ENDROOT
BRANCH   3   6
ATOM      6  N   UNL     1      -0.172   0.788  -0.294  0.00  0.00    -0.355 N 
ATOM      7  H   UNL     1      -0.301  -0.292  -0.131  0.00  0.00    +0.142 HD
ATOM      8  H   UNL     1       0.818   1.191  -0.553  0.00  0.00    +0.142 HD
ENDBRANCH   3   6
BRANCH   2   9
ATOM      9  S   UNL     1       0.447   3.682  -0.787  0.00  0.00    +0.029 S 
ATOM     10  O   UNL     1       0.396   5.056  -0.430  0.00  0.00    -0.164 OA
ATOM     11  O   UNL     1       1.429   2.796  -0.268  0.00  0.00    -0.164 OA
BRANCH   9  12
ATOM     12  C   UNL     1       0.591   3.621  -2.542  0.00  0.00    +0.094 A 
ATOM     13  C   UNL     1       1.149   2.514  -3.152  0.00  0.00    +0.027 A 
ATOM     14  C   UNL     1       1.258   2.464  -4.529  0.00  0.00    +0.002 A 
ATOM     15  C   UNL     1       0.818   3.527  -5.295  0.00  0.00    +0.000 A 
ATOM     16  C   UNL     1       0.265   4.637  -4.685  0.00  0.00    +0.002 A 
ATOM     17  C   UNL     1       0.151   4.684  -3.308  0.00  0.00    +0.027 A 
ENDBRANCH   9  12
ENDBRANCH   2   9
BRANCH   1  18
ATOM     18  N   UNL     1      -2.325   5.178  -0.397  0.00  0.00    -0.307 N 
ATOM     19  H   UNL     1      -1.415   5.778  -0.544  0.00  0.00    +0.153 HD
BRANCH  18  23
ATOM     20  C   UNL     1      -6.055   7.037  -0.314  0.00  0.00    +0.121 A 
ATOM     21  C   UNL     1      -4.941   7.695   0.187  0.00  0.00    +0.047 A 
ATOM     22  C   UNL     1      -3.705   7.080   0.160  0.00  0.00    +0.027 A 
ATOM     23  C   UNL     1      -3.577   5.802  -0.369  0.00  0.00    +0.032 A 
ATOM     24  C   UNL     1      -4.692   5.146  -0.876  0.00  0.00    +0.027 A 
ATOM     25  C   UNL     1      -5.928   5.761  -0.843  0.00  0.00    +0.047 A 
BRANCH  20  26
ATOM     26  O   UNL     1      -7.272   7.643  -0.286  0.00  0.00    -0.492 OA
BRANCH  26  28
ATOM     27  C   UNL     1      -9.650   7.745  -0.703  0.00  0.00    +0.048 C 
ATOM     28  C   UNL     1      -8.375   6.908  -0.819  0.00  0.00    +0.225 C 
ENDBRANCH  26  28
ENDBRANCH  20  26
ENDBRANCH  18  23
ENDBRANCH   1  18
BRANCH   4  29
ATOM     29  C   UNL     1      -2.924  -0.172   0.420  0.00  0.00    +0.202 C 
ATOM     30  O   UNL     1      -2.096  -1.067   0.413  0.00  0.00    -0.286 OA
BRANCH  29  31
ATOM     31  C   UNL     1      -4.345  -0.480   0.697  0.00  0.00    +0.026 A 
ATOM     32  C   UNL     1      -5.147  -1.041  -0.298  0.00  0.00    +0.012 A 
ATOM     33  C   UNL     1      -6.470  -1.330  -0.032  0.00  0.00    +0.004 A 
ATOM     34  C   UNL     1      -7.004  -1.056   1.215  0.00  0.00    -0.050 A 
ATOM     35  C   UNL     1      -6.215  -0.495   2.204  0.00  0.00    +0.007 A 
ATOM     36  C   UNL     1      -4.890  -0.206   1.952  0.00  0.00    -0.039 A 
ATOM     37  C   UNL     1      -4.032   0.405   3.030  0.00  0.00    +0.044 C 
ATOM     38  C   UNL     1      -8.451  -1.368   1.496  0.00  0.00    +0.044 C 
ENDBRANCH  29  31
ENDBRANCH   4  29
TORSDOF 9
