REMARK  Name = ZINC48922748
REMARK  11 active torsions:
REMARK  status: ('A' for Active; 'I' for Inactive)
REMARK    1  A    between atoms: C_1  and  C_2
REMARK    2  A    between atoms: C_2  and  C_3
REMARK    3  A    between atoms: C_2  and  C_4
REMARK    4  A    between atoms: C_4  and  C_5
REMARK    5  A    between atoms: C_5  and  N_6
REMARK    6  A    between atoms: N_6  and  C_7
REMARK    7  A    between atoms: N_6  and  C_8
REMARK    8  A    between atoms: C_8  and  C_9
REMARK    9  A    between atoms: C_9  and  C_10
REMARK   10  A    between atoms: N_12  and  C_13
REMARK   11  A    between atoms: C_14  and  N_21
REMARK                            x       y       z     vdW  Elec       q    Type
REMARK                         _______ _______ _______ _____ _____    ______ ____
ROOT
ATOM      1  C   UNL     1      -5.041  -5.749  -1.782  0.00  0.00    +0.215 C 
ATOM      2  O   UNL     1      -4.646  -6.094  -2.876  0.00  0.00    -0.276 OA
ATOM      3  N   UNL     1      -5.374  -6.676  -0.863  0.00  0.00    -0.283 N 
ATOM      4  H   UNL     1      -5.620  -6.403   0.035  0.00  0.00    +0.155 HD
ENDROOT
BRANCH   3   5
ATOM      5  C   UNL     1      -5.364  -8.037  -1.204  0.00  0.00    +0.073 A 
ATOM      6  C   UNL     1      -6.502  -8.628  -1.752  0.00  0.00    +0.049 A 
ATOM      7  C   UNL     1      -6.487  -9.974  -2.087  0.00  0.00    +0.044 A 
ATOM      8  C   UNL     1      -5.345 -10.726  -1.878  0.00  0.00    +0.044 A 
ATOM      9  C   UNL     1      -4.216 -10.140  -1.334  0.00  0.00    +0.042 A 
ATOM     10  C   UNL     1      -4.221  -8.796  -1.002  0.00  0.00    +0.065 A 
ATOM     11 CL   UNL     1      -2.800  -8.063  -0.326  0.00  0.00    -0.082 Cl
ATOM     12 CL   UNL     1      -5.328 -12.410  -2.298  0.00  0.00    -0.083 Cl
BRANCH   6  13
ATOM     13  N   UNL     1      -7.656  -7.866  -1.962  0.00  0.00    -0.356 N 
ATOM     14  H   UNL     1      -7.666  -6.925  -1.727  0.00  0.00    +0.142 HD
ATOM     15  H   UNL     1      -8.447  -8.278  -2.344  0.00  0.00    +0.142 HD
ENDBRANCH   6  13
ENDBRANCH   3   5
BRANCH   1  16
ATOM     16  C   UNL     1      -5.159  -4.283  -1.452  0.00  0.00    +0.077 C 
BRANCH  16  17
ATOM     17  C   UNL     1      -4.722  -3.451  -2.659  0.00  0.00    -0.070 C 
BRANCH  17  18
ATOM     18  N   UNL     1      -4.838  -2.023  -2.337  0.00  0.00    +0.378 N 
ATOM     19  C   UNL     1      -3.889  -1.684  -1.267  0.00  0.00    -0.096 C 
ATOM     20  H   UNL     1      -5.777  -1.822  -2.029  0.00  0.00    -0.082 HD
BRANCH  18  21
ATOM     21  C   UNL     1      -4.533  -1.225  -3.532  0.00  0.00    -0.079 C 
BRANCH  21  22
ATOM     22  C   UNL     1      -4.774   0.256  -3.232  0.00  0.00    -0.016 C 
BRANCH  22  24
ATOM     23  C   UNL     1      -4.816   2.551  -4.217  0.00  0.00    +0.007 C 
ATOM     24  C   UNL     1      -4.457   1.087  -4.476  0.00  0.00    -0.019 C 
ATOM     25  C   UNL     1      -2.965   0.977  -4.797  0.00  0.00    +0.007 C 
ENDBRANCH  22  24
ENDBRANCH  21  22
ENDBRANCH  18  21
ENDBRANCH  17  18
ENDBRANCH  16  17
ENDBRANCH   1  16
TORSDOF 8
