REMARK  Name = ZINC32089070
REMARK  7 active torsions:
REMARK  status: ('A' for Active; 'I' for Inactive)
REMARK    1  A    between atoms: C_1  and  C_2
REMARK    2  A    between atoms: C_2  and  O_3
REMARK    3  A    between atoms: O_3  and  C_4
REMARK    4  A    between atoms: C_6  and  C_12
REMARK    5  A    between atoms: C_9  and  O_10
REMARK    6  A    between atoms: C_12  and  N_13
REMARK    7  A    between atoms: C_16  and  N_19
REMARK                            x       y       z     vdW  Elec       q    Type
REMARK                         _______ _______ _______ _____ _____    ______ ____
ROOT
ATOM      1  C   UNL     1      -1.498  -1.849   0.006  0.00  0.00    +0.163 A 
ATOM      2  C   UNL     1      -0.389  -2.680  -0.003  0.00  0.00    +0.054 A 
ATOM      3  C   UNL     1      -0.553  -4.052  -0.009  0.00  0.00    -0.029 A 
ATOM      4  C   UNL     1      -1.822  -4.600  -0.006  0.00  0.00    +0.024 A 
ATOM      5  C   UNL     1      -2.934  -3.777   0.003  0.00  0.00    +0.063 A 
ATOM      6  C   UNL     1      -2.776  -2.400   0.016  0.00  0.00    +0.173 A 
ATOM      7 BR   UNL     1      -4.668  -4.531   0.006  0.00  0.00    -0.046 Br
ENDROOT
BRANCH   6   8
ATOM      8  O   UNL     1      -3.868  -1.589   0.030  0.00  0.00    -0.503 OA
ATOM      9  H   UNL     1      -4.192  -1.350  -0.849  0.00  0.00    +0.292 HD
ENDBRANCH   6   8
BRANCH   1  10
ATOM     10  O   UNL     1      -1.339  -0.499   0.012  0.00  0.00    -0.489 OA
BRANCH  10  12
ATOM     11  C   UNL     1      -0.019   1.526   0.010  0.00  0.00    +0.048 C 
ATOM     12  C   UNL     1       0.002  -0.004   0.002  0.00  0.00    +0.226 C 
ENDBRANCH  10  12
ENDBRANCH   1  10
BRANCH   3  13
ATOM     13  C   UNL     1       0.655  -4.954  -0.020  0.00  0.00    +0.119 C 
BRANCH  13  14
ATOM     14  N   UNL     1       1.054  -5.253   1.362  0.00  0.00    -0.298 NA
ATOM     15  C   UNL     1       1.521  -4.043   2.049  0.00  0.00    +0.083 C 
ATOM     16  C   UNL     1       1.790  -4.362   3.522  0.00  0.00    -0.001 C 
ATOM     17  C   UNL     1       2.848  -5.465   3.615  0.00  0.00    -0.073 C 
ATOM     18  C   UNL     1       2.358  -6.698   2.850  0.00  0.00    -0.001 C 
ATOM     19  C   UNL     1       2.073  -6.311   1.397  0.00  0.00    +0.083 C 
BRANCH  17  20
ATOM     20  N   UNL     1       3.067  -5.817   5.024  0.00  0.00    +0.380 N 
ATOM     21  H   UNL     1       2.203  -6.146   5.427  0.00  0.00    -0.090 HD
ATOM     22  H   UNL     1       3.764  -6.543   5.085  0.00  0.00    -0.090 HD
ATOM     23  H   UNL     1       3.385  -5.003   5.529  0.00  0.00    -0.090 HD
ENDBRANCH  17  20
ENDBRANCH  13  14
ENDBRANCH   3  13
TORSDOF 6
