REMARK  Name = ZINC53118430
REMARK  8 active torsions:
REMARK  status: ('A' for Active; 'I' for Inactive)
REMARK    1  A    between atoms: C_1  and  C_2
REMARK    2  A    between atoms: C_5  and  C_8
REMARK    3  A    between atoms: C_5  and  N_10
REMARK    4  A    between atoms: C_8  and  O_9
REMARK    5  A    between atoms: N_10  and  C_11
REMARK    6  A    between atoms: C_11  and  C_12
REMARK    7  A    between atoms: C_12  and  C_14
REMARK    8  A    between atoms: C_12  and  O_22
REMARK                            x       y       z     vdW  Elec       q    Type
REMARK                         _______ _______ _______ _____ _____    ______ ____
ROOT
ATOM      1  N   UNL     1       2.813  -1.951  -0.025  0.00  0.00    +0.386 N 
ATOM      2  H   UNL     1       2.738  -0.947   0.037  0.00  0.00    -0.085 HD
ATOM      3  H   UNL     1       3.344  -2.297   0.760  0.00  0.00    -0.085 HD
ENDROOT
BRANCH   1   8
ATOM      4  C   UNL     1      -0.278   1.415   0.010  0.00  0.00    +0.007 C 
ATOM      5  C   UNL     1      -0.162  -0.111   0.011  0.00  0.00    -0.014 C 
ATOM      6  C   UNL     1       0.580  -0.566  -1.248  0.00  0.00    +0.002 C 
ATOM      7  C   UNL     1       0.696  -2.092  -1.247  0.00  0.00    -0.010 C 
ATOM      8  C   UNL     1       1.469  -2.544  -0.007  0.00  0.00    -0.045 C 
ATOM      9  C   UNL     1       0.727  -2.089   1.251  0.00  0.00    -0.010 C 
ATOM     10  C   UNL     1       0.611  -0.563   1.251  0.00  0.00    +0.002 C 
BRANCH   8  11
ATOM     11  C   UNL     1       1.585  -4.070  -0.007  0.00  0.00    +0.143 C 
BRANCH  11  12
ATOM     12  O   UNL     1       2.415  -4.484   1.080  0.00  0.00    -0.396 OA
ATOM     13  H   UNL     1       2.533  -5.442   1.142  0.00  0.00    +0.209 HD
ENDBRANCH  11  12
ENDBRANCH   8  11
ENDBRANCH   1   8
BRANCH   1  14
ATOM     14  C   UNL     1       3.493  -2.316  -1.275  0.00  0.00    -0.045 C 
BRANCH  14  15
ATOM     15  C   UNL     1       4.938  -1.815  -1.234  0.00  0.00    +0.128 C 
BRANCH  15  16
ATOM     16  C   UNL     1       5.636  -2.189  -2.517  0.00  0.00    -0.018 A 
ATOM     17  C   UNL     1       5.528  -1.370  -3.625  0.00  0.00    +0.009 A 
ATOM     18  C   UNL     1       6.167  -1.711  -4.803  0.00  0.00    +0.041 A 
ATOM     19  C   UNL     1       6.915  -2.873  -4.872  0.00  0.00    +0.158 A 
ATOM     20  C   UNL     1       7.023  -3.695  -3.760  0.00  0.00    +0.159 A 
ATOM     21  C   UNL     1       6.386  -3.348  -2.582  0.00  0.00    +0.047 A 
ATOM     22  F   UNL     1       7.753  -4.830  -3.826  0.00  0.00    -0.202 F 
ATOM     23  F   UNL     1       7.540  -3.208  -6.023  0.00  0.00    -0.202 F 
ENDBRANCH  15  16
BRANCH  15  24
ATOM     24  O   UNL     1       4.946  -0.394  -1.085  0.00  0.00    -0.389 OA
ATOM     25  H   UNL     1       4.500   0.079  -1.801  0.00  0.00    +0.210 HD
ENDBRANCH  15  24
ENDBRANCH  14  15
ENDBRANCH   1  14
TORSDOF 7
