REMARK  Name = ZINC10129851
REMARK  10 active torsions:
REMARK  status: ('A' for Active; 'I' for Inactive)
REMARK    1  A    between atoms: C_1  and  C_2
REMARK    2  A    between atoms: C_3  and  N_9
REMARK    3  A    between atoms: C_10  and  C_12
REMARK    4  A    between atoms: N_14  and  C_15
REMARK    5  A    between atoms: C_15  and  C_16
REMARK    6  A    between atoms: C_16  and  C_18
REMARK    7  A    between atoms: C_16  and  N_66
REMARK    8  A    between atoms: C_21  and  N_24
REMARK    9  A    between atoms: N_24  and  C_25
REMARK   10  A    between atoms: N_24  and  C_26
REMARK                            x       y       z     vdW  Elec       q    Type
REMARK                         _______ _______ _______ _____ _____    ______ ____
ROOT
ATOM      1  C   UNL     1      -2.647   8.261  -0.328  0.00  0.00    -0.020 C 
ENDROOT
BRANCH   1  11
ATOM      2  C   UNL     1      -3.775   7.250  -2.219  0.00  0.00    -0.073 C 
ATOM      3  C   UNL     1      -4.944   6.324  -2.556  0.00  0.00    +0.017 C 
ATOM      4  C   UNL     1      -6.243   6.960  -2.133  0.00  0.00    -0.048 A 
ATOM      5  C   UNL     1      -7.426   6.462  -2.658  0.00  0.00    +0.004 A 
ATOM      6  C   UNL     1      -8.638   7.013  -2.294  0.00  0.00    +0.000 A 
ATOM      7  C   UNL     1      -8.673   8.069  -1.402  0.00  0.00    +0.000 A 
ATOM      8  C   UNL     1      -7.496   8.566  -0.879  0.00  0.00    +0.002 A 
ATOM      9  C   UNL     1      -6.277   8.014  -1.246  0.00  0.00    -0.061 A 
ATOM     10  C   UNL     1      -5.020   8.597  -0.656  0.00  0.00    -0.042 C 
ATOM     11  N   UNL     1      -3.907   7.645  -0.802  0.00  0.00    +0.388 N 
ATOM     12  H   UNL     1      -4.103   6.810  -0.238  0.00  0.00    -0.080 HD
ENDBRANCH   1  11
BRANCH   1  13
ATOM     13  C   UNL     1      -2.305   9.464  -1.168  0.00  0.00    -0.059 A 
ATOM     14  C   UNL     1      -2.007   9.307  -2.509  0.00  0.00    +0.004 A 
ATOM     15  C   UNL     1      -1.699  10.409  -3.283  0.00  0.00    +0.023 A 
ATOM     16  C   UNL     1      -1.677  11.674  -2.710  0.00  0.00    +0.029 A 
ATOM     17  C   UNL     1      -1.971  11.828  -1.361  0.00  0.00    +0.023 A 
ATOM     18  C   UNL     1      -2.284  10.723  -0.594  0.00  0.00    +0.004 A 
BRANCH  16  19
ATOM     19  N   UNL     1      -1.359  12.790  -3.488  0.00  0.00    -0.336 N 
ATOM     20  C   UNL     1      -1.336  14.123  -2.882  0.00  0.00    +0.129 C 
ATOM     21  C   UNL     1      -1.049  12.626  -4.911  0.00  0.00    +0.129 C 
ENDBRANCH  16  19
ENDBRANCH   1  13
BRANCH   1  22
ATOM     22  C   UNL     1      -1.520   7.231  -0.429  0.00  0.00    +0.094 C 
BRANCH  22  25
ATOM     23  C   UNL     1      -0.968   5.054   0.515  0.00  0.00    +0.299 C 
ATOM     24  O   UNL     1       0.119   5.130  -0.020  0.00  0.00    -0.265 OA
ATOM     25  N   UNL     1      -1.861   6.053   0.372  0.00  0.00    -0.309 N 
ATOM     26  H   UNL     1      -2.729   5.993   0.800  0.00  0.00    +0.149 HD
BRANCH  23  28
ATOM     27  N   UNL     1      -0.423   2.853   1.475  0.00  0.00    -0.277 N 
ATOM     28  C   UNL     1      -1.316   3.853   1.332  0.00  0.00    +0.303 C 
ATOM     29  O   UNL     1      -2.403   3.777   1.867  0.00  0.00    -0.265 OA
ATOM     30  H   UNL     1       0.470   2.945   1.109  0.00  0.00    +0.155 HD
BRANCH  27  33
ATOM     31  C   UNL     1       1.641   1.295   2.662  0.00  0.00    +0.047 C 
ATOM     32  C   UNL     1       0.191   0.894   2.745  0.00  0.00    -0.011 A 
ATOM     33  C   UNL     1      -0.785   1.685   2.150  0.00  0.00    +0.038 A 
ATOM     34  C   UNL     1      -2.121   1.311   2.228  0.00  0.00    +0.023 A 
ATOM     35  C   UNL     1      -2.475   0.155   2.897  0.00  0.00    +0.003 A 
ATOM     36  C   UNL     1      -1.503  -0.629   3.488  0.00  0.00    +0.020 A 
ATOM     37  C   UNL     1      -0.171  -0.261   3.412  0.00  0.00    +0.046 A 
ATOM     38 CL   UNL     1       1.047  -1.249   4.156  0.00  0.00    -0.083 Cl
ENDBRANCH  27  33
ENDBRANCH  23  28
ENDBRANCH  22  25
ENDBRANCH   1  22
TORSDOF 7
