REMARK  Name = ZINC43547735
REMARK  14 active torsions:
REMARK  status: ('A' for Active; 'I' for Inactive)
REMARK    1  A    between atoms: C_1  and  C_2
REMARK    2  A    between atoms: C_2  and  C_3
REMARK    3  A    between atoms: C_2  and  N_4
REMARK    4  A    between atoms: N_4  and  C_5
REMARK    5  A    between atoms: C_8  and  C_31
REMARK    6  A    between atoms: C_8  and  C_32
REMARK    7  A    between atoms: C_11  and  C_18
REMARK    8  A    between atoms: C_14  and  C_16
REMARK    9  A    between atoms: C_14  and  O_17
REMARK   10  A    between atoms: C_18  and  C_19
REMARK   11  A    between atoms: C_19  and  C_20
REMARK   12  A    between atoms: N_22  and  C_23
REMARK   13  A    between atoms: C_23  and  C_24
REMARK   14  A    between atoms: C_24  and  N_25
REMARK                            x       y       z     vdW  Elec       q    Type
REMARK                         _______ _______ _______ _____ _____    ______ ____
ROOT
ATOM      1  C   UNL     1      -2.045  -2.170   0.212  0.00  0.00    -0.064 C 
ATOM      2  C   UNL     1      -1.388  -2.669   1.523  0.00  0.00    -0.009 C 
ATOM      3  C   UNL     1      -2.499  -3.408   2.316  0.00  0.00    -0.033 C 
ATOM      4  C   UNL     1      -3.787  -2.784   1.765  0.00  0.00    +0.002 C 
ATOM      5  C   UNL     1      -3.472  -2.706   0.244  0.00  0.00    -0.038 C 
ATOM      6  C   UNL     1      -4.537  -1.837  -0.395  0.00  0.00    +0.008 C 
ATOM      7  C   UNL     1      -5.880  -2.569  -0.235  0.00  0.00    +0.035 C 
ATOM      8  C   UNL     1      -6.190  -2.852   1.232  0.00  0.00    +0.064 C 
ATOM      9  C   UNL     1      -5.047  -3.613   1.934  0.00  0.00    +0.039 C 
ATOM     10  C   UNL     1      -7.473  -3.681   1.321  0.00  0.00    +0.041 C 
ATOM     11  C   UNL     1      -2.366  -3.137   3.816  0.00  0.00    +0.011 C 
ATOM     12  C   UNL     1      -2.460  -4.911   2.030  0.00  0.00    +0.011 C 
ENDROOT
BRANCH   1  13
ATOM     13  N   UNL     1      -2.053  -0.702   0.173  0.00  0.00    +0.383 N 
ATOM     14  H   UNL     1      -2.488  -0.346   1.011  0.00  0.00    -0.085 HD
ATOM     15  H   UNL     1      -2.572  -0.390  -0.634  0.00  0.00    -0.085 HD
BRANCH  13  17
ATOM     16  C   UNL     1      -0.039  -0.683  -1.220  0.00  0.00    -0.014 C 
ATOM     17  C   UNL     1      -0.673  -0.206   0.088  0.00  0.00    -0.078 C 
ATOM     18  C   UNL     1      -0.677   1.323   0.126  0.00  0.00    -0.014 C 
ENDBRANCH  13  17
ENDBRANCH   1  13
BRANCH   8  19
ATOM     19  O   UNL     1      -6.388  -1.612   1.914  0.00  0.00    -0.389 OA
ATOM     20  H   UNL     1      -7.116  -1.081   1.562  0.00  0.00    +0.210 HD
ENDBRANCH   8  19
BRANCH   5  21
ATOM     21  C   UNL     1      -3.512  -4.109  -0.366  0.00  0.00    +0.015 C 
BRANCH  21  22
ATOM     22  C   UNL     1      -3.196  -4.024  -1.861  0.00  0.00    +0.096 C 
BRANCH  22  23
ATOM     23  C   UNL     1      -3.236  -5.405  -2.462  0.00  0.00    +0.213 C 
ATOM     24  O   UNL     1      -3.492  -6.363  -1.763  0.00  0.00    -0.276 OA
ATOM     25  N   UNL     1      -2.987  -5.575  -3.775  0.00  0.00    -0.314 N 
ATOM     26  H   UNL     1      -2.783  -4.809  -4.334  0.00  0.00    +0.149 HD
BRANCH  25  27
ATOM     27  C   UNL     1      -3.026  -6.918  -4.360  0.00  0.00    +0.119 C 
BRANCH  27  28
ATOM     28  C   UNL     1      -2.710  -6.833  -5.854  0.00  0.00    +0.103 C 
BRANCH  28  29
ATOM     29  N   UNL     1      -2.749  -8.180  -6.440  0.00  0.00    -0.297 NA
ATOM     30  C   UNL     1      -1.665  -9.018  -5.907  0.00  0.00    +0.112 C 
ATOM     31  C   UNL     1      -1.778 -10.426  -6.498  0.00  0.00    +0.175 C 
ATOM     32  O   UNL     1      -1.747 -10.343  -7.925  0.00  0.00    -0.377 OA
ATOM     33  C   UNL     1      -2.789  -9.535  -8.478  0.00  0.00    +0.175 C 
ATOM     34  C   UNL     1      -2.686  -8.118  -7.908  0.00  0.00    +0.112 C 
ENDBRANCH  28  29
ENDBRANCH  27  28
ENDBRANCH  25  27
ENDBRANCH  22  23
ENDBRANCH  21  22
ENDBRANCH   5  21
TORSDOF 9
