REMARK  Name = ZINC66390113
REMARK  7 active torsions:
REMARK  status: ('A' for Active; 'I' for Inactive)
REMARK    1  A    between atoms: C_1  and  C_2
REMARK    2  A    between atoms: C_2  and  C_4
REMARK    3  A    between atoms: C_2  and  N_11
REMARK    4  A    between atoms: N_9  and  C_10
REMARK    5  A    between atoms: N_11  and  C_12
REMARK    6  A    between atoms: C_12  and  C_13
REMARK    7  A    between atoms: C_13  and  C_18
REMARK                            x       y       z     vdW  Elec       q    Type
REMARK                         _______ _______ _______ _____ _____    ______ ____
ROOT
ATOM      1  N   UNL     1       2.236   1.384   1.049  0.00  0.00    +0.387 N 
ATOM      2  H   UNL     1       3.187   1.670   0.871  0.00  0.00    -0.085 HD
ATOM      3  H   UNL     1       1.932   1.760   1.935  0.00  0.00    -0.085 HD
ENDROOT
BRANCH   1   5
ATOM      4  C   UNL     1       1.899   1.416  -1.376  0.00  0.00    -0.004 C 
ATOM      5  C   UNL     1       1.365   1.885  -0.021  0.00  0.00    +0.013 C 
BRANCH   5   6
ATOM      6  C   UNL     1       1.342   3.392   0.014  0.00  0.00    +0.206 C 
ATOM      7  O   UNL     1       1.987   3.989   0.849  0.00  0.00    -0.277 OA
ATOM      8  N   UNL     1       0.603   4.076  -0.882  0.00  0.00    -0.242 N 
ATOM      9  C   UNL     1       0.582   5.423  -0.850  0.00  0.00    +0.306 C 
ATOM     10  O   UNL     1       1.229   6.021  -0.013  0.00  0.00    -0.252 OA
ATOM     11  N   UNL     1      -0.156   6.107  -1.747  0.00  0.00    -0.302 N 
ATOM     12  C   UNL     1      -0.179   7.571  -1.712  0.00  0.00    +0.129 C 
ATOM     13  H   UNL     1       0.087   3.598  -1.550  0.00  0.00    +0.159 HD
ATOM     14  H   UNL     1      -0.673   5.629  -2.415  0.00  0.00    +0.150 HD
ENDBRANCH   5   6
ENDBRANCH   1   5
BRANCH   1  15
ATOM     15  C   UNL     1       2.166  -0.083   1.091  0.00  0.00    -0.070 C 
BRANCH  15  16
ATOM     16  C   UNL     1       2.965  -0.598   2.290  0.00  0.00    -0.019 C 
ATOM     17  C   UNL     1       2.363  -0.055   3.598  0.00  0.00    +0.010 C 
ATOM     18  C   UNL     1       3.467   0.779   4.279  0.00  0.00    +0.001 C 
ATOM     19  C   UNL     1       4.405   1.190   3.117  0.00  0.00    +0.001 C 
ATOM     20  C   UNL     1       4.415  -0.075   2.222  0.00  0.00    +0.010 C 
BRANCH  16  21
ATOM     21  C   UNL     1       2.960  -2.105   2.305  0.00  0.00    -0.042 A 
ATOM     22  C   UNL     1       2.346  -2.804   1.282  0.00  0.00    +0.004 A 
ATOM     23  C   UNL     1       2.341  -4.186   1.294  0.00  0.00    +0.002 A 
ATOM     24  C   UNL     1       2.949  -4.870   2.330  0.00  0.00    +0.020 A 
ATOM     25  C   UNL     1       3.564  -4.171   3.353  0.00  0.00    +0.041 A 
ATOM     26  C   UNL     1       3.574  -2.788   3.337  0.00  0.00    +0.024 A 
ATOM     27 CL   UNL     1       4.329  -5.030   4.654  0.00  0.00    -0.084 Cl
ENDBRANCH  16  21
ENDBRANCH  15  16
ENDBRANCH   1  15
TORSDOF 5
