REMARK  Name = ZINC09257718
REMARK  11 active torsions:
REMARK  status: ('A' for Active; 'I' for Inactive)
REMARK    1  A    between atoms: C_1  and  C_2
REMARK    2  A    between atoms: C_5  and  O_9
REMARK    3  A    between atoms: C_6  and  C_8
REMARK    4  A    between atoms: O_9  and  C_10
REMARK    5  A    between atoms: C_10  and  C_11
REMARK    6  A    between atoms: C_14  and  S_17
REMARK    7  A    between atoms: N_15  and  N_16
REMARK    8  A    between atoms: S_17  and  C_18
REMARK    9  A    between atoms: C_18  and  C_19
REMARK   10  A    between atoms: N_21  and  C_22
REMARK   11  A    between atoms: C_23  and  C_32
REMARK                            x       y       z     vdW  Elec       q    Type
REMARK                         _______ _______ _______ _____ _____    ______ ____
ROOT
ATOM      1  C   UNL     1       3.714  -0.858  -0.037  0.00  0.00    +0.189 A 
ATOM      2  N   UNL     1       4.441  -1.148   1.005  0.00  0.00    -0.128 NA
ATOM      3  N   UNL     1       5.585  -1.601   0.632  0.00  0.00    -0.121 NA
ATOM      4  C   UNL     1       5.649  -1.625  -0.679  0.00  0.00    +0.209 A 
ATOM      5  N   UNL     1       4.455  -1.156  -1.147  0.00  0.00    -0.225 N 
ENDROOT
BRANCH   5   6
ATOM      6  N   UNL     1       4.079  -1.012  -2.452  0.00  0.00    -0.295 N 
ATOM      7  H   UNL     1       4.327  -0.098  -2.801  0.00  0.00    +0.163 HD
ATOM      8  H   UNL     1       4.480  -1.739  -3.026  0.00  0.00    +0.163 HD
ENDBRANCH   5   6
BRANCH   1   9
ATOM      9  C   UNL     1       2.313  -0.303  -0.021  0.00  0.00    +0.306 C 
BRANCH   9  10
ATOM     10  O   UNL     1       2.366   1.125  -0.014  0.00  0.00    -0.484 OA
BRANCH  10  15
ATOM     11  C   UNL     1      -2.553   3.867   0.046  0.00  0.00    +0.044 C 
ATOM     12  C   UNL     1      -1.237   3.133   0.030  0.00  0.00    -0.050 A 
ATOM     13  C   UNL     1      -1.218   1.751   0.017  0.00  0.00    +0.007 A 
ATOM     14  C   UNL     1      -0.013   1.076   0.008  0.00  0.00    +0.046 A 
ATOM     15  C   UNL     1       1.179   1.786   0.000  0.00  0.00    +0.124 A 
ATOM     16  C   UNL     1       1.157   3.173   0.008  0.00  0.00    -0.009 A 
ATOM     17  C   UNL     1      -0.051   3.844   0.023  0.00  0.00    +0.010 A 
ATOM     18  C   UNL     1       2.449   3.948   0.000  0.00  0.00    +0.047 C 
ENDBRANCH  10  15
ENDBRANCH   9  10
ENDBRANCH   1   9
BRANCH   4  19
ATOM     19  S   UNL     1       7.015  -2.166  -1.652  0.00  0.00    -0.075 S 
BRANCH  19  20
ATOM     20  C   UNL     1       8.173  -2.626  -0.339  0.00  0.00    +0.173 C 
BRANCH  20  21
ATOM     21  C   UNL     1       9.453  -3.133  -0.952  0.00  0.00    +0.228 C 
ATOM     22  O   UNL     1       9.570  -3.178  -2.159  0.00  0.00    -0.275 OA
ATOM     23  N   UNL     1      10.466  -3.535  -0.161  0.00  0.00    -0.278 N 
ATOM     24  H   UNL     1      10.372  -3.499   0.804  0.00  0.00    +0.155 HD
BRANCH  23  25
ATOM     25  C   UNL     1      11.645  -4.002  -0.726  0.00  0.00    +0.090 A 
ATOM     26  C   UNL     1      12.789  -4.450  -0.085  0.00  0.00    +0.084 A 
ATOM     27  C   UNL     1      13.899  -4.898  -0.914  0.00  0.00    -0.018 A 
ATOM     28  C   UNL     1      13.688  -4.808  -2.245  0.00  0.00    -0.004 A 
ATOM     29  S   UNL     1      12.046  -4.159  -2.403  0.00  0.00    -0.077 S 
ATOM     30  C   UNL     1      14.636  -5.163  -3.348  0.00  0.00    +0.043 C 
ATOM     31  C   UNL     1      15.223  -6.556  -3.083  0.00  0.00    +0.005 C 
ATOM     32  C   UNL     1      16.488  -6.394  -2.246  0.00  0.00    +0.001 C 
ATOM     33  C   UNL     1      16.346  -5.200  -1.303  0.00  0.00    +0.005 C 
ATOM     34  C   UNL     1      15.200  -5.429  -0.324  0.00  0.00    +0.037 C 
BRANCH  26  35
ATOM     35  C   UNL     1      12.875  -4.475   1.344  0.00  0.00    +0.102 C 
ATOM     36  N   UNL     1      12.943  -4.495   2.478  0.00  0.00    -0.191 NA
ENDBRANCH  26  35
ENDBRANCH  23  25
ENDBRANCH  20  21
ENDBRANCH  19  20
ENDBRANCH   4  19
TORSDOF 9
