REMARK  Name = ZINC44344745
REMARK  5 active torsions:
REMARK  status: ('A' for Active; 'I' for Inactive)
REMARK    1  A    between atoms: C_1  and  C_2
REMARK    2  A    between atoms: C_2  and  C_4
REMARK    3  A    between atoms: C_2  and  N_9
REMARK    4  A    between atoms: C_10  and  C_12
REMARK    5  A    between atoms: C_13  and  C_14
REMARK                            x       y       z     vdW  Elec       q    Type
REMARK                         _______ _______ _______ _____ _____    ______ ____
ROOT
ATOM      1  N   UNL     1      -1.372  -0.511   0.012  0.00  0.00    -0.302 N 
ATOM      2  C   UNL     1      -2.051  -0.643  -1.145  0.00  0.00    +0.237 C 
ATOM      3  O   UNL     1      -1.522  -0.340  -2.198  0.00  0.00    -0.271 OA
ATOM      4  H   UNL     1      -1.794  -0.752   0.852  0.00  0.00    +0.150 HD
ENDROOT
BRANCH   1   6
ATOM      5  C   UNL     1      -0.019   1.526   0.010  0.00  0.00    +0.036 C 
ATOM      6  C   UNL     1       0.002  -0.004   0.002  0.00  0.00    +0.142 C 
BRANCH   6   7
ATOM      7  C   UNL     1       0.731  -0.503   1.223  0.00  0.00    +0.196 A 
ATOM      8  N   UNL     1       1.955  -1.010   1.260  0.00  0.00    -0.109 NA
ATOM      9  N   UNL     1       2.212  -1.317   2.486  0.00  0.00    -0.021 NA
ATOM     10  N   UNL     1       1.194  -1.020   3.215  0.00  0.00    -0.021 NA
ATOM     11  N   UNL     1       0.274  -0.515   2.466  0.00  0.00    -0.109 NA
ENDBRANCH   6   7
ENDBRANCH   1   6
BRANCH   2  12
ATOM     12  C   UNL     1      -3.424  -1.149  -1.134  0.00  0.00    +0.068 C 
ATOM     13  C   UNL     1      -4.103  -1.281  -2.292  0.00  0.00    +0.013 C 
BRANCH  13  14
ATOM     14  C   UNL     1      -5.484  -1.790  -2.281  0.00  0.00    -0.023 A 
ATOM     15  C   UNL     1      -6.097  -2.134  -1.072  0.00  0.00    +0.009 A 
ATOM     16  C   UNL     1      -7.390  -2.610  -1.069  0.00  0.00    +0.022 A 
ATOM     17  C   UNL     1      -8.084  -2.749  -2.260  0.00  0.00    +0.059 A 
ATOM     18  C   UNL     1      -7.483  -2.412  -3.463  0.00  0.00    +0.060 A 
ATOM     19  C   UNL     1      -6.191  -1.928  -3.480  0.00  0.00    +0.029 A 
ATOM     20 CL   UNL     1      -8.360  -2.592  -4.950  0.00  0.00    -0.082 Cl
ATOM     21 CL   UNL     1      -9.712  -3.350  -2.247  0.00  0.00    -0.082 Cl
ENDBRANCH  13  14
ENDBRANCH   2  12
TORSDOF 4
