REMARK  Name = ZINC36824189
REMARK  8 active torsions:
REMARK  status: ('A' for Active; 'I' for Inactive)
REMARK    1  A    between atoms: C_1  and  C_2
REMARK    2  A    between atoms: C_4  and  O_19
REMARK    3  A    between atoms: C_5  and  O_17
REMARK    4  A    between atoms: C_7  and  C_8
REMARK    5  A    between atoms: C_8  and  C_10
REMARK    6  A    between atoms: C_8  and  N_16
REMARK    7  A    between atoms: O_17  and  C_18
REMARK    8  A    between atoms: O_19  and  C_20
REMARK                            x       y       z     vdW  Elec       q    Type
REMARK                         _______ _______ _______ _____ _____    ______ ____
ROOT
ATOM      1  C   UNL     1      -0.018   1.503   0.010  0.00  0.00    +0.044 C 
ATOM      2  C   UNL     1       0.002  -0.004   0.002  0.00  0.00    -0.045 A 
ATOM      3  C   UNL     1       0.006  -0.687  -1.200  0.00  0.00    +0.053 A 
ATOM      4  C   UNL     1       0.025  -2.072  -1.210  0.00  0.00    +0.162 A 
ATOM      5  C   UNL     1       0.040  -2.773  -0.007  0.00  0.00    +0.162 A 
ATOM      6  C   UNL     1       0.036  -2.083   1.194  0.00  0.00    +0.052 A 
ATOM      7  C   UNL     1       0.023  -0.700   1.196  0.00  0.00    -0.051 A 
ENDROOT
BRANCH   5   8
ATOM      8  O   UNL     1       0.058  -4.133  -0.011  0.00  0.00    -0.491 OA
ATOM      9  C   UNL     1       0.073  -4.785   1.260  0.00  0.00    +0.277 C 
ENDBRANCH   5   8
BRANCH   4  10
ATOM     10  O   UNL     1       0.028  -2.746  -2.391  0.00  0.00    -0.491 OA
ATOM     11  C   UNL     1       0.011  -1.961  -3.585  0.00  0.00    +0.277 C 
ENDBRANCH   4  10
BRANCH   7  12
ATOM     12  C   UNL     1       0.025   0.050   2.503  0.00  0.00    -0.006 C 
BRANCH  12  13
ATOM     13  C   UNL     1      -1.391   0.388   2.891  0.00  0.00    -0.019 A 
ATOM     14  C   UNL     1      -2.061   1.557   2.742  0.00  0.00    +0.011 A 
ATOM     15  C   UNL     1      -3.371   1.639   3.176  0.00  0.00    +0.023 A 
ATOM     16  C   UNL     1      -3.947   0.547   3.738  0.00  0.00    +0.055 A 
ATOM     17  S   UNL     1      -2.625  -0.650   3.658  0.00  0.00    -0.088 S 
ATOM     18 BR   UNL     1      -5.698   0.344   4.422  0.00  0.00    -0.043 Br
ENDBRANCH  12  13
BRANCH  12  19
ATOM     19  N   UNL     1       0.632  -0.787   3.547  0.00  0.00    +0.386 N 
ATOM     20  H   UNL     1       1.580  -1.014   3.287  0.00  0.00    -0.089 HD
ATOM     21  H   UNL     1       0.633  -0.285   4.422  0.00  0.00    -0.089 HD
ATOM     22  H   UNL     1       0.099  -1.638   3.648  0.00  0.00    -0.089 HD
ENDBRANCH  12  19
ENDBRANCH   7  12
TORSDOF 5
