REMARK  Name = ZINC59723450
REMARK  12 active torsions:
REMARK  status: ('A' for Active; 'I' for Inactive)
REMARK    1  A    between atoms: C_1  and  C_2
REMARK    2  A    between atoms: C_2  and  N_3
REMARK    3  A    between atoms: N_6  and  C_9
REMARK    4  A    between atoms: C_12  and  C_35
REMARK    5  A    between atoms: C_14  and  N_15
REMARK    6  A    between atoms: C_16  and  C_18
REMARK    7  A    between atoms: C_19  and  C_20
REMARK    8  A    between atoms: C_23  and  C_25
REMARK    9  A    between atoms: C_28  and  C_34
REMARK   10  A    between atoms: C_30  and  N_31
REMARK   11  A    between atoms: C_35  and  O_37
REMARK   12  A    between atoms: O_37  and  C_38
REMARK                            x       y       z     vdW  Elec       q    Type
REMARK                         _______ _______ _______ _____ _____    ______ ____
ROOT
ATOM      1  N   UNL     1       3.329  -2.325  -5.349  0.00  0.00    -0.280 N 
ATOM      2  C   UNL     1       3.980  -1.914  -6.456  0.00  0.00    +0.241 C 
ATOM      3  O   UNL     1       5.164  -2.165  -6.595  0.00  0.00    -0.270 OA
ATOM      4  H   UNL     1       2.373  -2.183  -5.268  0.00  0.00    +0.155 HD
ENDROOT
BRANCH   1  10
ATOM      5  C   UNL     1       3.662  -2.747  -2.986  0.00  0.00    +0.051 A 
ATOM      6  C   UNL     1       4.357  -3.378  -1.960  0.00  0.00    +0.026 A 
ATOM      7  C   UNL     1       5.417  -4.207  -2.250  0.00  0.00    +0.017 A 
ATOM      8  C   UNL     1       5.798  -4.417  -3.579  0.00  0.00    +0.061 A 
ATOM      9  C   UNL     1       5.101  -3.784  -4.613  0.00  0.00    +0.040 A 
ATOM     10  C   UNL     1       4.034  -2.957  -4.317  0.00  0.00    +0.056 A 
BRANCH   5  14
ATOM     11  N   UNL     1       0.698  -0.496  -1.193  0.00  0.00    +0.382 N 
ATOM     12  C   UNL     1       2.107  -0.084  -1.147  0.00  0.00    -0.060 C 
ATOM     13  C   UNL     1       2.795  -0.471  -2.460  0.00  0.00    +0.086 C 
ATOM     14  N   UNL     1       2.590  -1.910  -2.687  0.00  0.00    -0.332 N 
ATOM     15  C   UNL     1       1.221  -2.440  -2.590  0.00  0.00    +0.086 C 
ATOM     16  C   UNL     1       0.608  -1.960  -1.270  0.00  0.00    -0.060 C 
ATOM     17  H   UNL     1       0.258  -0.090  -2.005  0.00  0.00    -0.082 HD
BRANCH  11  19
ATOM     18  C   UNL     1      -0.002   1.501   0.038  0.00  0.00    -0.017 C 
ATOM     19  C   UNL     1       0.013  -0.028   0.019  0.00  0.00    -0.082 C 
ENDBRANCH  11  19
ENDBRANCH   5  14
BRANCH   8  20
ATOM     20  C   UNL     1       6.933  -5.304  -3.890  0.00  0.00    +0.339 C 
ATOM     21  O   UNL     1       7.264  -5.486  -5.045  0.00  0.00    -0.245 OA
BRANCH  20  22
ATOM     22  O   UNL     1       7.605  -5.913  -2.893  0.00  0.00    -0.464 OA
ATOM     23  C   UNL     1       8.694  -6.759  -3.267  0.00  0.00    +0.280 C 
ENDBRANCH  20  22
ENDBRANCH   8  20
ENDBRANCH   1  10
BRANCH   2  24
ATOM     24  C   UNL     1       3.288  -1.192  -7.456  0.00  0.00    +0.071 C 
ATOM     25  C   UNL     1       3.944  -0.778  -8.571  0.00  0.00    +0.051 C 
BRANCH  25  26
ATOM     26  C   UNL     1       3.252  -0.057  -9.571  0.00  0.00    +0.129 A 
ATOM     27  C   UNL     1       3.793   0.417 -10.752  0.00  0.00    +0.050 A 
ATOM     28  C   UNL     1       2.761   1.066 -11.435  0.00  0.00    +0.050 A 
ATOM     29  C   UNL     1       1.641   0.968 -10.659  0.00  0.00    +0.138 A 
ATOM     30  O   UNL     1       1.947   0.285  -9.542  0.00  0.00    -0.455 OA
BRANCH  29  31
ATOM     31  C   UNL     1       0.312   1.517 -10.995  0.00  0.00    +0.047 A 
ATOM     32  C   UNL     1       0.185   2.845 -11.409  0.00  0.00    +0.014 A 
ATOM     33  C   UNL     1      -1.059   3.351 -11.721  0.00  0.00    +0.004 A 
ATOM     34  C   UNL     1      -2.181   2.546 -11.626  0.00  0.00    -0.048 A 
ATOM     35  C   UNL     1      -2.063   1.229 -11.217  0.00  0.00    +0.036 A 
ATOM     36  C   UNL     1      -0.824   0.709 -10.906  0.00  0.00    +0.137 A 
ATOM     37  C   UNL     1      -3.537   3.106 -11.969  0.00  0.00    +0.044 C 
BRANCH  36  38
ATOM     38  N   UNL     1      -0.699  -0.702 -10.475  0.00  0.00    +0.057 N 
ATOM     39  O   UNL     1      -1.683  -1.400 -10.399  0.00  0.00    -0.126 OA
ATOM     40  O   UNL     1       0.388  -1.155 -10.199  0.00  0.00    -0.126 OA
ENDBRANCH  36  38
ENDBRANCH  29  31
ENDBRANCH  25  26
ENDBRANCH   2  24
TORSDOF 9
