REMARK  Name = ZINC05742393
REMARK  7 active torsions:
REMARK  status: ('A' for Active; 'I' for Inactive)
REMARK    1  A    between atoms: C_1  and  C_2
REMARK    2  A    between atoms: C_2  and  C_15
REMARK    3  A    between atoms: C_3  and  C_11
REMARK    4  A    between atoms: C_6  and  C_8
REMARK    5  A    between atoms: C_6  and  O_10
REMARK    6  A    between atoms: C_11  and  O_13
REMARK    7  A    between atoms: O_13  and  C_14
REMARK                            x       y       z     vdW  Elec       q    Type
REMARK                         _______ _______ _______ _____ _____    ______ ____
ROOT
ATOM      1  C   UNL     1      -0.977  -0.571   1.032  0.00  0.00    +0.024 C 
ATOM      2  C   UNL     1       0.002  -0.004   0.002  0.00  0.00    +0.041 C 
ATOM      3  C   UNL     1       1.463  -0.301   0.406  0.00  0.00    +0.182 C 
ATOM      4  N   UNL     1       2.232   0.892   0.767  0.00  0.00    -0.257 NA
ATOM      5  C   UNL     1       1.807   2.098  -0.004  0.00  0.00    +0.272 C 
ATOM      6  S   UNL     1      -0.023   1.840   0.012  0.00  0.00    -0.091 S 
ATOM      7  C   UNL     1      -0.302  -0.548  -1.395  0.00  0.00    +0.024 C 
ATOM      8  H   UNL     1       3.223   0.729   0.666  0.00  0.00    +0.127 HD
ENDROOT
BRANCH   5   9
ATOM      9  C   UNL     1       2.189   3.369   0.708  0.00  0.00    +0.413 C 
ATOM     10  O   UNL     1       2.897   3.324   1.687  0.00  0.00    -0.240 OA
ATOM     11  O   UNL     1       1.744   4.552   0.256  0.00  0.00    -0.240 OA
ENDBRANCH   5   9
BRANCH   5  12
ATOM     12  O   UNL     1       2.325   2.074  -1.335  0.00  0.00    -0.357 OA
ATOM     13  H   UNL     1       1.970   2.768  -1.908  0.00  0.00    +0.213 HD
ENDBRANCH   5  12
BRANCH   3  14
ATOM     14  C   UNL     1       2.152  -0.986  -0.746  0.00  0.00    +0.326 C 
ATOM     15  O   UNL     1       2.870  -0.354  -1.483  0.00  0.00    -0.249 OA
BRANCH  14  16
ATOM     16  O   UNL     1       1.966  -2.299  -0.953  0.00  0.00    -0.467 OA
ATOM     17  C   UNL     1       2.661  -2.893  -2.082  0.00  0.00    +0.280 C 
ENDBRANCH  14  16
ENDBRANCH   3  14
TORSDOF 4
