REMARK  Name = ZINC67458064
REMARK  8 active torsions:
REMARK  status: ('A' for Active; 'I' for Inactive)
REMARK    1  A    between atoms: C_1  and  N_2
REMARK    2  A    between atoms: N_2  and  C_3
REMARK    3  A    between atoms: C_6  and  C_10
REMARK    4  A    between atoms: C_10  and  N_11
REMARK    5  A    between atoms: N_14  and  C_15
REMARK    6  A    between atoms: C_15  and  C_16
REMARK    7  A    between atoms: C_16  and  C_18
REMARK    8  A    between atoms: C_16  and  O_28
REMARK                            x       y       z     vdW  Elec       q    Type
REMARK                         _______ _______ _______ _____ _____    ______ ____
ROOT
ATOM      1  N   UNL     1      -1.351  -4.764  -2.463  0.00  0.00    -0.295 N 
ATOM      2  C   UNL     1      -1.585  -6.091  -2.499  0.00  0.00    +0.300 C 
ATOM      3  O   UNL     1      -0.653  -6.872  -2.529  0.00  0.00    -0.253 OA
ATOM      4  N   UNL     1      -2.851  -6.552  -2.503  0.00  0.00    -0.297 N 
ATOM      5  H   UNL     1      -2.094  -4.141  -2.439  0.00  0.00    +0.151 HD
ATOM      6  H   UNL     1      -3.594  -5.930  -2.479  0.00  0.00    +0.150 HD
ENDROOT
BRANCH   1   7
ATOM      7  C   UNL     1       0.025  -4.262  -2.458  0.00  0.00    +0.141 C 
BRANCH   7  13
ATOM      8  C   UNL     1      -0.018   1.461   0.010  0.00  0.00    +0.130 C 
ATOM      9  N   UNL     1       0.002  -0.004   0.002  0.00  0.00    -0.323 N 
ATOM     10  C   UNL     1       0.024  -0.743   1.267  0.00  0.00    +0.130 C 
ATOM     11  C   UNL     1       0.000  -0.693  -1.206  0.00  0.00    +0.098 A 
ATOM     12  C   UNL     1       0.013  -2.084  -1.206  0.00  0.00    +0.047 A 
ATOM     13  C   UNL     1       0.011  -2.756  -2.415  0.00  0.00    -0.026 A 
ATOM     14  C   UNL     1      -0.004  -2.012  -3.587  0.00  0.00    +0.023 A 
ATOM     15  C   UNL     1      -0.017  -0.633  -3.513  0.00  0.00    +0.084 A 
ATOM     16  N   UNL     1      -0.020  -0.019  -2.345  0.00  0.00    -0.350 N 
ATOM     17  H   UNL     1      -0.033   0.951  -2.321  0.00  0.00    +0.166 HD
ENDBRANCH   7  13
ENDBRANCH   1   7
BRANCH   4  18
ATOM     18  C   UNL     1      -3.105  -7.995  -2.543  0.00  0.00    +0.141 C 
BRANCH  18  19
ATOM     19  C   UNL     1      -4.614  -8.247  -2.539  0.00  0.00    +0.162 C 
BRANCH  19  20
ATOM     20  C   UNL     1      -4.875  -9.729  -2.456  0.00  0.00    -0.017 A 
ATOM     21  C   UNL     1      -4.772 -10.509  -3.607  0.00  0.00    +0.007 A 
ATOM     22  C   UNL     1      -5.002 -11.850  -3.566  0.00  0.00    +0.009 A 
ATOM     23  C   UNL     1      -5.347 -12.460  -2.348  0.00  0.00    -0.018 A 
ATOM     24  C   UNL     1      -5.591 -13.842  -2.268  0.00  0.00    +0.008 A 
ATOM     25  C   UNL     1      -5.923 -14.399  -1.071  0.00  0.00    +0.001 A 
ATOM     26  C   UNL     1      -6.025 -13.618   0.080  0.00  0.00    +0.001 A 
ATOM     27  C   UNL     1      -5.795 -12.277   0.040  0.00  0.00    +0.008 A 
ATOM     28  C   UNL     1      -5.451 -11.667  -1.179  0.00  0.00    -0.018 A 
ATOM     29  C   UNL     1      -5.201 -10.286  -1.258  0.00  0.00    +0.014 A 
ENDBRANCH  19  20
BRANCH  19  30
ATOM     30  O   UNL     1      -5.187  -7.729  -3.741  0.00  0.00    -0.386 OA
ATOM     31  H   UNL     1      -4.833  -8.127  -4.549  0.00  0.00    +0.210 HD
ENDBRANCH  19  30
ENDBRANCH  18  19
ENDBRANCH   4  18
TORSDOF 6
