REMARK  Name = ZINC62814274
REMARK  6 active torsions:
REMARK  status: ('A' for Active; 'I' for Inactive)
REMARK    1  A    between atoms: C_1  and  C_2
REMARK    2  A    between atoms: C_2  and  O_3
REMARK    3  A    between atoms: O_3  and  C_4
REMARK    4  A    between atoms: C_9  and  N_12
REMARK    5  A    between atoms: C_13  and  C_15
REMARK    6  A    between atoms: C_19  and  C_23
REMARK                            x       y       z     vdW  Elec       q    Type
REMARK                         _______ _______ _______ _____ _____    ______ ____
ROOT
ATOM      1  N   UNL     1      -6.050  -3.783  -2.128  0.00  0.00    -0.311 N 
ATOM      2  C   UNL     1      -6.852  -4.857  -1.993  0.00  0.00    +0.228 C 
ATOM      3  O   UNL     1      -6.828  -5.508  -0.970  0.00  0.00    -0.274 OA
ATOM      4  H   UNL     1      -6.069  -3.263  -2.947  0.00  0.00    +0.149 HD
ENDROOT
BRANCH   2   5
ATOM      5  C   UNL     1      -7.779  -5.251  -3.114  0.00  0.00    +0.123 C 
ATOM      6  C   UNL     1      -9.026  -4.365  -3.081  0.00  0.00    -0.054 C 
ATOM      7  N   UNL     1      -9.938  -4.762  -4.161  0.00  0.00    +0.383 N 
ATOM      8  C   UNL     1     -10.345  -6.160  -3.972  0.00  0.00    -0.061 C 
ATOM      9  C   UNL     1      -9.109  -7.061  -4.013  0.00  0.00    +0.065 C 
ATOM     10  N   UNL     1      -8.175  -6.657  -2.952  0.00  0.00    -0.309 NA
ATOM     11  C   UNL     1     -11.310  -6.567  -5.088  0.00  0.00    -0.012 C 
ATOM     12  H   UNL     1     -10.755  -4.169  -4.146  0.00  0.00    -0.085 HD
ATOM     13  H   UNL     1      -7.367  -7.260  -2.932  0.00  0.00    +0.123 HD
ATOM     14  H   UNL     1      -9.470  -4.665  -5.049  0.00  0.00    -0.085 HD
ENDBRANCH   2   5
BRANCH   1  20
ATOM     15  C   UNL     1      -1.497  -1.836   0.006  0.00  0.00    +0.403 C 
ATOM     16  O   UNL     1      -0.523  -2.563  -0.007  0.00  0.00    -0.226 OA
ATOM     17  N   UNL     1      -2.735  -2.368   0.015  0.00  0.00    -0.267 N 
ATOM     18  C   UNL     1      -3.922  -1.502   0.025  0.00  0.00    +0.113 C 
ATOM     19  C   UNL     1      -4.836  -1.905  -1.136  0.00  0.00    +0.041 C 
ATOM     20  C   UNL     1      -5.149  -3.400  -1.038  0.00  0.00    +0.076 C 
ATOM     21  C   UNL     1      -3.849  -4.202  -1.145  0.00  0.00    +0.041 C 
ATOM     22  C   UNL     1      -2.924  -3.825   0.009  0.00  0.00    +0.113 C 
BRANCH  15  23
ATOM     23  O   UNL     1      -1.339  -0.499   0.012  0.00  0.00    -0.451 OA
BRANCH  23  25
ATOM     24  C   UNL     1      -0.019   1.526   0.010  0.00  0.00    +0.048 C 
ATOM     25  C   UNL     1       0.002  -0.004   0.002  0.00  0.00    +0.230 C 
ENDBRANCH  23  25
ENDBRANCH  15  23
ENDBRANCH   1  20
TORSDOF 4
