REMARK  Name = ZINC62215375
REMARK  4 active torsions:
REMARK  status: ('A' for Active; 'I' for Inactive)
REMARK    1  A    between atoms: C_1  and  C_2
REMARK    2  A    between atoms: C_8  and  C_10
REMARK    3  A    between atoms: C_10  and  C_12
REMARK    4  A    between atoms: C_10  and  N_13
REMARK                            x       y       z     vdW  Elec       q    Type
REMARK                         _______ _______ _______ _____ _____    ______ ____
ROOT
ATOM      1  C   UNL     1       0.093  -6.325   0.415  0.00  0.00    +0.017 C 
ATOM      2  C   UNL     1       1.349  -6.574   1.252  0.00  0.00    -0.004 C 
ENDROOT
BRANCH   1   3
ATOM      3  N   UNL     1       0.101  -7.212  -0.756  0.00  0.00    +0.394 N 
ATOM      4  C   UNL     1      -0.026  -8.626  -0.341  0.00  0.00    -0.020 C 
ATOM      5  C   UNL     1      -0.836  -9.316  -1.433  0.00  0.00    +0.035 A 
ATOM      6  C   UNL     1      -1.455  -8.338  -2.138  0.00  0.00    -0.004 A 
ATOM      7  S   UNL     1      -2.355  -9.258  -3.358  0.00  0.00    -0.059 S 
ATOM      8  C   UNL     1      -1.875 -10.799  -2.880  0.00  0.00    +0.156 A 
ATOM      9  N   UNL     1      -1.087 -10.560  -1.858  0.00  0.00    -0.232 NA
ATOM     10  N   UNL     1      -2.225 -12.022  -3.430  0.00  0.00    -0.338 N 
ATOM     11  C   UNL     1      -1.106  -6.992  -1.588  0.00  0.00    -0.032 C 
ATOM     12  H   UNL     1      -2.823 -12.056  -4.194  0.00  0.00    +0.144 HD
ATOM     13  H   UNL     1      -1.873 -12.843  -3.053  0.00  0.00    +0.144 HD
ATOM     14  H   UNL     1       0.939  -7.073  -1.302  0.00  0.00    -0.080 HD
ENDBRANCH   1   3
BRANCH   1  22
ATOM     15  C   UNL     1      -0.018   1.503   0.010  0.00  0.00    +0.075 C 
ATOM     16  C   UNL     1       0.002  -0.004   0.002  0.00  0.00    +0.101 A 
ATOM     17  N   UNL     1       0.010  -0.844  -1.014  0.00  0.00    -0.145 NA
ATOM     18  N   UNL     1       0.028  -2.086  -0.784  0.00  0.00    -0.126 NA
ATOM     19  C   UNL     1       0.040  -2.568   0.443  0.00  0.00    +0.188 A 
ATOM     20  S   UNL     1       0.031  -1.158   1.367  0.00  0.00    -0.036 S 
ATOM     21  N   UNL     1       0.060  -3.893   0.865  0.00  0.00    -0.265 N 
ATOM     22  C   UNL     1       0.071  -4.889  -0.043  0.00  0.00    +0.205 C 
ATOM     23  O   UNL     1       0.063  -4.630  -1.227  0.00  0.00    -0.277 OA
ATOM     24  H   UNL     1       0.067  -4.100   1.813  0.00  0.00    +0.157 HD
ENDBRANCH   1  22
TORSDOF 2
