REMARK  Name = ZINC39695796
REMARK  9 active torsions:
REMARK  status: ('A' for Active; 'I' for Inactive)
REMARK    1  A    between atoms: C_1  and  C_2
REMARK    2  A    between atoms: C_2  and  S_3
REMARK    3  A    between atoms: S_3  and  C_4
REMARK    4  A    between atoms: C_5  and  C_10
REMARK    5  A    between atoms: C_14  and  C_23
REMARK    6  A    between atoms: N_25  and  C_26
REMARK    7  A    between atoms: C_26  and  C_28
REMARK    8  A    between atoms: C_26  and  C_29
REMARK    9  A    between atoms: C_35  and  C_39
REMARK                            x       y       z     vdW  Elec       q    Type
REMARK                         _______ _______ _______ _____ _____    ______ ____
ROOT
ATOM      1  C   UNL     1       1.890  -2.660  -3.424  0.00  0.00    +0.249 C 
ATOM      2  O   UNL     1       1.893  -1.447  -3.502  0.00  0.00    -0.270 OA
ATOM      3  N   UNL     1       2.583  -3.395  -4.316  0.00  0.00    -0.296 N 
ATOM      4  C   UNL     1       2.616  -4.871  -4.447  0.00  0.00    +0.121 C 
ATOM      5  C   UNL     1       2.626  -5.126  -5.971  0.00  0.00    +0.100 C 
ATOM      6  C   UNL     1       3.200  -3.837  -6.581  0.00  0.00    -0.004 C 
ATOM      7  C   UNL     1       3.481  -2.909  -5.391  0.00  0.00    +0.115 C 
ATOM      8  C   UNL     1       2.178  -3.193  -7.514  0.00  0.00    -0.010 C 
ATOM      9  C   UNL     1       2.792  -1.944  -8.152  0.00  0.00    -0.082 C 
ATOM     10  N   UNL     1       3.999  -2.318  -8.899  0.00  0.00    +0.379 N 
ATOM     11  C   UNL     1       5.012  -2.850  -7.981  0.00  0.00    -0.082 C 
ATOM     12  C   UNL     1       4.492  -4.138  -7.335  0.00  0.00    -0.010 C 
ATOM     13  H   UNL     1       3.765  -3.021  -9.584  0.00  0.00    -0.086 HD
ATOM     14  H   UNL     1       4.368  -1.504  -9.369  0.00  0.00    -0.086 HD
ENDROOT
BRANCH   1  16
ATOM     15  C   UNL     1      -0.102  -2.803  -1.916  0.00  0.00    +0.109 A 
ATOM     16  C   UNL     1       1.127  -3.328  -2.353  0.00  0.00    +0.069 A 
ATOM     17  C   UNL     1       1.612  -4.495  -1.754  0.00  0.00    +0.017 A 
ATOM     18  C   UNL     1       0.858  -5.084  -0.754  0.00  0.00    +0.020 A 
ATOM     19  C   UNL     1      -0.343  -4.508  -0.378  0.00  0.00    +0.112 A 
ATOM     20  N   UNL     1      -0.781  -3.404  -0.950  0.00  0.00    -0.248 NA
BRANCH  15  21
ATOM     21  S   UNL     1      -0.739  -1.333  -2.650  0.00  0.00    -0.105 S 
BRANCH  21  23
ATOM     22  C   UNL     1      -2.969   0.217  -2.322  0.00  0.00    +0.015 C 
ATOM     23  C   UNL     1      -2.302  -1.047  -1.775  0.00  0.00    +0.072 C 
ENDBRANCH  21  23
ENDBRANCH  15  21
ENDBRANCH   1  16
BRANCH   5  24
ATOM     24  C   UNL     1       3.508  -6.303  -6.300  0.00  0.00    +0.219 C 
ATOM     25  O   UNL     1       4.474  -6.549  -5.608  0.00  0.00    -0.275 OA
ATOM     26  N   UNL     1       3.225  -7.082  -7.362  0.00  0.00    -0.305 N 
ATOM     27  H   UNL     1       2.452  -6.886  -7.915  0.00  0.00    +0.149 HD
BRANCH  26  28
ATOM     28  C   UNL     1       4.082  -8.226  -7.681  0.00  0.00    +0.136 C 
ATOM     29  C   UNL     1       3.642  -9.439  -6.859  0.00  0.00    +0.036 C 
BRANCH  28  30
ATOM     30  C   UNL     1       3.967  -8.546  -9.150  0.00  0.00    +0.128 A 
ATOM     31  H   UNL     1       5.782  -9.489  -9.567  0.00  0.00    +0.167 HD
ATOM     32  N   UNL     1       2.943  -8.256  -9.898  0.00  0.00    -0.231 NA
ATOM     33  C   UNL     1       3.168  -8.684 -11.166  0.00  0.00    +0.089 A 
ATOM     34  C   UNL     1       2.423  -8.635 -12.347  0.00  0.00    +0.030 A 
ATOM     35  C   UNL     1       2.933  -9.166 -13.497  0.00  0.00    +0.005 A 
ATOM     36  C   UNL     1       4.189  -9.757 -13.508  0.00  0.00    -0.048 A 
ATOM     37  C   UNL     1       4.942  -9.817 -12.355  0.00  0.00    +0.031 A 
ATOM     38  C   UNL     1       4.440  -9.282 -11.176  0.00  0.00    +0.067 A 
ATOM     39  N   UNL     1       4.922  -9.174  -9.887  0.00  0.00    -0.340 N 
ATOM     40  C   UNL     1       4.732 -10.336 -14.788  0.00  0.00    +0.044 C 
ENDBRANCH  28  30
ENDBRANCH  26  28
ENDBRANCH   5  24
TORSDOF 6
