REMARK  Name = ZINC42405665
REMARK  7 active torsions:
REMARK  status: ('A' for Active; 'I' for Inactive)
REMARK    1  A    between atoms: C_1  and  C_2
REMARK    2  A    between atoms: C_2  and  C_3
REMARK    3  A    between atoms: C_2  and  N_4
REMARK    4  A    between atoms: N_4  and  C_5
REMARK    5  A    between atoms: C_5  and  C_6
REMARK    6  A    between atoms: C_7  and  N_13
REMARK    7  A    between atoms: C_18  and  C_20
REMARK                            x       y       z     vdW  Elec       q    Type
REMARK                         _______ _______ _______ _____ _____    ______ ____
ROOT
ATOM      1  C   UNL     1      -4.378  -1.659  -1.203  0.00  0.00    -0.025 A 
ATOM      2  C   UNL     1      -4.247  -2.745  -2.058  0.00  0.00    +0.033 A 
ATOM      3  C   UNL     1      -5.380  -3.410  -2.511  0.00  0.00    +0.023 A 
ATOM      4  C   UNL     1      -6.633  -2.989  -2.110  0.00  0.00    +0.003 A 
ATOM      5  C   UNL     1      -6.761  -1.907  -1.259  0.00  0.00    +0.020 A 
ATOM      6  C   UNL     1      -5.634  -1.246  -0.800  0.00  0.00    +0.044 A 
ATOM      7 CL   UNL     1      -5.800   0.107   0.275  0.00  0.00    -0.083 Cl
ENDROOT
BRANCH   2   8
ATOM      8  N   UNL     1      -2.979  -3.169  -2.462  0.00  0.00    -0.318 N 
ATOM      9  C   UNL     1      -2.244  -4.177  -1.687  0.00  0.00    +0.106 C 
ATOM     10  C   UNL     1      -1.831  -5.316  -2.625  0.00  0.00    +0.019 C 
ATOM     11  C   UNL     1      -1.048  -4.739  -3.807  0.00  0.00    +0.004 C 
ATOM     12  C   UNL     1      -1.940  -3.770  -4.587  0.00  0.00    +0.032 C 
ATOM     13  C   UNL     1      -2.357  -2.619  -3.675  0.00  0.00    +0.159 C 
BRANCH  13  14
ATOM     14  C   UNL     1      -3.347  -1.739  -4.395  0.00  0.00    +0.231 C 
ATOM     15  O   UNL     1      -4.508  -2.078  -4.484  0.00  0.00    -0.274 OA
ATOM     16  N   UNL     1      -2.941  -0.576  -4.941  0.00  0.00    -0.328 N 
ATOM     17  H   UNL     1      -2.012  -0.304  -4.870  0.00  0.00    +0.145 HD
ATOM     18  H   UNL     1      -3.578  -0.009  -5.405  0.00  0.00    +0.145 HD
ENDBRANCH  13  14
ENDBRANCH   2   8
BRANCH   1  19
ATOM     19  C   UNL     1      -3.152  -0.935  -0.709  0.00  0.00    -0.043 C 
BRANCH  19  20
ATOM     20  N   UNL     1      -2.687  -1.555   0.539  0.00  0.00    +0.383 N 
ATOM     21  H   UNL     1      -2.460  -2.524   0.369  0.00  0.00    -0.085 HD
ATOM     22  H   UNL     1      -3.415  -1.498   1.235  0.00  0.00    -0.085 HD
BRANCH  20  24
ATOM     23  C   UNL     1      -1.864   0.586   1.396  0.00  0.00    -0.014 C 
ATOM     24  C   UNL     1      -1.492  -0.850   1.020  0.00  0.00    -0.078 C 
ATOM     25  C   UNL     1      -0.934  -1.571   2.249  0.00  0.00    -0.014 C 
ENDBRANCH  20  24
ENDBRANCH  19  20
ENDBRANCH   1  19
TORSDOF 5
