REMARK  Name = ZINC66244470
REMARK  11 active torsions:
REMARK  status: ('A' for Active; 'I' for Inactive)
REMARK    1  A    between atoms: C_1  and  C_2
REMARK    2  A    between atoms: C_3  and  C_13
REMARK    3  A    between atoms: N_5  and  C_7
REMARK    4  A    between atoms: C_13  and  C_14
REMARK    5  A    between atoms: C_14  and  C_15
REMARK    6  A    between atoms: C_15  and  N_16
REMARK    7  A    between atoms: N_19  and  C_20
REMARK    8  A    between atoms: C_20  and  C_21
REMARK    9  A    between atoms: C_21  and  C_22
REMARK   10  A    between atoms: C_25  and  O_28
REMARK   11  A    between atoms: O_28  and  C_29
REMARK                            x       y       z     vdW  Elec       q    Type
REMARK                         _______ _______ _______ _____ _____    ______ ____
ROOT
ATOM      1  N   UNL     1       2.779   0.730  -4.902  0.00  0.00    -0.358 N 
ATOM      2  C   UNL     1       3.016   1.181  -6.179  0.00  0.00    +0.169 C 
ATOM      3  N   UNL     1       2.022   1.352  -7.005  0.00  0.00    -0.371 N 
ATOM      4  N   UNL     1       4.301   1.452  -6.585  0.00  0.00    -0.357 N 
ATOM      5  H   UNL     1       3.519   0.603  -4.288  0.00  0.00    +0.162 HD
ATOM      6  H   UNL     1       2.189   1.671  -7.906  0.00  0.00    +0.159 HD
ATOM      7  H   UNL     1       5.041   1.325  -5.970  0.00  0.00    +0.162 HD
ATOM      8  H   UNL     1       1.115   1.161  -6.718  0.00  0.00    +0.159 HD
ENDROOT
BRANCH   1   9
ATOM      9  C   UNL     1       1.409   0.442  -4.470  0.00  0.00    +0.116 C 
BRANCH   9  10
ATOM     10  C   UNL     1       1.424  -0.041  -3.018  0.00  0.00    +0.026 C 
BRANCH  10  11
ATOM     11  C   UNL     1      -0.006  -0.342  -2.566  0.00  0.00    +0.040 C 
BRANCH  11  14
ATOM     12  C   UNL     1      -0.018   1.503   0.010  0.00  0.00    +0.068 C 
ATOM     13  C   UNL     1       0.002  -0.004   0.002  0.00  0.00    +0.064 A 
ATOM     14  C   UNL     1       0.008  -0.818  -1.136  0.00  0.00    -0.007 A 
ATOM     15  C   UNL     1       0.028  -2.107  -0.726  0.00  0.00    +0.118 A 
ATOM     16  N   UNL     1       0.035  -2.109   0.626  0.00  0.00    -0.239 N 
ATOM     17  N   UNL     1       0.023  -0.777   1.058  0.00  0.00    -0.171 NA
BRANCH  16  18
ATOM     18  C   UNL     1       0.054  -3.244   1.449  0.00  0.00    +0.065 A 
ATOM     19  C   UNL     1       0.074  -4.512   0.885  0.00  0.00    +0.028 A 
ATOM     20  C   UNL     1       0.093  -5.628   1.699  0.00  0.00    +0.002 A 
ATOM     21  C   UNL     1       0.092  -5.482   3.074  0.00  0.00    +0.000 A 
ATOM     22  C   UNL     1       0.072  -4.220   3.639  0.00  0.00    +0.002 A 
ATOM     23  C   UNL     1       0.059  -3.101   2.830  0.00  0.00    +0.028 A 
ENDBRANCH  16  18
ENDBRANCH  11  14
ENDBRANCH  10  11
ENDBRANCH   9  10
ENDBRANCH   1   9
BRANCH   4  24
ATOM     24  C   UNL     1       4.554   1.933  -7.946  0.00  0.00    +0.120 C 
BRANCH  24  25
ATOM     25  C   UNL     1       6.056   2.155  -8.138  0.00  0.00    +0.056 C 
BRANCH  25  26
ATOM     26  C   UNL     1       6.315   2.649  -9.537  0.00  0.00    -0.045 A 
ATOM     27  C   UNL     1       6.548   1.744 -10.557  0.00  0.00    +0.007 A 
ATOM     28  C   UNL     1       6.787   2.195 -11.841  0.00  0.00    +0.046 A 
ATOM     29  C   UNL     1       6.793   3.557 -12.107  0.00  0.00    +0.120 A 
ATOM     30  C   UNL     1       6.559   4.462 -11.082  0.00  0.00    +0.046 A 
ATOM     31  C   UNL     1       6.315   4.006  -9.801  0.00  0.00    +0.007 A 
BRANCH  29  32
ATOM     32  O   UNL     1       7.028   4.002 -13.369  0.00  0.00    -0.495 OA
ATOM     33  C   UNL     1       7.019   5.417 -13.569  0.00  0.00    +0.277 C 
ENDBRANCH  29  32
ENDBRANCH  25  26
ENDBRANCH  24  25
ENDBRANCH   4  24
TORSDOF 9
