REMARK  Name = ZINC39916063
REMARK  4 active torsions:
REMARK  status: ('A' for Active; 'I' for Inactive)
REMARK    1  A    between atoms: C_4  and  C_7
REMARK    2  A    between atoms: C_7  and  S_8
REMARK    3  A    between atoms: S_8  and  C_9
REMARK    4  A    between atoms: C_17  and  C_21
REMARK                            x       y       z     vdW  Elec       q    Type
REMARK                         _______ _______ _______ _____ _____    ______ ____
ROOT
ATOM      1  C   UNL     1       5.831  -1.891   1.472  0.00  0.00    +0.199 C 
ATOM      2  N   UNL     1       6.794  -1.054   0.704  0.00  0.00    -0.260 NA
ATOM      3  C   UNL     1       7.509  -2.044  -0.123  0.00  0.00    +0.231 C 
ATOM      4  N   UNL     1       8.075  -1.499  -1.355  0.00  0.00    -0.318 N 
ATOM      5  C   UNL     1       8.381  -2.415  -2.338  0.00  0.00    +0.014 C 
ATOM      6  C   UNL     1       7.884  -3.672  -2.297  0.00  0.00    +0.034 C 
ATOM      7  C   UNL     1       6.957  -4.119  -1.180  0.00  0.00    +0.139 C 
ATOM      8  N   UNL     1       6.393  -2.946  -0.540  0.00  0.00    -0.196 NA
ATOM      9  N   UNL     1       5.627  -3.131   0.678  0.00  0.00    -0.224 NA
ATOM     10  C   UNL     1       8.204  -4.609  -3.292  0.00  0.00    +0.163 C 
ATOM     11  O   UNL     1       7.748  -5.733  -3.222  0.00  0.00    -0.292 OA
ATOM     12  C   UNL     1       9.100  -4.245  -4.444  0.00  0.00    +0.080 C 
ATOM     13  C   UNL     1       8.958  -2.746  -4.731  0.00  0.00    +0.014 C 
ATOM     14  C   UNL     1       9.293  -1.973  -3.454  0.00  0.00    +0.051 C 
ATOM     15  H   UNL     1       6.310  -0.383   0.127  0.00  0.00    +0.127 HD
ATOM     16  H   UNL     1       8.228  -0.548  -1.474  0.00  0.00    +0.149 HD
ATOM     17  H   UNL     1       4.650  -3.273   0.474  0.00  0.00    +0.143 HD
ENDROOT
BRANCH   7  18
ATOM     18  C   UNL     1       5.854  -4.975  -1.747  0.00  0.00    -0.026 C 
ATOM     19  C   UNL     1       5.631  -6.264  -1.498  0.00  0.00    +0.020 C 
ATOM     20  C   UNL     1       4.459  -6.711  -2.251  0.00  0.00    +0.078 C 
ATOM     21  N   UNL     1       3.959  -5.745  -2.948  0.00  0.00    -0.386 N 
ATOM     22  C   UNL     1       4.770  -4.544  -2.710  0.00  0.00    +0.145 C 
ATOM     23  H   UNL     1       3.182  -5.802  -3.526  0.00  0.00    +0.159 HD
ENDBRANCH   7  18
BRANCH   1  24
ATOM     24  S   UNL     1       4.257  -1.011   1.666  0.00  0.00    -0.121 S 
BRANCH  24  25
ATOM     25  C   UNL     1       3.711  -0.707  -0.038  0.00  0.00    +0.107 C 
BRANCH  25  29
ATOM     26  C   UNL     1      -0.017   1.378   0.010  0.00  0.00    +0.000 A 
ATOM     27  C   UNL     1       1.171   2.086   0.002  0.00  0.00    +0.000 A 
ATOM     28  C   UNL     1       2.377   1.411  -0.013  0.00  0.00    +0.004 A 
ATOM     29  C   UNL     1       2.396   0.029  -0.020  0.00  0.00    -0.037 A 
ATOM     30  C   UNL     1       1.208  -0.679  -0.012  0.00  0.00    +0.004 A 
ATOM     31  C   UNL     1       0.002  -0.004   0.002  0.00  0.00    +0.000 A 
ENDBRANCH  25  29
ENDBRANCH  24  25
ENDBRANCH   1  24
TORSDOF 4
