REMARK  Name = ZINC15941922
REMARK  8 active torsions:
REMARK  status: ('A' for Active; 'I' for Inactive)
REMARK    1  A    between atoms: C_1  and  C_2
REMARK    2  A    between atoms: C_5  and  C_30
REMARK    3  A    between atoms: C_6  and  N_8
REMARK    4  A    between atoms: N_11  and  S_14
REMARK    5  A    between atoms: S_14  and  C_17
REMARK    6  A    between atoms: C_23  and  C_28
REMARK    7  A    between atoms: C_23  and  C_29
REMARK    8  A    between atoms: N_26  and  C_27
REMARK                            x       y       z     vdW  Elec       q    Type
REMARK                         _______ _______ _______ _____ _____    ______ ____
ROOT
ATOM      1  S   UNL     1       0.080  -3.850   6.543  0.00  0.00    +0.061 S 
ATOM      2  O   UNL     1      -1.153  -4.552   6.617  0.00  0.00    -0.153 OA
ATOM      3  O   UNL     1       1.337  -4.509   6.611  0.00  0.00    -0.153 OA
ENDROOT
BRANCH   1   4
ATOM      4  C   UNL     1       0.063  -2.663   7.845  0.00  0.00    +0.106 A 
ATOM      5  C   UNL     1       1.253  -2.171   8.350  0.00  0.00    +0.030 A 
ATOM      6  C   UNL     1       1.247  -1.241   9.369  0.00  0.00    +0.026 A 
ATOM      7  C   UNL     1       0.038  -0.790   9.897  0.00  0.00    +0.040 A 
ATOM      8  C   UNL     1      -1.150  -1.291   9.381  0.00  0.00    -0.010 A 
ATOM      9  C   UNL     1      -1.141  -2.216   8.360  0.00  0.00    +0.035 A 
ATOM     10  C   UNL     1      -2.264  -0.619  10.149  0.00  0.00    +0.068 C 
ATOM     11  C   UNL     1      -1.544   0.289  11.123  0.00  0.00    +0.230 C 
ATOM     12  O   UNL     1      -2.060   1.022  11.940  0.00  0.00    -0.274 OA
ATOM     13  N   UNL     1      -0.227   0.130  10.912  0.00  0.00    -0.273 N 
ATOM     14  C   UNL     1       0.812   0.841  11.662  0.00  0.00    +0.138 C 
ATOM     15  C   UNL     1      -3.100  -1.657  10.900  0.00  0.00    +0.025 C 
ATOM     16  C   UNL     1      -3.147   0.201   9.205  0.00  0.00    +0.025 C 
ENDBRANCH   1   4
BRANCH   1  20
ATOM     17  N   UNL     1       0.051  -2.796   2.390  0.00  0.00    -0.327 N 
ATOM     18  C   UNL     1       1.324  -3.153   3.032  0.00  0.00    +0.122 C 
ATOM     19  C   UNL     1       1.319  -2.611   4.467  0.00  0.00    +0.128 C 
ATOM     20  N   UNL     1       0.062  -3.011   5.115  0.00  0.00    -0.174 NA
ATOM     21  C   UNL     1      -1.211  -2.655   4.473  0.00  0.00    +0.128 C 
ATOM     22  C   UNL     1      -1.206  -3.192   3.041  0.00  0.00    +0.122 C 
BRANCH  17  28
ATOM     23  C   UNL     1      -0.018   1.503   0.010  0.00  0.00    +0.044 C 
ATOM     24  C   UNL     1       0.002  -0.004   0.002  0.00  0.00    -0.049 A 
ATOM     25  C   UNL     1       0.006  -0.688  -1.200  0.00  0.00    +0.004 A 
ATOM     26  C   UNL     1       0.024  -2.071  -1.212  0.00  0.00    +0.005 A 
ATOM     27  C   UNL     1       0.039  -2.773  -0.023  0.00  0.00    -0.029 A 
ATOM     28  C   UNL     1       0.036  -2.089   1.186  0.00  0.00    +0.033 A 
ATOM     29  C   UNL     1       0.023  -0.700   1.194  0.00  0.00    +0.026 A 
ATOM     30  C   UNL     1       0.059  -4.280  -0.037  0.00  0.00    +0.045 C 
ENDBRANCH  17  28
ENDBRANCH   1  20
TORSDOF 3
