REMARK  Name = ZINC36557374
REMARK  19 active torsions:
REMARK  status: ('A' for Active; 'I' for Inactive)
REMARK    1  A    between atoms: C_1  and  C_2
REMARK    2  A    between atoms: C_2  and  C_3
REMARK    3  A    between atoms: C_3  and  C_4
REMARK    4  A    between atoms: C_4  and  C_5
REMARK    5  A    between atoms: C_5  and  C_6
REMARK    6  A    between atoms: C_7  and  C_8
REMARK    7  A    between atoms: N_10  and  C_11
REMARK    8  A    between atoms: N_10  and  C_18
REMARK    9  A    between atoms: C_11  and  C_12
REMARK   10  A    between atoms: C_15  and  C_17
REMARK   11  A    between atoms: C_18  and  C_20
REMARK   12  A    between atoms: C_18  and  C_29
REMARK   13  A    between atoms: C_21  and  O_28
REMARK   14  A    between atoms: C_23  and  O_27
REMARK   15  A    between atoms: C_25  and  O_26
REMARK   16  A    between atoms: N_31  and  C_32
REMARK   17  A    between atoms: C_32  and  C_33
REMARK   18  A    between atoms: C_32  and  C_34
REMARK   19  A    between atoms: C_32  and  C_35
REMARK                            x       y       z     vdW  Elec       q    Type
REMARK                         _______ _______ _______ _____ _____    ______ ____
ROOT
ATOM      1  C   UNL     1      -0.426  -3.912  -6.722  0.00  0.00    +0.200 C 
ENDROOT
BRANCH   1   2
ATOM      2  C   UNL     1      -1.562  -3.332  -5.919  0.00  0.00    +0.065 A 
ATOM      3  C   UNL     1      -2.134  -4.070  -4.893  0.00  0.00    +0.129 A 
ATOM      4  C   UNL     1      -3.179  -3.536  -4.154  0.00  0.00    +0.091 A 
ATOM      5  C   UNL     1      -3.652  -2.264  -4.441  0.00  0.00    +0.124 A 
ATOM      6  C   UNL     1      -3.080  -1.526  -5.466  0.00  0.00    +0.091 A 
ATOM      7  C   UNL     1      -2.032  -2.058  -6.202  0.00  0.00    +0.129 A 
BRANCH   7   8
ATOM      8  O   UNL     1      -1.468  -1.333  -7.203  0.00  0.00    -0.506 OA
ATOM      9  H   UNL     1      -1.884  -1.464  -8.066  0.00  0.00    +0.292 HD
ENDBRANCH   7   8
BRANCH   5  10
ATOM     10  O   UNL     1      -4.677  -1.742  -3.717  0.00  0.00    -0.507 OA
ATOM     11  H   UNL     1      -4.395  -1.246  -2.936  0.00  0.00    +0.292 HD
ENDBRANCH   5  10
BRANCH   3  12
ATOM     12  O   UNL     1      -1.670  -5.316  -4.612  0.00  0.00    -0.506 OA
ATOM     13  H   UNL     1      -1.018  -5.341  -3.899  0.00  0.00    +0.292 HD
ENDBRANCH   3  12
ENDBRANCH   1   2
BRANCH   1  14
ATOM     14  C   UNL     1      -0.961  -4.959  -7.665  0.00  0.00    +0.239 C 
ATOM     15  O   UNL     1      -1.176  -6.083  -7.264  0.00  0.00    -0.273 OA
ATOM     16  N   UNL     1      -1.200  -4.646  -8.954  0.00  0.00    -0.309 N 
ATOM     17  H   UNL     1      -1.028  -3.747  -9.274  0.00  0.00    +0.149 HD
BRANCH  16  18
ATOM     18  C   UNL     1      -1.719  -5.663  -9.870  0.00  0.00    +0.026 C 
ATOM     19  C   UNL     1      -3.068  -6.171  -9.357  0.00  0.00    +0.031 C 
ATOM     20  C   UNL     1      -1.900  -5.053 -11.261  0.00  0.00    +0.031 C 
ATOM     21  C   UNL     1      -0.733  -6.830  -9.950  0.00  0.00    +0.031 C 
ENDBRANCH  16  18
ENDBRANCH   1  14
BRANCH   1  24
ATOM     22  C   UNL     1       1.008  -3.832  -4.753  0.00  0.00    +0.240 C 
ATOM     23  O   UNL     1       0.610  -2.701  -4.546  0.00  0.00    -0.271 OA
ATOM     24  N   UNL     1       0.550  -4.523  -5.816  0.00  0.00    -0.275 N 
BRANCH  22  26
ATOM     25  C   UNL     1       2.345  -3.816  -2.729  0.00  0.00    -0.022 C 
ATOM     26  C   UNL     1       1.988  -4.446  -3.844  0.00  0.00    +0.063 C 
BRANCH  25  27
ATOM     27  C   UNL     1       1.527  -2.656  -2.222  0.00  0.00    +0.027 C 
BRANCH  27  28
ATOM     28  C   UNL     1       1.271  -2.828  -0.724  0.00  0.00    +0.004 C 
BRANCH  28  29
ATOM     29  C   UNL     1       0.440  -1.651  -0.210  0.00  0.00    +0.000 C 
BRANCH  29  31
ATOM     30  C   UNL     1      -0.647  -0.646   1.803  0.00  0.00    +0.004 C 
ATOM     31  C   UNL     1       0.184  -1.823   1.289  0.00  0.00    -0.003 C 
ENDBRANCH  29  31
ENDBRANCH  28  29
ENDBRANCH  27  28
ENDBRANCH  25  27
ENDBRANCH  22  26
BRANCH  24  32
ATOM     32  C   UNL     1       1.028  -5.885  -6.066  0.00  0.00    +0.183 C 
BRANCH  32  33
ATOM     33  C   UNL     1       0.511  -6.804  -4.990  0.00  0.00    +0.122 A 
ATOM     34  C   UNL     1      -0.567  -7.602  -5.089  0.00  0.00    +0.046 A 
ATOM     35  C   UNL     1      -0.686  -8.284  -3.856  0.00  0.00    +0.045 A 
ATOM     36  C   UNL     1       0.326  -7.862  -3.078  0.00  0.00    +0.102 A 
ATOM     37  O   UNL     1       1.052  -6.970  -3.772  0.00  0.00    -0.463 OA
ATOM     38  C   UNL     1       0.603  -8.317  -1.668  0.00  0.00    +0.086 C 
ENDBRANCH  32  33
ENDBRANCH  24  32
ENDBRANCH   1  24
TORSDOF 14
