REMARK  Name = ZINC61951960
REMARK  3 active torsions:
REMARK  status: ('A' for Active; 'I' for Inactive)
REMARK    1  A    between atoms: C_1  and  N_2
REMARK    2  A    between atoms: N_2  and  C_3
REMARK    3  A    between atoms: C_6  and  C_9
REMARK                            x       y       z     vdW  Elec       q    Type
REMARK                         _______ _______ _______ _____ _____    ______ ____
ROOT
ATOM      1  C   UNL     1       0.028  -0.681   1.218  0.00  0.00    +0.035 A 
ATOM      2  C   UNL     1      -0.048  -2.070   1.242  0.00  0.00    +0.024 A 
ATOM      3  C   UNL     1      -0.022  -2.742   2.443  0.00  0.00    +0.013 A 
ATOM      4  C   UNL     1       0.081  -2.028   3.639  0.00  0.00    +0.012 A 
ATOM      5  C   UNL     1       0.157  -0.633   3.612  0.00  0.00    +0.013 A 
ATOM      6  C   UNL     1       0.136   0.033   2.408  0.00  0.00    +0.024 A 
ENDROOT
BRANCH   1   8
ATOM      7  C   UNL     1      -0.046   1.460  -0.021  0.00  0.00    +0.137 C 
ATOM      8  N   UNL     1       0.002  -0.004   0.002  0.00  0.00    -0.283 N 
ATOM      9  C   UNL     1       0.021  -0.716  -1.188  0.00  0.00    +0.165 A 
ATOM     10  N   UNL     1      -0.035  -2.019  -1.363  0.00  0.00    -0.233 NA
ATOM     11  C   UNL     1      -0.007  -2.547  -2.573  0.00  0.00    +0.120 A 
ATOM     12  C   UNL     1       0.083  -1.688  -3.618  0.00  0.00    +0.068 A 
ATOM     13  S   UNL     1       0.115  -0.123  -2.760  0.00  0.00    -0.060 S 
ENDBRANCH   1   8
BRANCH   4  14
ATOM     14  C   UNL     1       0.109  -2.746   4.929  0.00  0.00    +0.094 C 
ATOM     15  N   UNL     1       0.207  -2.063   6.070  0.00  0.00    -0.387 N 
ATOM     16  N   UNL     1       0.036  -4.076   4.953  0.00  0.00    -0.345 N 
ATOM     17  H   UNL     1       0.261  -1.095   6.053  0.00  0.00    +0.157 HD
ATOM     18  H   UNL     1      -0.036  -4.573   4.123  0.00  0.00    +0.144 HD
ATOM     19  H   UNL     1       0.054  -4.548   5.801  0.00  0.00    +0.144 HD
ATOM     20  H   UNL     1       0.225  -2.535   6.917  0.00  0.00    +0.157 HD
ENDBRANCH   4  14
TORSDOF 2
