REMARK  Name = ZINC11296493
REMARK  2 active torsions:
REMARK  status: ('A' for Active; 'I' for Inactive)
REMARK    1  A    between atoms: C_8  and  C_12
REMARK    2  A    between atoms: C_12  and  N_13
REMARK                            x       y       z     vdW  Elec       q    Type
REMARK                         _______ _______ _______ _____ _____    ______ ____
ROOT
ATOM      1  N   UNL     1      -0.441  -2.253  -0.006  0.00  0.00    -0.228 N 
ATOM      2  C   UNL     1       0.898  -2.127  -0.018  0.00  0.00    +0.256 C 
ATOM      3  O   UNL     1       1.697  -3.042  -0.030  0.00  0.00    -0.269 OA
ATOM      4  C   UNL     1       1.236  -0.690  -0.013  0.00  0.00    +0.071 A 
ATOM      5  C   UNL     1       0.002  -0.004   0.002  0.00  0.00    +0.071 A 
ATOM      6  C   UNL     1      -0.017   1.382   0.010  0.00  0.00    +0.074 A 
ATOM      7  C   UNL     1       1.181   2.087   0.002  0.00  0.00    +0.080 A 
ATOM      8  C   UNL     1       2.389   1.416  -0.012  0.00  0.00    +0.080 A 
ATOM      9  C   UNL     1       2.423   0.026  -0.021  0.00  0.00    +0.074 A 
ATOM     10 CL   UNL     1       3.944  -0.809  -0.039  0.00  0.00    -0.081 Cl
ATOM     11 CL   UNL     1       3.875   2.314  -0.022  0.00  0.00    -0.080 Cl
ATOM     12 CL   UNL     1       1.159   3.823   0.011  0.00  0.00    -0.080 Cl
ATOM     13 CL   UNL     1      -1.530   2.233   0.021  0.00  0.00    -0.081 Cl
ATOM     14  C   UNL     1      -1.041  -1.049   0.006  0.00  0.00    +0.256 C 
ATOM     15  O   UNL     1      -2.240  -0.855   0.019  0.00  0.00    -0.269 OA
ENDROOT
BRANCH   1  16
ATOM     16  C   UNL     1      -1.153  -3.534  -0.006  0.00  0.00    +0.172 C 
BRANCH  16  24
ATOM     17  C   UNL     1       0.421  -5.400   5.524  0.00  0.00    +0.005 A 
ATOM     18  C   UNL     1      -0.877  -5.502   6.044  0.00  0.00    +0.018 A 
ATOM     19  C   UNL     1      -1.944  -5.198   5.272  0.00  0.00    +0.096 A 
ATOM     20  N   UNL     1      -1.777  -4.790   3.983  0.00  0.00    -0.268 N 
ATOM     21  C   UNL     1      -0.524  -4.682   3.447  0.00  0.00    +0.141 A 
ATOM     22  C   UNL     1       0.599  -4.994   4.236  0.00  0.00    +0.047 A 
ATOM     23  N   UNL     1      -0.352  -4.288   2.187  0.00  0.00    -0.232 NA
ATOM     24  C   UNL     1      -1.383  -3.981   1.415  0.00  0.00    +0.067 A 
ATOM     25  C   UNL     1      -2.670  -4.074   1.909  0.00  0.00    +0.095 A 
ATOM     26  C   UNL     1      -2.858  -4.492   3.231  0.00  0.00    +0.259 A 
ATOM     27  O   UNL     1      -3.983  -4.585   3.698  0.00  0.00    -0.267 OA
ENDBRANCH  16  24
ENDBRANCH   1  16
TORSDOF 2
