REMARK  Name = ZINC39532451
REMARK  11 active torsions:
REMARK  status: ('A' for Active; 'I' for Inactive)
REMARK    1  A    between atoms: C_1  and  C_2
REMARK    2  A    between atoms: C_2  and  C_3
REMARK    3  A    between atoms: C_6  and  C_9
REMARK    4  A    between atoms: C_9  and  C_11
REMARK    5  A    between atoms: C_9  and  N_20
REMARK    6  A    between atoms: C_11  and  N_12
REMARK    7  A    between atoms: N_12  and  C_13
REMARK    8  A    between atoms: C_18  and  O_19
REMARK    9  A    between atoms: C_24  and  O_27
REMARK   10  A    between atoms: O_27  and  C_28
REMARK   11  A    between atoms: C_28  and  C_29
REMARK                            x       y       z     vdW  Elec       q    Type
REMARK                         _______ _______ _______ _____ _____    ______ ____
ROOT
ATOM      1  C   UNL     1       2.792  -1.927   4.685  0.00  0.00    -0.020 C 
ENDROOT
BRANCH   1   2
ATOM      2  N   UNL     1       2.325  -1.306   5.932  0.00  0.00    +0.389 N 
ATOM      3  C   UNL     1       2.361   0.156   5.793  0.00  0.00    -0.062 C 
ATOM      4  C   UNL     1       1.857   0.804   7.085  0.00  0.00    +0.065 C 
ATOM      5  N   UNL     1       2.707   0.379   8.207  0.00  0.00    -0.295 NA
ATOM      6  C   UNL     1       2.701  -1.084   8.342  0.00  0.00    +0.169 C 
ATOM      7  C   UNL     1       3.198  -1.716   7.039  0.00  0.00    -0.029 C 
ATOM      8  H   UNL     1       3.648   0.728   8.100  0.00  0.00    +0.124 HD
ATOM      9  H   UNL     1       1.379  -1.602   6.121  0.00  0.00    -0.081 HD
BRANCH   6  10
ATOM     10  O   UNL     1       3.561  -1.468   9.417  0.00  0.00    -0.364 OA
BRANCH  10  11
ATOM     11  C   UNL     1       3.015  -1.220  10.714  0.00  0.00    +0.158 C 
ATOM     12  C   UNL     1       4.016  -1.667  11.782  0.00  0.00    +0.034 C 
ENDBRANCH  10  11
ENDBRANCH   6  10
ENDBRANCH   1   2
BRANCH   1  16
ATOM     13  C   UNL     1       0.321  -0.647   1.444  0.00  0.00    -0.048 A 
ATOM     14  C   UNL     1       1.687  -0.764   1.267  0.00  0.00    +0.004 A 
ATOM     15  C   UNL     1       2.486  -1.178   2.316  0.00  0.00    +0.002 A 
ATOM     16  C   UNL     1       1.920  -1.474   3.542  0.00  0.00    -0.059 A 
ATOM     17  C   UNL     1       0.554  -1.357   3.719  0.00  0.00    +0.002 A 
ATOM     18  C   UNL     1      -0.245  -0.939   2.671  0.00  0.00    +0.004 A 
BRANCH  13  20
ATOM     19  C   UNL     1      -0.670   1.329   0.320  0.00  0.00    +0.009 C 
ATOM     20  C   UNL     1      -0.551  -0.197   0.300  0.00  0.00    +0.032 C 
ENDBRANCH  13  20
ENDBRANCH   1  16
BRANCH   1  21
ATOM     21  C   UNL     1       2.715  -3.449   4.814  0.00  0.00    +0.091 C 
BRANCH  21  22
ATOM     22  N   UNL     1       3.270  -4.070   3.608  0.00  0.00    -0.342 N 
ATOM     23  H   UNL     1       3.678  -3.518   2.923  0.00  0.00    +0.146 HD
BRANCH  22  24
ATOM     24  C   UNL     1       3.211  -5.459   3.446  0.00  0.00    +0.069 A 
ATOM     25  C   UNL     1       2.622  -6.249   4.422  0.00  0.00    +0.026 A 
ATOM     26  C   UNL     1       2.565  -7.620   4.259  0.00  0.00    +0.002 A 
ATOM     27  C   UNL     1       3.093  -8.207   3.124  0.00  0.00    +0.004 A 
ATOM     28  C   UNL     1       3.681  -7.426   2.147  0.00  0.00    +0.047 A 
ATOM     29  C   UNL     1       3.738  -6.051   2.300  0.00  0.00    +0.138 A 
BRANCH  29  30
ATOM     30  O   UNL     1       4.311  -5.281   1.337  0.00  0.00    -0.505 OA
ATOM     31  H   UNL     1       5.260  -5.138   1.460  0.00  0.00    +0.292 HD
ENDBRANCH  29  30
ENDBRANCH  22  24
ENDBRANCH  21  22
ENDBRANCH   1  21
TORSDOF 9
