REMARK  Name = ZINC01070466
REMARK  7 active torsions:
REMARK  status: ('A' for Active; 'I' for Inactive)
REMARK    1  A    between atoms: C_1  and  C_2
REMARK    2  A    between atoms: C_7  and  C_8
REMARK    3  A    between atoms: C_22  and  N_26
REMARK    4  A    between atoms: C_23  and  C_24
REMARK    5  A    between atoms: C_30  and  C_34
REMARK    6  A    between atoms: C_30  and  C_35
REMARK    7  A    between atoms: C_32  and  C_33
REMARK                            x       y       z     vdW  Elec       q    Type
REMARK                         _______ _______ _______ _____ _____    ______ ____
ROOT
ATOM      1  C   UNL     1      -3.749   1.942   0.048  0.00  0.00    +0.044 C 
ATOM      2  C   UNL     1      -2.415   1.242   0.032  0.00  0.00    -0.047 A 
ATOM      3  C   UNL     1      -1.262   2.010   0.030  0.00  0.00    +0.013 A 
ATOM      4  C   UNL     1      -0.017   1.404   0.010  0.00  0.00    -0.000 A 
ATOM      5  C   UNL     1       0.002  -0.004   0.002  0.00  0.00    +0.050 A 
ATOM      6  C   UNL     1      -1.155  -0.765   0.011  0.00  0.00    +0.003 A 
ATOM      7  C   UNL     1      -2.390  -0.152   0.025  0.00  0.00    -0.041 A 
ATOM      8  C   UNL     1      -3.664  -0.958   0.034  0.00  0.00    +0.044 C 
ATOM      9  C   UNL     1      -0.684  -2.184   0.003  0.00  0.00    +0.149 C 
ATOM     10  C   UNL     1      -1.161  -2.907  -1.226  0.00  0.00    +0.105 A 
ATOM     11  C   UNL     1      -0.555  -2.619  -2.469  0.00  0.00    +0.201 A 
ATOM     12  O   UNL     1       0.337  -1.792  -2.566  0.00  0.00    -0.287 OA
ATOM     13  C   UNL     1      -1.048  -3.360  -3.647  0.00  0.00    +0.065 A 
ATOM     14  C   UNL     1      -0.511  -3.150  -4.915  0.00  0.00    +0.015 A 
ATOM     15  C   UNL     1      -0.999  -3.866  -5.987  0.00  0.00    +0.001 A 
ATOM     16  C   UNL     1      -2.018  -4.789  -5.804  0.00  0.00    +0.004 A 
ATOM     17  C   UNL     1      -2.556  -5.004  -4.554  0.00  0.00    +0.047 A 
ATOM     18  C   UNL     1      -2.079  -4.292  -3.457  0.00  0.00    +0.143 A 
ATOM     19  O   UNL     1      -2.599  -4.493  -2.235  0.00  0.00    -0.424 OA
ATOM     20  C   UNL     1      -2.158  -3.826  -1.157  0.00  0.00    +0.302 A 
ATOM     21  O   UNL     1      -2.745  -4.103   0.031  0.00  0.00    -0.410 OA
ATOM     22  C   UNL     1      -2.122  -3.820   1.185  0.00  0.00    +0.203 C 
ATOM     23  C   UNL     1      -1.123  -2.904   1.245  0.00  0.00    +0.110 C 
ATOM     24  C   UNL     1       0.833  -2.084  -0.019  0.00  0.00    +0.241 C 
ATOM     25  O   UNL     1       1.612  -3.013  -0.036  0.00  0.00    -0.273 OA
ATOM     26  N   UNL     1       1.155  -0.777  -0.014  0.00  0.00    -0.260 N 
ATOM     27  C   UNL     1       2.488  -0.160  -0.024  0.00  0.00    +0.055 C 
ATOM     28  C   UNL     1       2.403   1.336  -0.014  0.00  0.00    +0.002 C 
ATOM     29  C   UNL     1       1.296   2.062   0.001  0.00  0.00    -0.043 C 
ATOM     30  C   UNL     1       1.384   3.566   0.008  0.00  0.00    +0.044 C 
ATOM     31  C   UNL     1       3.262  -0.625   1.212  0.00  0.00    +0.036 C 
ATOM     32  C   UNL     1       3.237  -0.608  -1.280  0.00  0.00    +0.036 C 
ENDROOT
BRANCH  22  33
ATOM     33  N   UNL     1      -2.506  -4.470   2.332  0.00  0.00    -0.328 N 
ATOM     34  H   UNL     1      -2.063  -4.274   3.172  0.00  0.00    +0.145 HD
ATOM     35  H   UNL     1      -3.219  -5.127   2.301  0.00  0.00    +0.145 HD
ENDBRANCH  22  33
BRANCH  23  36
ATOM     36  C   UNL     1      -0.485  -2.625   2.496  0.00  0.00    +0.102 C 
ATOM     37  N   UNL     1       0.022  -2.403   3.489  0.00  0.00    -0.191 NA
ENDBRANCH  23  36
TORSDOF 2
