REMARK  Name = ZINC09461046
REMARK  7 active torsions:
REMARK  status: ('A' for Active; 'I' for Inactive)
REMARK    1  A    between atoms: C_1  and  C_2
REMARK    2  A    between atoms: C_2  and  C_3
REMARK    3  A    between atoms: C_2  and  C_4
REMARK    4  A    between atoms: C_2  and  C_5
REMARK    5  A    between atoms: C_5  and  C_7
REMARK    6  A    between atoms: C_9  and  C_31
REMARK    7  A    between atoms: C_31  and  C_33
REMARK                            x       y       z     vdW  Elec       q    Type
REMARK                         _______ _______ _______ _____ _____    ______ ____
ROOT
ATOM      1  C   UNL     1       1.326   1.810   0.502  0.00  0.00    +0.136 C 
ATOM      2  C   UNL     1       1.887   0.679   1.394  0.00  0.00    +0.108 C 
ATOM      3  C   UNL     1       1.090  -0.544   0.898  0.00  0.00    +0.107 C 
ATOM      4  C   UNL     1       1.803  -1.264  -0.194  0.00  0.00    -0.008 A 
ATOM      5  C   UNL     1       2.228  -0.860  -1.441  0.00  0.00    +0.006 A 
ATOM      6  C   UNL     1       2.878  -1.806  -2.226  0.00  0.00    +0.000 A 
ATOM      7  C   UNL     1       3.085  -3.094  -1.775  0.00  0.00    +0.002 A 
ATOM      8  C   UNL     1       2.659  -3.510  -0.523  0.00  0.00    +0.023 A 
ATOM      9  C   UNL     1       2.008  -2.569   0.276  0.00  0.00    +0.038 A 
ATOM     10  N   UNL     1       1.488  -2.709   1.551  0.00  0.00    -0.284 N 
ATOM     11  C   UNL     1       0.929  -1.562   1.998  0.00  0.00    +0.231 C 
ATOM     12  O   UNL     1       0.400  -1.386   3.076  0.00  0.00    -0.274 OA
ATOM     13  C   UNL     1      -0.258   0.020   0.452  0.00  0.00    +0.107 C 
ATOM     14  C   UNL     1      -1.172   2.354   0.247  0.00  0.00    +0.054 C 
ATOM     15  C   UNL     1      -2.307   1.991   0.879  0.00  0.00    +0.022 C 
ATOM     16  C   UNL     1      -2.329   0.739   1.661  0.00  0.00    -0.019 A 
ATOM     17  C   UNL     1      -1.344  -0.238   1.465  0.00  0.00    -0.020 A 
ATOM     18  C   UNL     1      -1.375  -1.407   2.189  0.00  0.00    +0.006 A 
ATOM     19  C   UNL     1      -2.380  -1.620   3.118  0.00  0.00    +0.000 A 
ATOM     20  C   UNL     1      -3.355  -0.660   3.322  0.00  0.00    +0.001 A 
ATOM     21  C   UNL     1      -3.337   0.516   2.601  0.00  0.00    +0.008 A 
ATOM     22  H   UNL     1       1.521  -3.532   2.063  0.00  0.00    +0.155 HD
ATOM     23  N   UNL     1      -0.023   1.377   0.034  0.00  0.00    -0.384 NA
ATOM     24  H   UNL     1       0.061   1.320  -0.988  0.00  0.00    +0.127 HD
ENDROOT
BRANCH   1  25
ATOM     25  C   UNL     1       2.005   1.773  -0.843  0.00  0.00    +0.158 C 
ATOM     26  O   UNL     1       3.099   1.273  -0.953  0.00  0.00    -0.295 OA
BRANCH  25  28
ATOM     27  C   UNL     1       2.285   2.356  -3.237  0.00  0.00    +0.018 C 
ATOM     28  C   UNL     1       1.320   2.360  -2.050  0.00  0.00    +0.022 C 
ATOM     29  C   UNL     1       0.086   1.524  -2.392  0.00  0.00    +0.018 C 
ATOM     30  C   UNL     1       0.893   3.797  -1.745  0.00  0.00    +0.018 C 
ENDBRANCH  25  28
ENDBRANCH   1  25
BRANCH   2  31
ATOM     31  C   UNL     1       1.596   0.961   2.846  0.00  0.00    +0.170 C 
ATOM     32  O   UNL     1       0.669   1.681   3.149  0.00  0.00    -0.292 OA
BRANCH  31  33
ATOM     33  C   UNL     1       2.437   0.362   3.895  0.00  0.00    +0.018 A 
ATOM     34  C   UNL     1       3.572  -0.378   3.548  0.00  0.00    +0.011 A 
ATOM     35  C   UNL     1       4.357  -0.932   4.537  0.00  0.00    +0.001 A 
ATOM     36  C   UNL     1       4.018  -0.767   5.869  0.00  0.00    +0.000 A 
ATOM     37  C   UNL     1       2.894  -0.040   6.219  0.00  0.00    +0.001 A 
ATOM     38  C   UNL     1       2.101   0.524   5.242  0.00  0.00    +0.011 A 
ENDBRANCH  31  33
ENDBRANCH   2  31
TORSDOF 4
