REMARK  Name = ZINC36093629
REMARK  10 active torsions:
REMARK  status: ('A' for Active; 'I' for Inactive)
REMARK    1  A    between atoms: C_1  and  C_2
REMARK    2  A    between atoms: C_2  and  C_3
REMARK    3  A    between atoms: C_2  and  C_4
REMARK    4  A    between atoms: C_2  and  C_5
REMARK    5  A    between atoms: C_8  and  C_11
REMARK    6  A    between atoms: C_11  and  O_13
REMARK    7  A    between atoms: O_13  and  C_14
REMARK    8  A    between atoms: C_17  and  C_20
REMARK    9  A    between atoms: N_29  and  C_32
REMARK   10  A    between atoms: C_33  and  O_35
REMARK                            x       y       z     vdW  Elec       q    Type
REMARK                         _______ _______ _______ _____ _____    ______ ____
ROOT
ATOM      1  C   UNL     1       4.481  -1.998  -6.122  0.00  0.00    +0.132 A 
ATOM      2  C   UNL     1       3.667  -2.721  -6.983  0.00  0.00    +0.047 A 
ATOM      3  C   UNL     1       4.178  -3.205  -8.171  0.00  0.00    +0.011 A 
ATOM      4  C   UNL     1       5.500  -2.971  -8.503  0.00  0.00    -0.005 A 
ATOM      5  C   UNL     1       6.313  -2.251  -7.647  0.00  0.00    +0.011 A 
ATOM      6  C   UNL     1       5.805  -1.759  -6.460  0.00  0.00    +0.047 A 
ENDROOT
BRANCH   4   7
ATOM      7  C   UNL     1       6.055  -3.502  -9.800  0.00  0.00    +0.224 C 
ATOM      8  N   UNL     1       7.498  -3.757  -9.636  0.00  0.00    -0.313 N 
ATOM      9  C   UNL     1       7.843  -4.963  -9.069  0.00  0.00    +0.080 A 
ATOM     10  C   UNL     1       6.999  -6.079  -9.129  0.00  0.00    +0.067 A 
ATOM     11  C   UNL     1       7.494  -7.273  -8.475  0.00  0.00    -0.027 A 
ATOM     12  C   UNL     1       8.713  -7.138  -7.901  0.00  0.00    -0.021 A 
ATOM     13  S   UNL     1       9.183  -5.463  -8.229  0.00  0.00    -0.080 S 
ATOM     14  C   UNL     1       9.463  -8.198  -7.158  0.00  0.00    -0.036 C 
ATOM     15  N   UNL     1       8.521  -9.282  -6.821  0.00  0.00    +0.381 N 
ATOM     16  C   UNL     1       7.781  -9.684  -8.024  0.00  0.00    -0.074 C 
ATOM     17  C   UNL     1       6.761  -8.606  -8.403  0.00  0.00    +0.018 C 
ATOM     18  C   UNL     1       9.268 -10.434  -6.298  0.00  0.00    -0.096 C 
ATOM     19  C   UNL     1       5.710  -5.923  -9.852  0.00  0.00    +0.220 C 
ATOM     20  N   UNL     1       5.334  -4.715 -10.165  0.00  0.00    -0.223 NA
ATOM     21  H   UNL     1       8.166  -3.112  -9.914  0.00  0.00    +0.149 HD
ATOM     22  H   UNL     1       7.872  -8.957  -6.120  0.00  0.00    -0.082 HD
BRANCH  19  23
ATOM     23  O   UNL     1       4.955  -6.998 -10.175  0.00  0.00    -0.492 OA
ATOM     24  H   UNL     1       4.138  -6.778 -10.644  0.00  0.00    +0.294 HD
ENDBRANCH  19  23
ENDBRANCH   4   7
BRANCH   1  25
ATOM     25  O   UNL     1       3.980  -1.520  -4.953  0.00  0.00    -0.422 OA
BRANCH  25  26
ATOM     26  C   UNL     1       3.673  -0.209  -4.885  0.00  0.00    +0.344 C 
ATOM     27  O   UNL     1       3.929   0.523  -5.819  0.00  0.00    -0.245 OA
BRANCH  26  31
ATOM     28  C   UNL     1       1.811   1.357  -1.405  0.00  0.00    -0.042 A 
ATOM     29  C   UNL     1       2.102   2.195  -2.467  0.00  0.00    +0.005 A 
ATOM     30  C   UNL     1       2.707   1.693  -3.600  0.00  0.00    +0.015 A 
ATOM     31  C   UNL     1       3.026   0.336  -3.674  0.00  0.00    +0.059 A 
ATOM     32  C   UNL     1       2.730  -0.504  -2.599  0.00  0.00    +0.015 A 
ATOM     33  C   UNL     1       2.129   0.012  -1.469  0.00  0.00    +0.005 A 
BRANCH  28  35
ATOM     34  C   UNL     1       2.058   1.688   1.040  0.00  0.00    +0.015 C 
ATOM     35  C   UNL     1       1.150   1.914  -0.170  0.00  0.00    -0.013 C 
ATOM     36  C   UNL     1      -0.187   1.204   0.056  0.00  0.00    +0.015 C 
ATOM     37  C   UNL     1       0.907   3.413  -0.353  0.00  0.00    +0.015 C 
ENDBRANCH  28  35
ENDBRANCH  26  31
ENDBRANCH  25  26
ENDBRANCH   1  25
TORSDOF 6
