REMARK  Name = ZINC10093210
REMARK  8 active torsions:
REMARK  status: ('A' for Active; 'I' for Inactive)
REMARK    1  A    between atoms: C_3  and  S_22
REMARK    2  A    between atoms: C_6  and  C_7
REMARK    3  A    between atoms: C_7  and  C_8
REMARK    4  A    between atoms: C_8  and  N_9
REMARK    5  A    between atoms: C_10  and  C_12
REMARK    6  A    between atoms: C_12  and  C_13
REMARK    7  A    between atoms: C_13  and  N_49
REMARK    8  A    between atoms: S_22  and  N_25
REMARK                            x       y       z     vdW  Elec       q    Type
REMARK                         _______ _______ _______ _____ _____    ______ ____
ROOT
ATOM      1  N   UNL     1      -1.361   5.323   2.736  0.00  0.00    -0.315 N 
ATOM      2  C   UNL     1      -1.388   4.009   2.436  0.00  0.00    +0.211 C 
ATOM      3  O   UNL     1      -2.055   3.248   3.104  0.00  0.00    -0.276 OA
ATOM      4  H   UNL     1      -0.827   5.932   2.202  0.00  0.00    +0.149 HD
ENDROOT
BRANCH   1   5
ATOM      5  C   UNL     1      -2.136   5.831   3.871  0.00  0.00    +0.109 C 
BRANCH   5   6
ATOM      6  C   UNL     1      -1.931   7.343   3.992  0.00  0.00    +0.054 C 
BRANCH   6  12
ATOM      7  C   UNL     1      -4.029   8.296   4.970  0.00  0.00    +0.005 A 
ATOM      8  C   UNL     1      -4.762   8.771   6.041  0.00  0.00    +0.029 A 
ATOM      9  C   UNL     1      -4.193   8.825   7.299  0.00  0.00    +0.105 A 
ATOM     10  C   UNL     1      -2.891   8.399   7.487  0.00  0.00    +0.029 A 
ATOM     11  C   UNL     1      -2.159   7.920   6.417  0.00  0.00    +0.005 A 
ATOM     12  C   UNL     1      -2.729   7.865   5.159  0.00  0.00    -0.046 A 
BRANCH   9  13
ATOM     13  S   UNL     1      -5.126   9.435   8.663  0.00  0.00    +0.056 S 
ATOM     14  O   UNL     1      -6.496   9.260   8.329  0.00  0.00    -0.153 OA
ATOM     15  O   UNL     1      -4.550   8.873   9.834  0.00  0.00    -0.153 OA
BRANCH  13  16
ATOM     16  N   UNL     1      -4.864  11.068   8.745  0.00  0.00    -0.204 NA
ATOM     17  H   UNL     1      -4.280  11.498   8.100  0.00  0.00    +0.144 HD
ATOM     18  H   UNL     1      -5.294  11.595   9.437  0.00  0.00    +0.144 HD
ENDBRANCH  13  16
ENDBRANCH   9  13
ENDBRANCH   6  12
ENDBRANCH   5   6
ENDBRANCH   1   5
BRANCH   2  19
ATOM     19  C   UNL     1      -0.590   3.486   1.269  0.00  0.00    +0.077 C 
BRANCH  19  20
ATOM     20  C   UNL     1      -0.796   1.975   1.147  0.00  0.00    -0.069 C 
BRANCH  20  29
ATOM     21  C   UNL     1       0.002  -0.004   0.002  0.00  0.00    -0.073 C 
ATOM     22  C   UNL     1       0.453  -0.486  -1.387  0.00  0.00    +0.024 C 
ATOM     23  C   UNL     1       1.656   0.310  -1.777  0.00  0.00    -0.011 A 
ATOM     24  C   UNL     1       2.101   1.454  -1.185  0.00  0.00    -0.054 A 
ATOM     25  C   UNL     1       3.252   2.025  -1.721  0.00  0.00    +0.009 A 
ATOM     26  C   UNL     1       3.868   1.443  -2.777  0.00  0.00    +0.045 A 
ATOM     27  S   UNL     1       2.825   0.022  -3.075  0.00  0.00    -0.101 S 
ATOM     28  C   UNL     1       1.335   2.036   0.000  0.00  0.00    -0.042 C 
ATOM     29  N   UNL     1      -0.037   1.478  -0.017  0.00  0.00    +0.383 N 
ATOM     30  H   UNL     1      -0.508   1.785  -0.877  0.00  0.00    -0.081 HD
ENDBRANCH  20  29
ENDBRANCH  19  20
ENDBRANCH   2  19
TORSDOF 8
