REMARK  Name = ZINC16001964
REMARK  7 active torsions:
REMARK  status: ('A' for Active; 'I' for Inactive)
REMARK    1  A    between atoms: C_1  and  C_2
REMARK    2  A    between atoms: C_4  and  C_41
REMARK    3  A    between atoms: C_6  and  N_8
REMARK    4  A    between atoms: C_24  and  C_30
REMARK    5  A    between atoms: N_32  and  C_33
REMARK    6  A    between atoms: C_36  and  O_39
REMARK    7  A    between atoms: O_39  and  C_40
REMARK                            x       y       z     vdW  Elec       q    Type
REMARK                         _______ _______ _______ _____ _____    ______ ____
ROOT
ATOM      1  N   UNL     1      -1.115   2.024  -0.011  0.00  0.00    -0.210 N 
ATOM      2  C   UNL     1      -0.014   1.204  -0.017  0.00  0.00    +0.232 C 
ATOM      3  O   UNL     1       0.003  -0.008  -0.030  0.00  0.00    -0.274 OA
ATOM      4  C   UNL     1       1.117   2.099  -0.012  0.00  0.00    +0.113 C 
ATOM      5  C   UNL     1       2.551   2.138   0.264  0.00  0.00    +0.100 C 
ATOM      6  C   UNL     1       3.438   1.438  -0.718  0.00  0.00    -0.021 A 
ATOM      7  C   UNL     1       3.094   0.194  -1.206  0.00  0.00    +0.006 A 
ATOM      8  C   UNL     1       3.925  -0.463  -2.096  0.00  0.00    +0.000 A 
ATOM      9  C   UNL     1       5.113   0.119  -2.501  0.00  0.00    +0.001 A 
ATOM     10  C   UNL     1       5.468   1.365  -2.029  0.00  0.00    +0.008 A 
ATOM     11  C   UNL     1       4.625   2.043  -1.145  0.00  0.00    -0.019 A 
ATOM     12  C   UNL     1       5.003   3.382  -0.655  0.00  0.00    +0.022 C 
ATOM     13  C   UNL     1       4.116   4.119   0.031  0.00  0.00    +0.054 C 
ATOM     14  N   UNL     1       2.859   3.597   0.246  0.00  0.00    -0.383 NA
ATOM     15  C   UNL     1       1.601   4.344   0.481  0.00  0.00    +0.156 C 
ATOM     16  C   UNL     1       0.577   3.284   0.886  0.00  0.00    +0.118 C 
ATOM     17  C   UNL     1      -0.804   3.321   0.294  0.00  0.00    +0.232 C 
ATOM     18  O   UNL     1      -1.498   4.298   0.117  0.00  0.00    -0.274 OA
ATOM     19  H   UNL     1       3.793   4.168   0.135  0.00  0.00    +0.127 HD
ENDROOT
BRANCH   1  25
ATOM     20  C   UNL     1      -4.181  -1.643  -1.171  0.00  0.00    +0.044 C 
ATOM     21  C   UNL     1      -3.930  -0.192  -0.849  0.00  0.00    -0.048 A 
ATOM     22  C   UNL     1      -4.984   0.702  -0.822  0.00  0.00    +0.006 A 
ATOM     23  C   UNL     1      -4.758   2.034  -0.526  0.00  0.00    -0.048 A 
ATOM     24  C   UNL     1      -3.477   2.475  -0.257  0.00  0.00    +0.027 A 
ATOM     25  C   UNL     1      -2.416   1.580  -0.284  0.00  0.00    +0.044 A 
ATOM     26  C   UNL     1      -2.646   0.244  -0.587  0.00  0.00    +0.027 A 
ATOM     27  C   UNL     1      -5.910   3.005  -0.497  0.00  0.00    +0.044 C 
ENDBRANCH   1  25
BRANCH  15  28
ATOM     28  C   UNL     1       1.162   5.040  -0.782  0.00  0.00    +0.237 C 
ATOM     29  O   UNL     1       1.603   4.685  -1.854  0.00  0.00    -0.273 OA
ATOM     30  N   UNL     1       0.280   6.057  -0.719  0.00  0.00    -0.284 N 
ATOM     31  H   UNL     1      -0.177   6.330   0.243  0.00  0.00    +0.155 HD
BRANCH  30  32
ATOM     32  C   UNL     1      -0.055   6.766  -1.880  0.00  0.00    +0.034 A 
ATOM     33  C   UNL     1      -0.317   8.128  -1.810  0.00  0.00    +0.027 A 
ATOM     34  C   UNL     1      -0.642   8.827  -2.956  0.00  0.00    +0.047 A 
ATOM     35  C   UNL     1      -0.718   8.168  -4.174  0.00  0.00    +0.120 A 
ATOM     36  C   UNL     1      -0.461   6.806  -4.243  0.00  0.00    +0.047 A 
ATOM     37  C   UNL     1      -0.130   6.107  -3.099  0.00  0.00    +0.027 A 
BRANCH  35  38
ATOM     38  O   UNL     1      -1.044   8.856  -5.300  0.00  0.00    -0.495 OA
ATOM     39  C   UNL     1      -1.295  10.255  -5.156  0.00  0.00    +0.277 C 
ENDBRANCH  35  38
ENDBRANCH  30  32
ENDBRANCH  15  28
TORSDOF 4
