REMARK  Name = ZINC27536431
REMARK  8 active torsions:
REMARK  status: ('A' for Active; 'I' for Inactive)
REMARK    1  A    between atoms: C_1  and  C_2
REMARK    2  A    between atoms: C_2  and  C_4
REMARK    3  A    between atoms: C_2  and  N_11
REMARK    4  A    between atoms: N_11  and  C_12
REMARK    5  A    between atoms: C_12  and  C_14
REMARK    6  A    between atoms: C_12  and  C_15
REMARK    7  A    between atoms: N_17  and  C_18
REMARK    8  A    between atoms: C_19  and  C_23
REMARK                            x       y       z     vdW  Elec       q    Type
REMARK                         _______ _______ _______ _____ _____    ______ ____
ROOT
ATOM      1  C   UNL     1       1.353   1.550  -0.003  0.00  0.00    +0.014 C 
ATOM      2  C   UNL     1       1.365   2.907   0.703  0.00  0.00    -0.004 C 
ENDROOT
BRANCH   1   3
ATOM      3  C   UNL     1       2.277   0.602   0.716  0.00  0.00    +0.203 C 
ATOM      4  O   UNL     1       1.843  -0.426   1.190  0.00  0.00    -0.277 OA
ATOM      5  N   UNL     1       3.587   0.897   0.832  0.00  0.00    -0.281 N 
ATOM      6  H   UNL     1       3.982   1.830   0.402  0.00  0.00    +0.155 HD
BRANCH   5   7
ATOM      7  C   UNL     1       4.439   0.025   1.494  0.00  0.00    +0.084 A 
ATOM      8  C   UNL     1       5.806   0.150   1.709  0.00  0.00    +0.065 A 
ATOM      9  C   UNL     1       6.449  -0.917   2.439  0.00  0.00    +0.022 A 
ATOM     10  C   UNL     1       5.674  -1.941   2.838  0.00  0.00    +0.048 A 
ATOM     11  S   UNL     1       4.057  -1.488   2.245  0.00  0.00    -0.081 S 
BRANCH   8  12
ATOM     12  C   UNL     1       6.558   1.310   1.222  0.00  0.00    +0.244 C 
ATOM     13  O   UNL     1       5.986   2.194   0.612  0.00  0.00    -0.270 OA
ATOM     14  N   UNL     1       7.884   1.398   1.449  0.00  0.00    -0.325 N 
ATOM     15  H   UNL     1       8.448   2.268   1.084  0.00  0.00    +0.145 HD
ATOM     16  H   UNL     1       8.401   0.599   2.000  0.00  0.00    +0.145 HD
ENDBRANCH   8  12
ENDBRANCH   5   7
ENDBRANCH   1   3
BRANCH   1  17
ATOM     17  N   UNL     1      -0.012   1.005   0.008  0.00  0.00    +0.391 N 
ATOM     18  H   UNL     1      -0.497   1.287   0.954  0.00  0.00    -0.084 HD
ATOM     19  H   UNL     1       0.046  -0.091  -0.062  0.00  0.00    -0.084 HD
BRANCH  17  21
ATOM     20  C   UNL     1      -0.534   0.673  -2.362  0.00  0.00    -0.009 C 
ATOM     21  C   UNL     1      -0.795   1.527  -1.120  0.00  0.00    -0.042 C 
BRANCH  21  22
ATOM     22  C   UNL     1      -2.262   1.479  -0.777  0.00  0.00    -0.043 A 
ATOM     23  C   UNL     1      -2.711   0.638   0.225  0.00  0.00    +0.003 A 
ATOM     24  C   UNL     1      -4.055   0.597   0.543  0.00  0.00    +0.000 A 
ATOM     25  C   UNL     1      -4.954   1.389  -0.148  0.00  0.00    +0.001 A 
ATOM     26  C   UNL     1      -4.507   2.226  -1.153  0.00  0.00    +0.020 A 
ATOM     27  C   UNL     1      -3.161   2.271  -1.469  0.00  0.00    +0.043 A 
ATOM     28 CL   UNL     1      -2.599   3.321  -2.732  0.00  0.00    -0.083 Cl
ENDBRANCH  21  22
ENDBRANCH  17  21
ENDBRANCH   1  17
TORSDOF 6
