REMARK  Name = ZINC40629947
REMARK  8 active torsions:
REMARK  status: ('A' for Active; 'I' for Inactive)
REMARK    1  A    between atoms: C_1  and  C_2
REMARK    2  A    between atoms: C_2  and  C_31
REMARK    3  A    between atoms: C_4  and  N_10
REMARK    4  A    between atoms: C_6  and  C_8
REMARK    5  A    between atoms: C_6  and  C_9
REMARK    6  A    between atoms: C_12  and  N_28
REMARK    7  A    between atoms: C_13  and  N_17
REMARK    8  A    between atoms: N_17  and  C_18
REMARK                            x       y       z     vdW  Elec       q    Type
REMARK                         _______ _______ _______ _____ _____    ______ ____
ROOT
ATOM      1  N   UNL     1       2.864  -1.094  -2.410  0.00  0.00    -0.324 N 
ATOM      2  C   UNL     1       3.925  -0.455  -3.032  0.00  0.00    +0.155 A 
ATOM      3  C   UNL     1       4.439  -0.943  -4.230  0.00  0.00    +0.205 A 
ATOM      4  C   UNL     1       5.504  -0.265  -4.815  0.00  0.00    +0.159 A 
ATOM      5  N   UNL     1       5.991   0.818  -4.211  0.00  0.00    -0.218 NA
ATOM      6  C   UNL     1       5.477   1.248  -3.076  0.00  0.00    +0.225 A 
ATOM      7  N   UNL     1       4.465   0.637  -2.494  0.00  0.00    -0.218 NA
ATOM      8  H   UNL     1       2.476  -1.889  -2.807  0.00  0.00    +0.148 HD
ENDROOT
BRANCH   1  12
ATOM      9  C   UNL     1       0.025   1.006   0.222  0.00  0.00    -0.010 C 
ATOM     10  C   UNL     1       0.295  -0.499   0.320  0.00  0.00    -0.072 C 
ATOM     11  C   UNL     1       0.870  -1.006  -0.999  0.00  0.00    +0.009 C 
ATOM     12  C   UNL     1       2.327  -0.567  -1.149  0.00  0.00    +0.069 C 
ATOM     13  C   UNL     1       3.122  -1.149   0.020  0.00  0.00    +0.009 C 
ATOM     14  C   UNL     1       2.565  -0.643   1.346  0.00  0.00    -0.072 C 
ATOM     15  N   UNL     1       1.127  -0.812   1.468  0.00  0.00    +0.386 N 
ATOM     16  C   UNL     1       2.974   0.819   1.557  0.00  0.00    -0.010 C 
ATOM     17  C   UNL     1       3.232  -1.467   2.472  0.00  0.00    -0.010 C 
ATOM     18  C   UNL     1      -1.071  -1.193   0.525  0.00  0.00    -0.010 C 
ATOM     19  H   UNL     1       0.804  -0.249   2.261  0.00  0.00    -0.084 HD
ATOM     20  H   UNL     1       0.941  -1.781   1.743  0.00  0.00    -0.084 HD
ENDBRANCH   1  12
BRANCH   3  21
ATOM     21  N   UNL     1       3.866  -2.151  -4.866  0.00  0.00    +0.063 N 
ATOM     22  O   UNL     1       2.959  -2.045  -5.658  0.00  0.00    -0.126 OA
ATOM     23  O   UNL     1       4.306  -3.243  -4.593  0.00  0.00    -0.126 OA
ENDBRANCH   3  21
BRANCH   4  24
ATOM     24  N   UNL     1       6.051  -0.711  -6.009  0.00  0.00    -0.297 N 
ATOM     25  H   UNL     1       5.640  -1.449  -6.485  0.00  0.00    +0.154 HD
BRANCH  24  26
ATOM     26  C   UNL     1       7.198  -0.096  -6.526  0.00  0.00    +0.036 A 
ATOM     27  C   UNL     1       8.183   0.373  -5.667  0.00  0.00    +0.027 A 
ATOM     28  C   UNL     1       9.313   0.982  -6.177  0.00  0.00    +0.051 A 
ATOM     29  C   UNL     1       9.468   1.126  -7.548  0.00  0.00    +0.162 A 
ATOM     30  C   UNL     1       8.486   0.655  -8.410  0.00  0.00    +0.164 A 
ATOM     31  C   UNL     1       7.353   0.041  -7.898  0.00  0.00    +0.072 A 
ATOM     32  O   UNL     1       8.624   0.781  -9.759  0.00  0.00    -0.485 OA
ATOM     33  C   UNL     1       9.595   1.726 -10.221  0.00  0.00    +0.270 C 
ATOM     34  C   UNL     1      10.885   1.523  -9.416  0.00  0.00    +0.270 C 
ATOM     35  O   UNL     1      10.588   1.732  -8.032  0.00  0.00    -0.485 OA
ENDBRANCH  24  26
ENDBRANCH   4  24
TORSDOF 4
