REMARK  Name = ZINC66250839
REMARK  5 active torsions:
REMARK  status: ('A' for Active; 'I' for Inactive)
REMARK    1  A    between atoms: C_3  and  S_10
REMARK    2  A    between atoms: C_6  and  C_7
REMARK    3  A    between atoms: S_10  and  N_13
REMARK    4  A    between atoms: C_16  and  C_19
REMARK    5  A    between atoms: C_19  and  N_20
REMARK                            x       y       z     vdW  Elec       q    Type
REMARK                         _______ _______ _______ _____ _____    ______ ____
ROOT
ATOM      1  N   UNL     1       4.325   2.568   1.555  0.00  0.00    -0.103 NA
ATOM      2  C   UNL     1       5.424   3.223   1.838  0.00  0.00    +0.191 A 
ATOM      3  N   UNL     1       5.967   3.528   3.068  0.00  0.00    -0.338 N 
ATOM      4  C   UNL     1       7.136   4.229   3.106  0.00  0.00    +0.008 A 
ATOM      5  C   UNL     1       7.730   4.606   1.974  0.00  0.00    +0.068 A 
ATOM      6  S   UNL     1       6.623   3.953   0.734  0.00  0.00    -0.057 S 
ATOM      7  H   UNL     1       5.528   3.250   3.887  0.00  0.00    +0.167 HD
ENDROOT
BRANCH   1   8
ATOM      8  S   UNL     1       3.889   2.325  -0.024  0.00  0.00    +0.101 S 
ATOM      9  O   UNL     1       4.872   1.468  -0.589  0.00  0.00    -0.146 OA
ATOM     10  O   UNL     1       3.592   3.604  -0.565  0.00  0.00    -0.146 OA
BRANCH   8  13
ATOM     11  C   UNL     1      -0.017   1.391   0.010  0.00  0.00    +0.015 A 
ATOM     12  C   UNL     1       1.170   2.095   0.002  0.00  0.00    +0.030 A 
ATOM     13  C   UNL     1       2.378   1.419  -0.013  0.00  0.00    +0.113 A 
ATOM     14  C   UNL     1       2.403   0.036  -0.022  0.00  0.00    +0.030 A 
ATOM     15  C   UNL     1       1.224  -0.679  -0.014  0.00  0.00    +0.015 A 
ATOM     16  C   UNL     1       0.002  -0.004   0.002  0.00  0.00    +0.037 A 
BRANCH  16  17
ATOM     17  C   UNL     1      -1.266  -0.764   0.011  0.00  0.00    +0.242 C 
ATOM     18  O   UNL     1      -2.329  -0.173   0.024  0.00  0.00    -0.270 OA
ATOM     19  N   UNL     1      -1.244  -2.111   0.003  0.00  0.00    -0.325 N 
ATOM     20  H   UNL     1      -0.397  -2.583  -0.008  0.00  0.00    +0.145 HD
ATOM     21  H   UNL     1      -2.077  -2.610   0.009  0.00  0.00    +0.145 HD
ENDBRANCH  16  17
ENDBRANCH   8  13
ENDBRANCH   1   8
BRANCH   4  22
ATOM     22  C   UNL     1       7.759   4.580   4.433  0.00  0.00    -0.024 C 
BRANCH  22  23
ATOM     23  N   UNL     1       6.875   5.501   5.160  0.00  0.00    +0.383 N 
ATOM     24  C   UNL     1       6.719   6.734   4.365  0.00  0.00    -0.078 C 
ATOM     25  C   UNL     1       5.417   7.388   4.755  0.00  0.00    -0.019 C 
ATOM     26  C   UNL     1       5.631   8.481   5.818  0.00  0.00    -0.002 C 
ATOM     27  C   UNL     1       6.660   8.050   6.883  0.00  0.00    -0.002 C 
ATOM     28  C   UNL     1       6.489   6.611   7.297  0.00  0.00    -0.019 C 
ATOM     29  C   UNL     1       7.409   5.725   6.430  0.00  0.00    -0.078 C 
ATOM     30  H   UNL     1       5.970   5.067   5.262  0.00  0.00    -0.081 HD
ENDBRANCH  22  23
ENDBRANCH   4  22
TORSDOF 5
