REMARK  Name = ZINC48889357
REMARK  5 active torsions:
REMARK  status: ('A' for Active; 'I' for Inactive)
REMARK    1  A    between atoms: C_1  and  C_2
REMARK    2  A    between atoms: C_5  and  C_8
REMARK    3  A    between atoms: N_10  and  N_11
REMARK    4  A    between atoms: C_12  and  C_14
REMARK    5  A    between atoms: C_16  and  C_20
REMARK                            x       y       z     vdW  Elec       q    Type
REMARK                         _______ _______ _______ _____ _____    ______ ____
ROOT
ATOM      1  N   UNL     1       0.092  -6.332   1.134  0.00  0.00    -0.229 N 
ATOM      2  C   UNL     1       0.107  -7.013   2.298  0.00  0.00    +0.279 C 
ATOM      3  O   UNL     1       0.104  -6.410   3.355  0.00  0.00    -0.267 OA
ATOM      4  H   UNL     1       0.095  -6.813   0.292  0.00  0.00    +0.173 HD
ENDROOT
BRANCH   2   5
ATOM      5  C   UNL     1       0.127  -8.483   2.290  0.00  0.00    +0.136 A 
ATOM      6  C   UNL     1       0.138  -9.321   3.393  0.00  0.00    +0.070 A 
ATOM      7  C   UNL     1       0.155 -10.617   2.872  0.00  0.00    +0.074 A 
ATOM      8  N   UNL     1       0.154 -10.526   1.567  0.00  0.00    -0.177 NA
ATOM      9  N   UNL     1       0.132  -9.298   1.192  0.00  0.00    -0.271 N 
ATOM     10  H   UNL     1       0.123  -8.994   0.271  0.00  0.00    +0.189 HD
ATOM     11  C   UNL     1       0.172 -11.895   3.672  0.00  0.00    +0.068 C 
ATOM     12 BR   UNL     1       0.131  -8.817   5.215  0.00  0.00    -0.046 Br
ENDBRANCH   2   5
BRANCH   1  15
ATOM     13  C   UNL     1       0.059  -4.251  -0.021  0.00  0.00    +0.260 C 
ATOM     14  O   UNL     1       0.062  -4.853  -1.077  0.00  0.00    -0.269 OA
ATOM     15  N   UNL     1       0.074  -4.931   1.142  0.00  0.00    -0.230 N 
ATOM     16  H   UNL     1       0.072  -4.451   1.985  0.00  0.00    +0.173 HD
BRANCH  13  21
ATOM     17  C   UNL     1      -0.018   1.503   0.010  0.00  0.00    +0.044 C 
ATOM     18  C   UNL     1       0.002  -0.004   0.002  0.00  0.00    -0.050 A 
ATOM     19  C   UNL     1       0.006  -0.686  -1.202  0.00  0.00    +0.004 A 
ATOM     20  C   UNL     1       0.024  -2.066  -1.216  0.00  0.00    +0.013 A 
ATOM     21  C   UNL     1       0.040  -2.773  -0.013  0.00  0.00    +0.038 A 
ATOM     22  C   UNL     1       0.036  -2.079   1.198  0.00  0.00    +0.013 A 
ATOM     23  C   UNL     1       0.023  -0.699   1.198  0.00  0.00    +0.004 A 
ENDBRANCH  13  21
ENDBRANCH   1  15
TORSDOF 3
