REMARK  Name = ZINC61635894
REMARK  9 active torsions:
REMARK  status: ('A' for Active; 'I' for Inactive)
REMARK    1  A    between atoms: C_1  and  N_2
REMARK    2  A    between atoms: N_2  and  C_3
REMARK    3  A    between atoms: N_2  and  C_4
REMARK    4  A    between atoms: C_4  and  C_5
REMARK    5  A    between atoms: C_5  and  N_6
REMARK    6  A    between atoms: C_8  and  N_11
REMARK    7  A    between atoms: C_12  and  C_14
REMARK    8  A    between atoms: C_17  and  N_23
REMARK    9  A    between atoms: C_18  and  N_20
REMARK                            x       y       z     vdW  Elec       q    Type
REMARK                         _______ _______ _______ _____ _____    ______ ____
ROOT
ATOM      1  N   UNL     1       2.327  -0.213   6.758  0.00  0.00    -0.279 N 
ATOM      2  C   UNL     1       2.683  -1.171   7.637  0.00  0.00    +0.248 C 
ATOM      3  O   UNL     1       2.477  -2.341   7.378  0.00  0.00    -0.270 OA
ATOM      4  H   UNL     1       2.491   0.720   6.964  0.00  0.00    +0.155 HD
ENDROOT
BRANCH   2   5
ATOM      5  C   UNL     1       3.322  -0.799   8.913  0.00  0.00    +0.039 A 
ATOM      6  C   UNL     1       3.555   0.547   9.215  0.00  0.00    +0.015 A 
ATOM      7  C   UNL     1       4.151   0.890  10.406  0.00  0.00    +0.026 A 
ATOM      8  C   UNL     1       4.524  -0.100  11.311  0.00  0.00    +0.055 A 
ATOM      9  C   UNL     1       4.294  -1.440  11.014  0.00  0.00    +0.147 A 
ATOM     10  C   UNL     1       3.692  -1.790   9.826  0.00  0.00    +0.047 A 
BRANCH   9  11
ATOM     11  N   UNL     1       4.693  -2.490  11.978  0.00  0.00    +0.058 N 
ATOM     12  O   UNL     1       5.136  -3.542  11.578  0.00  0.00    -0.126 OA
ATOM     13  O   UNL     1       4.575  -2.296  13.166  0.00  0.00    -0.126 OA
ENDBRANCH   9  11
BRANCH   8  14
ATOM     14  N   UNL     1       5.127   0.251  12.514  0.00  0.00    -0.356 N 
ATOM     15  H   UNL     1       5.184   1.183  12.774  0.00  0.00    +0.142 HD
ATOM     16  H   UNL     1       5.489  -0.438  13.093  0.00  0.00    +0.142 HD
ENDBRANCH   8  14
ENDBRANCH   2   5
BRANCH   1  19
ATOM     17  N   UNL     1       0.776  -0.452   3.565  0.00  0.00    -0.271 N 
ATOM     18  C   UNL     1       1.310   0.290   4.570  0.00  0.00    +0.131 A 
ATOM     19  C   UNL     1       1.717  -0.568   5.540  0.00  0.00    +0.072 A 
ATOM     20  C   UNL     1       1.421  -1.871   5.113  0.00  0.00    +0.157 A 
ATOM     21  N   UNL     1       0.854  -1.800   3.937  0.00  0.00    -0.178 NA
BRANCH  17  22
ATOM     22  C   UNL     1       0.212   0.067   2.317  0.00  0.00    +0.125 C 
BRANCH  22  23
ATOM     23  C   UNL     1       0.902  -0.603   1.127  0.00  0.00    -0.056 C 
BRANCH  23  25
ATOM     24  C   UNL     1       0.652   1.347  -0.247  0.00  0.00    -0.097 C 
ATOM     25  N   UNL     1       0.337  -0.083  -0.125  0.00  0.00    +0.377 N 
ATOM     26  C   UNL     1       0.914  -0.811  -1.262  0.00  0.00    -0.097 C 
ATOM     27  H   UNL     1      -0.664  -0.207  -0.119  0.00  0.00    -0.083 HD
ENDBRANCH  23  25
ENDBRANCH  22  23
ENDBRANCH  17  22
ENDBRANCH   1  19
TORSDOF 7
