REMARK  Name = ZINC36585146
REMARK  19 active torsions:
REMARK  status: ('A' for Active; 'I' for Inactive)
REMARK    1  A    between atoms: C_1  and  C_2
REMARK    2  A    between atoms: C_2  and  C_3
REMARK    3  A    between atoms: C_2  and  C_4
REMARK    4  A    between atoms: C_2  and  C_5
REMARK    5  A    between atoms: C_5  and  C_6
REMARK    6  A    between atoms: C_6  and  C_7
REMARK    7  A    between atoms: C_6  and  C_8
REMARK    8  A    between atoms: C_6  and  N_9
REMARK    9  A    between atoms: C_10  and  C_12
REMARK   10  A    between atoms: C_12  and  C_14
REMARK   11  A    between atoms: C_12  and  N_23
REMARK   12  A    between atoms: C_15  and  O_22
REMARK   13  A    between atoms: C_17  and  O_21
REMARK   14  A    between atoms: C_19  and  O_20
REMARK   15  A    between atoms: N_23  and  C_33
REMARK   16  A    between atoms: C_24  and  C_26
REMARK   17  A    between atoms: C_33  and  C_34
REMARK   18  A    between atoms: C_33  and  C_35
REMARK   19  A    between atoms: C_33  and  C_36
REMARK                            x       y       z     vdW  Elec       q    Type
REMARK                         _______ _______ _______ _____ _____    ______ ____
ROOT
ATOM      1  C   UNL     1       7.609  -3.859  -5.337  0.00  0.00    +0.200 C 
ENDROOT
BRANCH   1   2
ATOM      2  C   UNL     1       7.106  -5.164  -5.900  0.00  0.00    +0.065 A 
ATOM      3  C   UNL     1       7.252  -5.437  -7.252  0.00  0.00    +0.129 A 
ATOM      4  C   UNL     1       6.790  -6.638  -7.770  0.00  0.00    +0.091 A 
ATOM      5  C   UNL     1       6.183  -7.565  -6.936  0.00  0.00    +0.124 A 
ATOM      6  C   UNL     1       6.038  -7.292  -5.585  0.00  0.00    +0.091 A 
ATOM      7  C   UNL     1       6.504  -6.093  -5.066  0.00  0.00    +0.129 A 
BRANCH   7   8
ATOM      8  O   UNL     1       6.366  -5.827  -3.740  0.00  0.00    -0.506 OA
ATOM      9  H   UNL     1       5.540  -5.380  -3.512  0.00  0.00    +0.292 HD
ENDBRANCH   7   8
BRANCH   5  10
ATOM     10  O   UNL     1       5.729  -8.741  -7.445  0.00  0.00    -0.507 OA
ATOM     11  H   UNL     1       6.383  -9.453  -7.433  0.00  0.00    +0.292 HD
ENDBRANCH   5  10
BRANCH   3  12
ATOM     12  O   UNL     1       7.847  -4.529  -8.069  0.00  0.00    -0.506 OA
ATOM     13  H   UNL     1       8.791  -4.683  -8.207  0.00  0.00    +0.292 HD
ENDBRANCH   3  12
ENDBRANCH   1   2
BRANCH   1  15
ATOM     14  N   UNL     1       9.874  -3.818  -6.330  0.00  0.00    -0.308 N 
ATOM     15  C   UNL     1       8.642  -3.275  -6.266  0.00  0.00    +0.239 C 
ATOM     16  O   UNL     1       8.364  -2.317  -6.956  0.00  0.00    -0.273 OA
ATOM     17  H   UNL     1      10.096  -4.584  -5.778  0.00  0.00    +0.149 HD
BRANCH  14  18
ATOM     18  C   UNL     1      10.878  -3.250  -7.233  0.00  0.00    +0.030 C 
ATOM     19  C   UNL     1      11.108  -1.779  -6.880  0.00  0.00    +0.031 C 
ATOM     20  C   UNL     1      10.383  -3.357  -8.677  0.00  0.00    +0.031 C 
BRANCH  18  21
ATOM     21  C   UNL     1      12.191  -4.021  -7.085  0.00  0.00    +0.031 C 
BRANCH  21  23
ATOM     22  C   UNL     1      11.979  -5.649  -5.201  0.00  0.00    +0.010 C 
ATOM     23  C   UNL     1      12.478  -4.259  -5.601  0.00  0.00    -0.036 C 
ATOM     24  C   UNL     1      11.758  -3.198  -4.766  0.00  0.00    +0.010 C 
ATOM     25  C   UNL     1      13.985  -4.167  -5.353  0.00  0.00    +0.010 C 
ENDBRANCH  21  23
ENDBRANCH  18  21
ENDBRANCH  14  18
ENDBRANCH   1  15
BRANCH   1  26
ATOM     26  N   UNL     1       6.490  -2.923  -5.200  0.00  0.00    -0.277 N 
ATOM     27  C   UNL     1       5.228  -3.345  -5.417  0.00  0.00    +0.248 C 
ATOM     28  O   UNL     1       4.965  -4.530  -5.359  0.00  0.00    -0.270 OA
BRANCH  27  29
ATOM     29  C   UNL     1       4.164  -2.366  -5.725  0.00  0.00    +0.038 A 
ATOM     30  C   UNL     1       4.497  -1.067  -6.112  0.00  0.00    +0.013 A 
ATOM     31  C   UNL     1       3.500  -0.158  -6.399  0.00  0.00    +0.002 A 
ATOM     32  C   UNL     1       2.171  -0.531  -6.305  0.00  0.00    +0.020 A 
ATOM     33  C   UNL     1       1.833  -1.818  -5.921  0.00  0.00    +0.042 A 
ATOM     34  C   UNL     1       2.822  -2.739  -5.636  0.00  0.00    +0.033 A 
ATOM     35 CL   UNL     1       0.163  -2.276  -5.805  0.00  0.00    -0.084 Cl
ENDBRANCH  27  29
BRANCH  26  36
ATOM     36  C   UNL     1       6.742  -1.529  -4.829  0.00  0.00    +0.030 C 
ATOM     37  C   UNL     1       7.871  -1.472  -3.797  0.00  0.00    +0.031 C 
ATOM     38  C   UNL     1       7.148  -0.735  -6.072  0.00  0.00    +0.031 C 
ATOM     39  C   UNL     1       5.472  -0.923  -4.229  0.00  0.00    +0.031 C 
ENDBRANCH  26  36
ENDBRANCH   1  26
TORSDOF 11
