REMARK  Name = ZINC09013928
REMARK  8 active torsions:
REMARK  status: ('A' for Active; 'I' for Inactive)
REMARK    1  A    between atoms: C_1  and  O_2
REMARK    2  A    between atoms: O_2  and  C_3
REMARK    3  A    between atoms: C_6  and  O_32
REMARK    4  A    between atoms: C_7  and  N_9
REMARK    5  A    between atoms: C_12  and  C_18
REMARK    6  A    between atoms: C_13  and  O_17
REMARK    7  A    between atoms: C_15  and  O_16
REMARK    8  A    between atoms: O_32  and  C_33
REMARK                            x       y       z     vdW  Elec       q    Type
REMARK                         _______ _______ _______ _____ _____    ______ ____
ROOT
ATOM      1  N   UNL     1      -2.178   5.303   3.759  0.00  0.00    -0.227 N 
ATOM      2  C   UNL     1      -3.504   5.548   3.725  0.00  0.00    +0.267 A 
ATOM      3  O   UNL     1      -4.153   5.318   2.717  0.00  0.00    -0.267 OA
ATOM      4  C   UNL     1      -4.125   6.066   4.869  0.00  0.00    +0.071 A 
ATOM      5  C   UNL     1      -3.351   6.317   5.988  0.00  0.00    +0.224 A 
ATOM      6  N   UNL     1      -2.039   6.060   5.961  0.00  0.00    -0.161 NA
ATOM      7  C   UNL     1      -1.464   5.569   4.886  0.00  0.00    +0.306 A 
ENDROOT
BRANCH   4   8
ATOM      8  C   UNL     1      -5.605   6.349   4.878  0.00  0.00    +0.018 C 
ATOM      9  C   UNL     1      -6.370   5.056   4.729  0.00  0.00    +0.011 A 
ATOM     10  C   UNL     1      -7.441   4.922   3.913  0.00  0.00    -0.022 A 
ATOM     11  C   UNL     1      -7.901   3.557   4.032  0.00  0.00    +0.003 A 
ATOM     12  C   UNL     1      -8.951   2.851   3.435  0.00  0.00    +0.010 A 
ATOM     13  C   UNL     1      -9.097   1.534   3.794  0.00  0.00    +0.001 A 
ATOM     14  C   UNL     1      -8.251   0.920   4.702  0.00  0.00    +0.002 A 
ATOM     15  C   UNL     1      -7.204   1.593   5.307  0.00  0.00    +0.026 A 
ATOM     16  C   UNL     1      -7.031   2.932   4.963  0.00  0.00    +0.047 A 
ATOM     17  N   UNL     1      -6.120   3.868   5.362  0.00  0.00    -0.359 N 
ATOM     18  H   UNL     1      -5.404   3.715   5.998  0.00  0.00    +0.166 HD
ATOM     19  C   UNL     1      -7.988   6.046   3.069  0.00  0.00    +0.018 C 
ATOM     20  C   UNL     1      -7.404   7.363   3.597  0.00  0.00    -0.076 C 
ATOM     21  N   UNL     1      -5.938   7.237   3.743  0.00  0.00    +0.388 N 
ATOM     22  H   UNL     1      -5.546   6.843   2.880  0.00  0.00    -0.084 HD
ATOM     23  H   UNL     1      -5.534   8.166   3.910  0.00  0.00    -0.084 HD
ENDBRANCH   4   8
BRANCH   1  28
ATOM     24  C   UNL     1      -0.787   2.893   1.346  0.00  0.00    +0.122 A 
ATOM     25  C   UNL     1      -0.258   3.750   0.393  0.00  0.00    +0.049 A 
ATOM     26  C   UNL     1      -0.364   5.118   0.554  0.00  0.00    +0.051 A 
ATOM     27  C   UNL     1      -1.000   5.638   1.670  0.00  0.00    +0.144 A 
ATOM     28  C   UNL     1      -1.533   4.780   2.629  0.00  0.00    +0.099 A 
ATOM     29  C   UNL     1      -1.429   3.407   2.462  0.00  0.00    +0.075 A 
BRANCH  24  31
ATOM     30  C   UNL     1      -0.013   1.086   0.008  0.00  0.00    +0.277 C 
ATOM     31  O   UNL     1      -0.682   1.547   1.184  0.00  0.00    -0.495 OA
ENDBRANCH  24  31
BRANCH  27  32
ATOM     32  O   UNL     1      -1.105   6.985   1.829  0.00  0.00    -0.493 OA
ATOM     33  C   UNL     1      -0.535   7.804   0.806  0.00  0.00    +0.277 C 
ENDBRANCH  27  32
ENDBRANCH   1  28
BRANCH   7  34
ATOM     34  O   UNL     1      -0.138   5.323   4.901  0.00  0.00    -0.479 OA
ATOM     35  H   UNL     1       0.293   5.539   5.740  0.00  0.00    +0.295 HD
ENDBRANCH   7  34
BRANCH   5  36
ATOM     36  O   UNL     1      -3.921   6.823   7.107  0.00  0.00    -0.492 OA
ATOM     37  H   UNL     1      -3.300   6.964   7.835  0.00  0.00    +0.294 HD
ENDBRANCH   5  36
TORSDOF 6
