REMARK  Name = ZINC37796663
REMARK  9 active torsions:
REMARK  status: ('A' for Active; 'I' for Inactive)
REMARK    1  A    between atoms: C_1  and  C_2
REMARK    2  A    between atoms: C_2  and  C_3
REMARK    3  A    between atoms: C_2  and  C_4
REMARK    4  A    between atoms: C_4  and  C_5
REMARK    5  A    between atoms: C_4  and  C_6
REMARK    6  A    between atoms: C_4  and  C_19
REMARK    7  A    between atoms: C_6  and  C_7
REMARK    8  A    between atoms: N_9  and  C_10
REMARK    9  A    between atoms: C_15  and  O_18
REMARK                            x       y       z     vdW  Elec       q    Type
REMARK                         _______ _______ _______ _____ _____    ______ ____
ROOT
ATOM      1  C   UNL     1      -3.587  -0.548  -1.216  0.00  0.00    +0.214 C 
ATOM      2  O   UNL     1      -3.966  -1.256  -0.306  0.00  0.00    -0.276 OA
ATOM      3  N   UNL     1      -4.431  -0.229  -2.217  0.00  0.00    -0.312 N 
ATOM      4  H   UNL     1      -4.128   0.337  -2.945  0.00  0.00    +0.149 HD
ENDROOT
BRANCH   3   5
ATOM      5  C   UNL     1      -5.805  -0.736  -2.207  0.00  0.00    +0.075 C 
ATOM      6  C   UNL     1      -6.685   0.192  -1.366  0.00  0.00    +0.022 C 
ATOM      7  C   UNL     1      -8.120  -0.338  -1.355  0.00  0.00    +0.004 C 
ATOM      8  C   UNL     1      -8.656  -0.389  -2.787  0.00  0.00    +0.031 C 
ATOM      9  C   UNL     1      -7.776  -1.316  -3.628  0.00  0.00    +0.116 C 
ATOM     10  C   UNL     1      -6.341  -0.787  -3.639  0.00  0.00    +0.053 C 
BRANCH   9  11
ATOM     11  O   UNL     1      -7.795  -2.630  -3.066  0.00  0.00    -0.392 OA
ATOM     12  H   UNL     1      -8.675  -3.029  -3.027  0.00  0.00    +0.210 HD
ENDBRANCH   9  11
ENDBRANCH   3   5
BRANCH   1  13
ATOM     13  C   UNL     1      -2.173  -0.027  -1.227  0.00  0.00    +0.114 C 
BRANCH  13  14
ATOM     14  C   UNL     1      -1.433  -0.534   0.013  0.00  0.00    +0.080 C 
ATOM     15  C   UNL     1      -1.413  -2.063   0.004  0.00  0.00    +0.024 C 
BRANCH  14  17
ATOM     16  C   UNL     1      -0.019   1.526   0.010  0.00  0.00    +0.008 C 
ATOM     17  C   UNL     1       0.002  -0.004   0.002  0.00  0.00    -0.000 C 
ATOM     18  C   UNL     1       0.742  -0.511   1.242  0.00  0.00    +0.008 C 
ENDBRANCH  14  17
BRANCH  14  19
ATOM     19  C   UNL     1      -2.139  -0.048   1.253  0.00  0.00    +0.362 C 
ATOM     20  O   UNL     1      -2.264   1.148   1.453  0.00  0.00    -0.246 OA
ATOM     21  O   UNL     1      -2.584  -0.851   2.055  0.00  0.00    -0.246 OA
ENDBRANCH  14  19
ENDBRANCH  13  14
ENDBRANCH   1  13
TORSDOF 6
