REMARK  Name = ZINC56163543
REMARK  11 active torsions:
REMARK  status: ('A' for Active; 'I' for Inactive)
REMARK    1  A    between atoms: C_1  and  C_2
REMARK    2  A    between atoms: C_2  and  C_4
REMARK    3  A    between atoms: C_2  and  N_14
REMARK    4  A    between atoms: C_7  and  O_10
REMARK    5  A    between atoms: O_10  and  C_11
REMARK    6  A    between atoms: C_11  and  C_12
REMARK    7  A    between atoms: C_11  and  C_13
REMARK    8  A    between atoms: N_14  and  C_15
REMARK    9  A    between atoms: C_15  and  C_17
REMARK   10  A    between atoms: C_15  and  C_18
REMARK   11  A    between atoms: N_20  and  C_21
REMARK                            x       y       z     vdW  Elec       q    Type
REMARK                         _______ _______ _______ _____ _____    ______ ____
ROOT
ATOM      1  N   UNL     1      -0.172   0.583  -1.084  0.00  0.00    +0.391 N 
ATOM      2  H   UNL     1      -0.658   0.706  -1.960  0.00  0.00    -0.084 HD
ATOM      3  H   UNL     1       0.605   1.225  -1.038  0.00  0.00    -0.084 HD
ENDROOT
BRANCH   1   5
ATOM      4  C   UNL     1      -1.486   2.328   0.024  0.00  0.00    -0.009 C 
ATOM      5  C   UNL     1      -1.093   0.849   0.029  0.00  0.00    -0.043 C 
BRANCH   5   6
ATOM      6  C   UNL     1      -2.329   0.000  -0.128  0.00  0.00    -0.061 A 
ATOM      7  C   UNL     1      -2.880  -0.191  -1.382  0.00  0.00    +0.005 A 
ATOM      8  C   UNL     1      -4.013  -0.968  -1.528  0.00  0.00    +0.046 A 
ATOM      9  C   UNL     1      -4.597  -1.557  -0.416  0.00  0.00    +0.121 A 
ATOM     10  C   UNL     1      -4.042  -1.364   0.841  0.00  0.00    +0.046 A 
ATOM     11  C   UNL     1      -2.906  -0.590   0.981  0.00  0.00    +0.005 A 
BRANCH   9  12
ATOM     12  O   UNL     1      -5.712  -2.322  -0.557  0.00  0.00    -0.489 OA
BRANCH  12  13
ATOM     13  C   UNL     1      -6.210  -2.502  -1.884  0.00  0.00    +0.167 C 
ATOM     14  C   UNL     1      -7.010  -3.805  -1.956  0.00  0.00    +0.051 C 
ATOM     15  C   UNL     1      -7.117  -1.327  -2.253  0.00  0.00    +0.051 C 
ENDBRANCH  12  13
ENDBRANCH   9  12
ENDBRANCH   5   6
ENDBRANCH   1   5
BRANCH   1  16
ATOM     16  C   UNL     1       0.325  -0.796  -0.990  0.00  0.00    +0.014 C 
ATOM     17  C   UNL     1       1.194  -0.940   0.261  0.00  0.00    -0.004 C 
BRANCH  16  18
ATOM     18  C   UNL     1       1.146  -1.119  -2.212  0.00  0.00    +0.203 C 
ATOM     19  O   UNL     1       1.301  -0.282  -3.076  0.00  0.00    -0.277 OA
ATOM     20  N   UNL     1       1.708  -2.337  -2.344  0.00  0.00    -0.282 N 
ATOM     21  H   UNL     1       1.565  -3.013  -1.663  0.00  0.00    +0.155 HD
BRANCH  20  22
ATOM     22  C   UNL     1       2.498  -2.626  -3.464  0.00  0.00    +0.105 A 
ATOM     23  C   UNL     1       2.448  -3.888  -4.046  0.00  0.00    +0.147 A 
ATOM     24  C   UNL     1       3.230  -4.169  -5.152  0.00  0.00    +0.040 A 
ATOM     25  C   UNL     1       4.061  -3.198  -5.679  0.00  0.00    +0.006 A 
ATOM     26  C   UNL     1       4.114  -1.942  -5.103  0.00  0.00    +0.040 A 
ATOM     27  C   UNL     1       3.330  -1.650  -4.001  0.00  0.00    +0.147 A 
ATOM     28  F   UNL     1       3.378  -0.421  -3.443  0.00  0.00    -0.203 F 
ATOM     29  F   UNL     1       1.637  -4.837  -3.531  0.00  0.00    -0.203 F 
ENDBRANCH  20  22
ENDBRANCH  16  18
ENDBRANCH   1  16
TORSDOF 7
