REMARK  Name = ZINC12603266
REMARK  8 active torsions:
REMARK  status: ('A' for Active; 'I' for Inactive)
REMARK    1  A    between atoms: C_1  and  C_2
REMARK    2  A    between atoms: C_2  and  C_3
REMARK    3  A    between atoms: C_2  and  N_4
REMARK    4  A    between atoms: N_4  and  C_5
REMARK    5  A    between atoms: C_8  and  C_31
REMARK    6  A    between atoms: C_11  and  C_27
REMARK    7  A    between atoms: C_27  and  O_29
REMARK    8  A    between atoms: O_29  and  C_30
REMARK                            x       y       z     vdW  Elec       q    Type
REMARK                         _______ _______ _______ _____ _____    ______ ____
ROOT
ATOM      1  C   UNL     1      -2.468  -2.033  -0.502  0.00  0.00    -0.068 C 
ATOM      2  C   UNL     1      -1.694  -2.254   0.800  0.00  0.00    +0.008 C 
ATOM      3  C   UNL     1      -1.390  -3.746   0.966  0.00  0.00    +0.087 C 
ATOM      4  N   UNL     1      -2.650  -4.497   0.984  0.00  0.00    -0.274 NA
ATOM      5  C   UNL     1      -2.439  -5.909   1.324  0.00  0.00    +0.172 C 
ATOM      6  C   UNL     1      -3.779  -6.547   1.716  0.00  0.00    +0.068 C 
ATOM      7  C   UNL     1      -4.798  -6.183   0.666  0.00  0.00    -0.016 A 
ATOM      8  C   UNL     1      -6.095  -6.767   0.408  0.00  0.00    +0.003 A 
ATOM      9  C   UNL     1      -6.805  -7.810   1.012  0.00  0.00    +0.010 A 
ATOM     10  C   UNL     1      -8.042  -8.102   0.491  0.00  0.00    +0.001 A 
ATOM     11  C   UNL     1      -8.573  -7.404  -0.581  0.00  0.00    +0.002 A 
ATOM     12  C   UNL     1      -7.893  -6.368  -1.197  0.00  0.00    +0.026 A 
ATOM     13  C   UNL     1      -6.635  -6.049  -0.690  0.00  0.00    +0.047 A 
ATOM     14  N   UNL     1      -5.716  -5.106  -1.052  0.00  0.00    -0.356 N 
ATOM     15  H   UNL     1      -5.824  -4.470  -1.776  0.00  0.00    +0.166 HD
ATOM     16  C   UNL     1      -4.619  -5.192  -0.238  0.00  0.00    +0.038 A 
ATOM     17  C   UNL     1      -3.372  -4.346  -0.288  0.00  0.00    +0.103 C 
ATOM     18  C   UNL     1      -3.747  -2.876  -0.482  0.00  0.00    +0.009 C 
ENDROOT
BRANCH   3  19
ATOM     19  C   UNL     1      -0.652  -3.968   2.261  0.00  0.00    -0.027 A 
ATOM     20  C   UNL     1      -1.350  -4.018   3.454  0.00  0.00    +0.008 A 
ATOM     21  C   UNL     1      -0.675  -4.221   4.643  0.00  0.00    +0.041 A 
ATOM     22  C   UNL     1       0.701  -4.376   4.640  0.00  0.00    +0.158 A 
ATOM     23  C   UNL     1       1.400  -4.326   3.444  0.00  0.00    +0.159 A 
ATOM     24  C   UNL     1       0.721  -4.127   2.254  0.00  0.00    +0.046 A 
ATOM     25  F   UNL     1       2.743  -4.476   3.439  0.00  0.00    -0.202 F 
ATOM     26  F   UNL     1       1.361  -4.574   5.802  0.00  0.00    -0.202 F 
ENDBRANCH   3  19
BRANCH   1  27
ATOM     27  N   UNL     1      -2.820  -0.612  -0.627  0.00  0.00    +0.383 N 
ATOM     28  H   UNL     1      -3.336  -0.320   0.189  0.00  0.00    -0.085 HD
ATOM     29  H   UNL     1      -3.388  -0.477  -1.450  0.00  0.00    -0.085 HD
BRANCH  27  31
ATOM     30  C   UNL     1      -0.863  -0.182  -2.036  0.00  0.00    -0.014 C 
ATOM     31  C   UNL     1      -1.593   0.188  -0.743  0.00  0.00    -0.078 C 
ATOM     32  C   UNL     1      -1.954   1.675  -0.769  0.00  0.00    -0.014 C 
ENDBRANCH  27  31
ENDBRANCH   1  27
BRANCH   5  33
ATOM     33  C   UNL     1      -1.867  -6.632   0.132  0.00  0.00    +0.325 C 
ATOM     34  O   UNL     1      -1.466  -6.005  -0.820  0.00  0.00    -0.249 OA
BRANCH  33  35
ATOM     35  O   UNL     1      -1.804  -7.973   0.128  0.00  0.00    -0.467 OA
ATOM     36  C   UNL     1      -1.251  -8.592  -1.035  0.00  0.00    +0.280 C 
ENDBRANCH  33  35
ENDBRANCH   5  33
TORSDOF 5
