REMARK  Name = ZINC67271121
REMARK  10 active torsions:
REMARK  status: ('A' for Active; 'I' for Inactive)
REMARK    1  A    between atoms: C_1  and  C_2
REMARK    2  A    between atoms: C_3  and  C_13
REMARK    3  A    between atoms: C_4  and  C_12
REMARK    4  A    between atoms: C_13  and  C_14
REMARK    5  A    between atoms: C_14  and  C_15
REMARK    6  A    between atoms: N_17  and  C_18
REMARK    7  A    between atoms: C_18  and  C_19
REMARK    8  A    between atoms: C_19  and  C_21
REMARK    9  A    between atoms: C_19  and  N_22
REMARK   10  A    between atoms: C_25  and  C_28
REMARK                            x       y       z     vdW  Elec       q    Type
REMARK                         _______ _______ _______ _____ _____    ______ ____
ROOT
ATOM      1  C   UNL     1      -2.229   1.038   2.072  0.00  0.00    +0.100 C 
ENDROOT
BRANCH   1   2
ATOM      2  C   UNL     1      -3.648   1.503   1.867  0.00  0.00    +0.213 C 
ATOM      3  O   UNL     1      -4.103   1.586   0.746  0.00  0.00    -0.276 OA
ATOM      4  N   UNL     1      -4.411   1.826   2.930  0.00  0.00    -0.317 N 
ATOM      5  H   UNL     1      -4.047   1.759   3.827  0.00  0.00    +0.149 HD
BRANCH   4   6
ATOM      6  C   UNL     1      -5.790   2.278   2.732  0.00  0.00    +0.088 C 
BRANCH   6   7
ATOM      7  C   UNL     1      -6.471   2.449   4.091  0.00  0.00    -0.054 C 
ATOM      8  C   UNL     1      -7.940   2.825   3.882  0.00  0.00    -0.012 C 
BRANCH   7   9
ATOM      9  N   UNL     1      -6.390   1.189   4.842  0.00  0.00    +0.382 N 
ATOM     10  C   UNL     1      -6.916   1.394   6.197  0.00  0.00    -0.078 C 
ATOM     11  C   UNL     1      -6.759   0.107   7.009  0.00  0.00    -0.016 C 
ATOM     12  C   UNL     1      -7.537  -1.020   6.323  0.00  0.00    -0.018 C 
ATOM     13  C   UNL     1      -7.031  -1.175   4.886  0.00  0.00    -0.016 C 
ATOM     14  C   UNL     1      -7.177   0.160   4.153  0.00  0.00    -0.078 C 
ATOM     15  C   UNL     1      -7.320  -2.329   7.086  0.00  0.00    +0.007 C 
ATOM     16  H   UNL     1      -5.427   0.894   4.898  0.00  0.00    -0.081 HD
ENDBRANCH   7   9
ENDBRANCH   6   7
ENDBRANCH   4   6
ENDBRANCH   1   2
BRANCH   1  17
ATOM     17  C   UNL     1      -1.590   0.738   0.714  0.00  0.00    +0.048 C 
BRANCH  17  20
ATOM     18  C   UNL     1       0.565   2.678   0.982  0.00  0.00    +0.066 C 
ATOM     19  C   UNL     1       0.867   1.203   1.048  0.00  0.00    +0.047 A 
ATOM     20  C   UNL     1      -0.171   0.273   0.919  0.00  0.00    -0.005 A 
ATOM     21  C   UNL     1       0.115  -1.054   0.980  0.00  0.00    +0.048 A 
ATOM     22  N   UNL     1       1.403  -1.442   1.166  0.00  0.00    -0.199 N 
ATOM     23  C   UNL     1       2.394  -0.509   1.288  0.00  0.00    +0.255 A 
ATOM     24  N   UNL     1       2.104   0.795   1.221  0.00  0.00    -0.216 NA
ATOM     25  N   UNL     1       3.537  -1.165   1.458  0.00  0.00    -0.176 NA
ATOM     26  C   UNL     1       3.309  -2.475   1.449  0.00  0.00    +0.234 A 
ATOM     27  N   UNL     1       2.022  -2.695   1.273  0.00  0.00    -0.128 NA
ATOM     28  N   UNL     1       4.279  -3.462   1.600  0.00  0.00    -0.326 N 
ATOM     29  C   UNL     1      -0.981  -2.079   0.845  0.00  0.00    +0.066 C 
ATOM     30  H   UNL     1       5.208  -3.213   1.726  0.00  0.00    +0.145 HD
ATOM     31  H   UNL     1       4.027  -4.398   1.581  0.00  0.00    +0.145 HD
ENDBRANCH  17  20
ENDBRANCH   1  17
TORSDOF 6
