REMARK  Name = ZINC28048879
REMARK  5 active torsions:
REMARK  status: ('A' for Active; 'I' for Inactive)
REMARK    1  A    between atoms: C_8  and  N_12
REMARK    2  A    between atoms: C_9  and  O_10
REMARK    3  A    between atoms: N_15  and  C_16
REMARK    4  A    between atoms: C_21  and  C_22
REMARK    5  A    between atoms: N_26  and  C_27
REMARK                            x       y       z     vdW  Elec       q    Type
REMARK                         _______ _______ _______ _____ _____    ______ ____
ROOT
ATOM      1  C   UNL     1      -1.208   3.364  -0.963  0.00  0.00    +0.001 A 
ATOM      2  C   UNL     1      -1.335   2.080  -0.454  0.00  0.00    +0.004 A 
ATOM      3  C   UNL     1      -0.232   1.397   0.013  0.00  0.00    +0.047 A 
ATOM      4  C   UNL     1       1.023   1.989  -0.035  0.00  0.00    +0.141 A 
ATOM      5  C   UNL     1       1.153   3.287  -0.555  0.00  0.00    +0.042 A 
ATOM      6  C   UNL     1       0.027   3.970  -1.019  0.00  0.00    +0.013 A 
ATOM      7  C   UNL     1       2.488   3.905  -0.601  0.00  0.00    +0.075 A 
ATOM      8  C   UNL     1       3.558   3.170  -0.124  0.00  0.00    +0.140 A 
ATOM      9  C   UNL     1       3.338   1.876   0.382  0.00  0.00    +0.309 A 
ATOM     10  O   UNL     1       2.113   1.329   0.414  0.00  0.00    -0.424 OA
ATOM     11  N   UNL     1       2.666   5.180  -1.105  0.00  0.00    -0.380 N 
ATOM     12  H   UNL     1       2.691   6.043  -0.422  0.00  0.00    +0.160 HD
ENDROOT
BRANCH   8  13
ATOM     13  N   UNL     1       4.856   3.712  -0.144  0.00  0.00    -0.262 N 
ATOM     14  C   UNL     1       5.915   2.917  -0.394  0.00  0.00    +0.308 C 
ATOM     15  O   UNL     1       5.744   1.742  -0.657  0.00  0.00    -0.252 OA
ATOM     16  N   UNL     1       7.163   3.423  -0.352  0.00  0.00    -0.269 N 
ATOM     17  H   UNL     1       5.007   4.785   0.044  0.00  0.00    +0.157 HD
ATOM     18  H   UNL     1       7.325   4.462  -0.027  0.00  0.00    +0.156 HD
BRANCH  16  19
ATOM     19  C   UNL     1       8.254   2.628  -0.721  0.00  0.00    +0.046 A 
ATOM     20  C   UNL     1       8.071   1.552  -1.581  0.00  0.00    +0.024 A 
ATOM     21  C   UNL     1       9.150   0.773  -1.948  0.00  0.00    +0.002 A 
ATOM     22  C   UNL     1      10.410   1.055  -1.452  0.00  0.00    +0.001 A 
ATOM     23  C   UNL     1      10.594   2.122  -0.591  0.00  0.00    +0.014 A 
ATOM     24  C   UNL     1       9.520   2.909  -0.225  0.00  0.00    +0.076 A 
BRANCH  24  25
ATOM     25  C   UNL     1       9.721   4.071   0.714  0.00  0.00    +0.419 C 
ATOM     26  F   UNL     1      11.070   4.150   1.075  0.00  0.00    -0.166 F 
ATOM     27  F   UNL     1       9.337   5.256   0.078  0.00  0.00    -0.166 F 
ATOM     28  F   UNL     1       8.942   3.884   1.861  0.00  0.00    -0.166 F 
ENDBRANCH  24  25
ENDBRANCH  16  19
ENDBRANCH   8  13
BRANCH  11  29
ATOM     29  C   UNL     1       2.800   5.154  -2.567  0.00  0.00    +0.079 C 
ATOM     30  C   UNL     1       4.253   4.817  -2.959  0.00  0.00    +0.024 C 
ATOM     31  C   UNL     1       4.521   5.691  -4.211  0.00  0.00    +0.002 C 
ATOM     32  C   UNL     1       3.779   7.009  -3.873  0.00  0.00    +0.002 C 
ATOM     33  C   UNL     1       2.498   6.547  -3.149  0.00  0.00    +0.024 C 
ENDBRANCH  11  29
BRANCH   9  34
ATOM     34  O   UNL     1       4.285   1.234   0.801  0.00  0.00    -0.479 OA
ATOM     35  H   UNL     1       4.130   0.221   1.199  0.00  0.00    +0.295 HD
ENDBRANCH   9  34
TORSDOF 5
