REMARK  Name = ZINC35173425
REMARK  12 active torsions:
REMARK  status: ('A' for Active; 'I' for Inactive)
REMARK    1  A    between atoms: C_1  and  O_2
REMARK    2  A    between atoms: O_2  and  C_3
REMARK    3  A    between atoms: C_5  and  C_11
REMARK    4  A    between atoms: C_7  and  O_9
REMARK    5  A    between atoms: O_9  and  C_10
REMARK    6  A    between atoms: N_21  and  C_22
REMARK    7  A    between atoms: C_22  and  C_23
REMARK    8  A    between atoms: N_25  and  C_26
REMARK    9  A    between atoms: C_26  and  C_27
REMARK   10  A    between atoms: C_27  and  C_28
REMARK   11  A    between atoms: C_28  and  C_29
REMARK   12  A    between atoms: C_28  and  C_35
REMARK                            x       y       z     vdW  Elec       q    Type
REMARK                         _______ _______ _______ _____ _____    ______ ____
ROOT
ATOM      1  C   UNL     1      -3.769  -6.652   0.094  0.00  0.00    +0.011 C 
ATOM      2  C   UNL     1      -4.478  -7.300  -1.071  0.00  0.00    +0.009 A 
ATOM      3  C   UNL     1      -4.298  -7.010  -2.374  0.00  0.00    +0.021 A 
ATOM      4  C   UNL     1      -5.145  -7.857  -3.116  0.00  0.00    +0.019 A 
ATOM      5  C   UNL     1      -5.814  -8.631  -2.237  0.00  0.00    +0.086 A 
ATOM      6  N   UNL     1      -5.416  -8.289  -0.980  0.00  0.00    -0.352 N 
ATOM      7  C   UNL     1      -5.910  -8.864   0.277  0.00  0.00    +0.119 C 
ATOM      8  C   UNL     1      -4.716  -9.176   1.184  0.00  0.00    +0.003 C 
ATOM      9  C   UNL     1      -4.374  -7.951   2.024  0.00  0.00    -0.075 C 
ATOM     10  N   UNL     1      -4.630  -6.715   1.282  0.00  0.00    +0.394 N 
ATOM     11  H   UNL     1      -5.598  -6.691   0.997  0.00  0.00    -0.080 HD
ENDROOT
BRANCH   1  14
ATOM     12  C   UNL     1      -4.233  -3.015  -0.826  0.00  0.00    +0.124 A 
ATOM     13  C   UNL     1      -4.505  -4.342  -0.521  0.00  0.00    +0.048 A 
ATOM     14  C   UNL     1      -3.471  -5.213  -0.237  0.00  0.00    -0.048 A 
ATOM     15  C   UNL     1      -2.163  -4.766  -0.254  0.00  0.00    +0.048 A 
ATOM     16  C   UNL     1      -1.886  -3.440  -0.558  0.00  0.00    +0.124 A 
ATOM     17  C   UNL     1      -2.922  -2.566  -0.850  0.00  0.00    +0.091 A 
BRANCH  12  19
ATOM     18  C   UNL     1      -4.896  -0.810  -1.416  0.00  0.00    +0.277 C 
ATOM     19  O   UNL     1      -5.250  -2.159  -1.105  0.00  0.00    -0.495 OA
ENDBRANCH  12  19
BRANCH  16  20
ATOM     20  O   UNL     1      -0.600  -3.001  -0.575  0.00  0.00    -0.495 OA
ATOM     21  C   UNL     1      -0.389  -1.625  -0.896  0.00  0.00    +0.277 C 
ENDBRANCH  16  20
ENDBRANCH   1  14
BRANCH  10  22
ATOM     22  C   UNL     1      -4.351  -5.561   2.147  0.00  0.00    +0.020 C 
BRANCH  22  23
ATOM     23  C   UNL     1      -5.341  -5.533   3.284  0.00  0.00    +0.196 C 
ATOM     24  O   UNL     1      -6.195  -6.391   3.365  0.00  0.00    -0.278 OA
ATOM     25  N   UNL     1      -5.277  -4.556   4.210  0.00  0.00    -0.317 N 
ATOM     26  H   UNL     1      -4.595  -3.870   4.145  0.00  0.00    +0.149 HD
BRANCH  25  27
ATOM     27  C   UNL     1      -6.239  -4.530   5.314  0.00  0.00    +0.105 C 
BRANCH  27  28
ATOM     28  C   UNL     1      -5.949  -3.328   6.215  0.00  0.00    +0.031 C 
BRANCH  28  29
ATOM     29  C   UNL     1      -6.954  -3.300   7.369  0.00  0.00    +0.050 C 
BRANCH  29  30
ATOM     30  C   UNL     1      -6.749  -4.511   8.242  0.00  0.00    -0.040 A 
ATOM     31  C   UNL     1      -7.817  -5.337   8.539  0.00  0.00    +0.004 A 
ATOM     32  C   UNL     1      -7.630  -6.448   9.340  0.00  0.00    +0.000 A 
ATOM     33  C   UNL     1      -6.375  -6.734   9.843  0.00  0.00    +0.000 A 
ATOM     34  C   UNL     1      -5.306  -5.909   9.544  0.00  0.00    +0.000 A 
ATOM     35  C   UNL     1      -5.493  -4.800   8.740  0.00  0.00    +0.004 A 
ENDBRANCH  29  30
BRANCH  29  36
ATOM     36  C   UNL     1      -6.746  -2.051   8.186  0.00  0.00    -0.040 A 
ATOM     37  C   UNL     1      -5.483  -1.728   8.646  0.00  0.00    +0.004 A 
ATOM     38  C   UNL     1      -5.293  -0.582   9.395  0.00  0.00    +0.000 A 
ATOM     39  C   UNL     1      -6.365   0.241   9.685  0.00  0.00    +0.000 A 
ATOM     40  C   UNL     1      -7.628  -0.082   9.224  0.00  0.00    +0.000 A 
ATOM     41  C   UNL     1      -7.818  -1.226   8.471  0.00  0.00    +0.004 A 
ENDBRANCH  29  36
ENDBRANCH  28  29
ENDBRANCH  27  28
ENDBRANCH  25  27
ENDBRANCH  22  23
ENDBRANCH  10  22
TORSDOF 10
