REMARK  Name = ZINC23431088
REMARK  10 active torsions:
REMARK  status: ('A' for Active; 'I' for Inactive)
REMARK    1  A    between atoms: C_1  and  C_2
REMARK    2  A    between atoms: C_2  and  C_3
REMARK    3  A    between atoms: C_10  and  C_12
REMARK    4  A    between atoms: C_15  and  S_18
REMARK    5  A    between atoms: N_16  and  C_17
REMARK    6  A    between atoms: S_18  and  C_19
REMARK    7  A    between atoms: C_19  and  C_21
REMARK    8  A    between atoms: C_19  and  C_22
REMARK    9  A    between atoms: N_24  and  C_25
REMARK   10  A    between atoms: C_28  and  C_31
REMARK                            x       y       z     vdW  Elec       q    Type
REMARK                         _______ _______ _______ _____ _____    ______ ____
ROOT
ATOM      1  S   UNL     1       1.719   3.441  -0.399  0.00  0.00    -0.074 S 
ENDROOT
BRANCH   1   5
ATOM      2  C   UNL     1       1.275  -0.443  -0.379  0.00  0.00    +0.171 A 
ATOM      3  N   UNL     1       0.050  -0.009  -0.177  0.00  0.00    -0.128 NA
ATOM      4  N   UNL     1       0.037   1.276  -0.158  0.00  0.00    -0.122 NA
ATOM      5  C   UNL     1       1.250   1.743  -0.346  0.00  0.00    +0.192 A 
ATOM      6  N   UNL     1       2.082   0.668  -0.493  0.00  0.00    -0.305 N 
ATOM      7  C   UNL     1       3.528   0.691  -0.724  0.00  0.00    +0.153 C 
BRANCH   2  14
ATOM      8  C   UNL     1       1.662  -6.687  -0.438  0.00  0.00    -0.007 C 
ATOM      9  C   UNL     1       3.014  -6.624  -1.154  0.00  0.00    +0.009 C 
ATOM     10  C   UNL     1       3.811  -5.433  -0.598  0.00  0.00    +0.043 C 
ATOM     11  C   UNL     1       2.913  -4.239  -0.571  0.00  0.00    -0.006 A 
ATOM     12  C   UNL     1       1.554  -4.219  -0.694  0.00  0.00    -0.036 A 
ATOM     13  C   UNL     1       0.941  -2.974  -0.633  0.00  0.00    +0.023 A 
ATOM     14  C   UNL     1       1.702  -1.848  -0.467  0.00  0.00    +0.057 A 
ATOM     15  S   UNL     1       3.350  -2.532  -0.376  0.00  0.00    -0.090 S 
ATOM     16  C   UNL     1       0.780  -5.520  -0.882  0.00  0.00    +0.039 C 
BRANCH   8  18
ATOM     17  C   UNL     1      -0.317  -8.136   0.040  0.00  0.00    +0.004 C 
ATOM     18  C   UNL     1       0.968  -8.007  -0.781  0.00  0.00    +0.000 C 
ENDBRANCH   8  18
ENDBRANCH   2  14
ENDBRANCH   1   5
BRANCH   1  19
ATOM     19  C   UNL     1       0.108   4.221  -0.129  0.00  0.00    +0.137 C 
ATOM     20  C   UNL     1      -0.399   3.873   1.272  0.00  0.00    +0.029 C 
BRANCH  19  21
ATOM     21  C   UNL     1       0.246   5.716  -0.257  0.00  0.00    +0.230 C 
ATOM     22  O   UNL     1       1.335   6.236  -0.142  0.00  0.00    -0.274 OA
ATOM     23  N   UNL     1      -0.842   6.474  -0.499  0.00  0.00    -0.285 N 
ATOM     24  H   UNL     1      -1.814   5.997  -0.689  0.00  0.00    +0.155 HD
BRANCH  23  25
ATOM     25  C   UNL     1      -0.734   7.865  -0.508  0.00  0.00    +0.033 A 
ATOM     26  C   UNL     1       0.164   8.497   0.347  0.00  0.00    +0.024 A 
ATOM     27  C   UNL     1       0.276   9.869   0.338  0.00  0.00    +0.015 A 
ATOM     28  C   UNL     1      -0.520  10.627  -0.525  0.00  0.00    +0.037 A 
ATOM     29  C   UNL     1      -1.424   9.990  -1.378  0.00  0.00    +0.015 A 
ATOM     30  C   UNL     1      -1.528   8.617  -1.367  0.00  0.00    +0.024 A 
BRANCH  28  31
ATOM     31  C   UNL     1      -0.406  12.099  -0.534  0.00  0.00    +0.242 C 
ATOM     32  O   UNL     1      -1.099  12.758  -1.285  0.00  0.00    -0.270 OA
ATOM     33  N   UNL     1       0.467  12.713   0.290  0.00  0.00    -0.325 N 
ATOM     34  H   UNL     1       0.552  13.809   0.283  0.00  0.00    +0.145 HD
ATOM     35  H   UNL     1       1.094  12.117   0.969  0.00  0.00    +0.145 HD
ENDBRANCH  28  31
ENDBRANCH  23  25
ENDBRANCH  19  21
ENDBRANCH   1  19
TORSDOF 7
