REMARK  Name = ZINC62586690
REMARK  12 active torsions:
REMARK  status: ('A' for Active; 'I' for Inactive)
REMARK    1  A    between atoms: C_1  and  C_2
REMARK    2  A    between atoms: C_2  and  C_3
REMARK    3  A    between atoms: N_5  and  C_6
REMARK    4  A    between atoms: C_10  and  N_12
REMARK    5  A    between atoms: C_13  and  C_15
REMARK    6  A    between atoms: N_17  and  C_18
REMARK    7  A    between atoms: C_18  and  C_19
REMARK    8  A    between atoms: C_18  and  C_20
REMARK    9  A    between atoms: C_20  and  C_21
REMARK   10  A    between atoms: C_21  and  N_22
REMARK   11  A    between atoms: N_22  and  C_23
REMARK   12  A    between atoms: N_22  and  C_24
REMARK                            x       y       z     vdW  Elec       q    Type
REMARK                         _______ _______ _______ _____ _____    ______ ____
ROOT
ATOM      1  N   UNL     1      -4.411  -5.699   0.260  0.00  0.00    -0.276 N 
ATOM      2  C   UNL     1      -3.320  -6.486   0.338  0.00  0.00    +0.303 C 
ATOM      3  O   UNL     1      -2.212  -5.995   0.269  0.00  0.00    -0.265 OA
ATOM      4  H   UNL     1      -5.296  -6.096   0.248  0.00  0.00    +0.155 HD
ENDROOT
BRANCH   1   9
ATOM      5  C   UNL     1      -3.049  -2.374  -0.536  0.00  0.00    +0.035 A 
ATOM      6  C   UNL     1      -3.991  -1.554   0.074  0.00  0.00    +0.025 A 
ATOM      7  C   UNL     1      -5.065  -2.111   0.742  0.00  0.00    +0.023 A 
ATOM      8  C   UNL     1      -5.207  -3.484   0.805  0.00  0.00    +0.062 A 
ATOM      9  C   UNL     1      -4.268  -4.310   0.196  0.00  0.00    +0.054 A 
ATOM     10  C   UNL     1      -3.191  -3.753  -0.480  0.00  0.00    +0.048 A 
ATOM     11 CL   UNL     1      -6.558  -4.179   1.645  0.00  0.00    -0.082 Cl
BRANCH   5  14
ATOM     12  C   UNL     1      -1.395  -0.677  -0.748  0.00  0.00    +0.217 C 
ATOM     13  O   UNL     1      -1.878  -0.103   0.205  0.00  0.00    -0.275 OA
ATOM     14  N   UNL     1      -1.961  -1.809  -1.211  0.00  0.00    -0.285 N 
ATOM     15  H   UNL     1      -1.615  -2.232  -2.013  0.00  0.00    +0.155 HD
BRANCH  12  17
ATOM     16  C   UNL     1       0.275   1.155  -0.699  0.00  0.00    +0.013 C 
ATOM     17  C   UNL     1      -0.161  -0.125  -1.414  0.00  0.00    +0.093 C 
ENDBRANCH  12  17
ENDBRANCH   5  14
ENDBRANCH   1   9
BRANCH   2  18
ATOM     18  C   UNL     1      -3.474  -7.962   0.509  0.00  0.00    +0.300 C 
ATOM     19  O   UNL     1      -4.582  -8.452   0.578  0.00  0.00    -0.265 OA
ATOM     20  N   UNL     1      -2.383  -8.749   0.587  0.00  0.00    -0.305 N 
ATOM     21  H   UNL     1      -1.498  -8.357   0.532  0.00  0.00    +0.149 HD
BRANCH  20  22
ATOM     22  C   UNL     1      -2.535 -10.196   0.755  0.00  0.00    +0.069 C 
ATOM     23  C   UNL     1      -2.728 -10.851  -0.614  0.00  0.00    +0.028 C 
BRANCH  22  24
ATOM     24  C   UNL     1      -1.280 -10.766   1.420  0.00  0.00    +0.003 C 
BRANCH  24  25
ATOM     25  C   UNL     1      -1.155 -10.206   2.838  0.00  0.00    -0.078 C 
BRANCH  25  26
ATOM     26  N   UNL     1       0.049 -10.753   3.476  0.00  0.00    +0.376 N 
ATOM     27  C   UNL     1       0.235 -10.124   4.791  0.00  0.00    -0.097 C 
ATOM     28  C   UNL     1      -0.103 -12.204   3.645  0.00  0.00    -0.097 C 
ATOM     29  H   UNL     1       0.853 -10.564   2.896  0.00  0.00    -0.083 HD
ENDBRANCH  25  26
ENDBRANCH  24  25
ENDBRANCH  22  24
ENDBRANCH  20  22
ENDBRANCH   2  18
TORSDOF 8
