REMARK  Name = ZINC51662746
REMARK  9 active torsions:
REMARK  status: ('A' for Active; 'I' for Inactive)
REMARK    1  A    between atoms: C_1  and  C_2
REMARK    2  A    between atoms: C_3  and  C_4
REMARK    3  A    between atoms: C_4  and  N_5
REMARK    4  A    between atoms: N_8  and  CA_9
REMARK    5  A    between atoms: CA_9  and  CB_11
REMARK    6  A    between atoms: CA_9  and  C_15
REMARK    7  A    between atoms: CB_11  and  CG_12
REMARK    8  A    between atoms: CG_12  and  CD1_13
REMARK    9  A    between atoms: CG_12  and  CD2_14
REMARK                            x       y       z     vdW  Elec       q    Type
REMARK                         _______ _______ _______ _____ _____    ______ ____
ROOT
ATOM      1  N   UNK A   0      -1.336  -3.157  -0.002  0.00  0.00    -0.289 N 
ATOM      2  C   UNK A   0      -1.565  -4.485  -0.007  0.00  0.00    +0.301 C 
ATOM      3  O   UNK A   0      -0.630  -5.263  -0.020  0.00  0.00    -0.253 OA
ATOM      4  N   LEU A   1      -2.829  -4.952   0.003  0.00  0.00    -0.286 N 
ATOM      5  H   UNK A   0      -2.082  -2.537   0.008  0.00  0.00    +0.151 HD
ATOM      6  H   LEU A   1      -3.575  -4.331   0.013  0.00  0.00    +0.151 HD
ENDROOT
BRANCH   1   7
ATOM      7  C   UNK A   0       0.038  -2.650  -0.013  0.00  0.00    +0.195 C 
BRANCH   7  10
ATOM      8  C   UNK A   0      -0.018   1.468   0.010  0.00  0.00    +0.106 C 
ATOM      9  C   UNK A   0       0.002  -0.004   0.002  0.00  0.00    -0.104 C 
ATOM     10  C   UNK A   0       0.018  -1.178  -0.004  0.00  0.00    -0.083 C 
ENDBRANCH   7  10
ENDBRANCH   1   7
BRANCH   4  11
ATOM     11  CA  LEU A   1      -3.077  -6.396  -0.003  0.00  0.00    +0.188 C 
BRANCH  11  12
ATOM     12  C   LEU A   1      -3.027  -6.919   1.409  0.00  0.00    +0.376 C 
ATOM     13  O   LEU A   1      -2.987  -6.141   2.347  0.00  0.00    -0.244 OA
ATOM     14  OXT LEU A   1      -3.026  -8.121   1.614  0.00  0.00    -0.244 OA
ENDBRANCH  11  12
BRANCH  11  15
ATOM     15  CB  LEU A   1      -4.458  -6.673  -0.601  0.00  0.00    +0.037 C 
BRANCH  15  16
ATOM     16  CG  LEU A   1      -4.470  -6.255  -2.073  0.00  0.00    -0.015 C 
ATOM     17  CD1 LEU A   1      -3.502  -7.139  -2.862  0.00  0.00    +0.007 C 
ATOM     18  CD2 LEU A   1      -5.883  -6.416  -2.637  0.00  0.00    +0.007 C 
ENDBRANCH  15  16
ENDBRANCH  11  15
ENDBRANCH   4  11
TORSDOF 6
