REMARK  Name = ZINC44737032
REMARK  10 active torsions:
REMARK  status: ('A' for Active; 'I' for Inactive)
REMARK    1  A    between atoms: C_1  and  C_2
REMARK    2  A    between atoms: C_9  and  C_11
REMARK    3  A    between atoms: C_11  and  C_13
REMARK    4  A    between atoms: C_11  and  N_14
REMARK    5  A    between atoms: C_15  and  C_17
REMARK    6  A    between atoms: C_28  and  C_30
REMARK    7  A    between atoms: C_32  and  O_38
REMARK    8  A    between atoms: C_34  and  O_36
REMARK    9  A    between atoms: O_36  and  C_37
REMARK   10  A    between atoms: O_38  and  C_39
REMARK                            x       y       z     vdW  Elec       q    Type
REMARK                         _______ _______ _______ _____ _____    ______ ____
ROOT
ATOM      1  C   UNL     1      -1.826  -9.078   0.414  0.00  0.00    +0.100 C 
ATOM      2  C   UNL     1      -0.531  -9.459  -0.337  0.00  0.00    +0.121 C 
ATOM      3  N   UNL     1      -0.008 -10.639   0.391  0.00  0.00    -0.296 N 
ATOM      4  C   UNL     1      -1.217 -11.429   0.728  0.00  0.00    +0.115 C 
ATOM      5  C   UNL     1      -2.275 -10.374   1.109  0.00  0.00    -0.004 C 
ATOM      6  C   UNL     1      -3.650 -10.798   0.600  0.00  0.00    -0.010 C 
ATOM      7  C   UNL     1      -4.100 -12.056   1.347  0.00  0.00    -0.082 C 
ATOM      8  N   UNL     1      -4.154 -11.780   2.788  0.00  0.00    +0.379 N 
ATOM      9  C   UNL     1      -2.810 -11.464   3.287  0.00  0.00    -0.082 C 
ATOM     10  C   UNL     1      -2.305 -10.180   2.622  0.00  0.00    -0.010 C 
ATOM     11  C   UNL     1       1.276 -10.928   0.682  0.00  0.00    +0.247 C 
ATOM     12  O   UNL     1       2.150 -10.117   0.448  0.00  0.00    -0.270 OA
ATOM     13  H   UNL     1      -4.766 -10.996   2.956  0.00  0.00    -0.086 HD
ATOM     14  H   UNL     1      -4.509 -12.591   3.272  0.00  0.00    -0.086 HD
ENDROOT
BRANCH  11  15
ATOM     15  C   UNL     1       1.621 -12.234   1.285  0.00  0.00    +0.044 A 
ATOM     16  C   UNL     1       0.747 -13.314   1.161  0.00  0.00    +0.059 A 
ATOM     17  C   UNL     1       1.074 -14.535   1.727  0.00  0.00    +0.124 A 
ATOM     18  C   UNL     1       2.269 -14.684   2.416  0.00  0.00    +0.091 A 
ATOM     19  C   UNL     1       3.141 -13.613   2.542  0.00  0.00    +0.124 A 
ATOM     20  C   UNL     1       2.824 -12.390   1.974  0.00  0.00    +0.059 A 
BRANCH  19  21
ATOM     21  O   UNL     1       4.310 -13.764   3.218  0.00  0.00    -0.495 OA
ATOM     22  C   UNL     1       4.575 -15.054   3.773  0.00  0.00    +0.277 C 
ENDBRANCH  19  21
BRANCH  17  23
ATOM     23  O   UNL     1       0.224 -15.588   1.607  0.00  0.00    -0.495 OA
ATOM     24  C   UNL     1       0.624 -16.818   2.216  0.00  0.00    +0.277 C 
ENDBRANCH  17  23
ENDBRANCH  11  15
BRANCH   1  26
ATOM     25  N   UNL     1      -2.538  -7.199   1.856  0.00  0.00    -0.305 N 
ATOM     26  C   UNL     1      -1.545  -8.006   1.435  0.00  0.00    +0.219 C 
ATOM     27  O   UNL     1      -0.424  -7.870   1.879  0.00  0.00    -0.275 OA
ATOM     28  H   UNL     1      -3.435  -7.307   1.502  0.00  0.00    +0.149 HD
BRANCH  25  29
ATOM     29  C   UNL     1      -2.265  -6.156   2.849  0.00  0.00    +0.136 C 
ATOM     30  C   UNL     1      -1.744  -4.903   2.143  0.00  0.00    +0.036 C 
BRANCH  29  39
ATOM     31  C   UNL     1      -7.712  -4.120   7.492  0.00  0.00    +0.044 C 
ATOM     32  C   UNL     1      -6.976  -4.638   6.284  0.00  0.00    -0.048 A 
ATOM     33  C   UNL     1      -7.691  -5.084   5.181  0.00  0.00    +0.005 A 
ATOM     34  C   UNL     1      -7.042  -5.558   4.076  0.00  0.00    +0.030 A 
ATOM     35  C   UNL     1      -5.646  -5.594   4.050  0.00  0.00    +0.089 A 
ATOM     36  C   UNL     1      -4.922  -5.141   5.166  0.00  0.00    +0.067 A 
ATOM     37  C   UNL     1      -5.598  -4.659   6.279  0.00  0.00    +0.031 A 
ATOM     38  N   UNL     1      -3.588  -5.300   4.845  0.00  0.00    -0.340 N 
ATOM     39  C   UNL     1      -3.534  -5.824   3.591  0.00  0.00    +0.128 A 
ATOM     40  N   UNL     1      -4.736  -5.996   3.125  0.00  0.00    -0.231 NA
ATOM     41  H   UNL     1      -2.831  -5.078   5.409  0.00  0.00    +0.167 HD
ENDBRANCH  29  39
ENDBRANCH  25  29
ENDBRANCH   1  26
TORSDOF 6
