REMARK  Name = ZINC35367922
REMARK  2 active torsions:
REMARK  status: ('A' for Active; 'I' for Inactive)
REMARK    1  A    between atoms: C_3  and  N_21
REMARK    2  A    between atoms: C_13  and  C_15
REMARK                            x       y       z     vdW  Elec       q    Type
REMARK                         _______ _______ _______ _____ _____    ______ ____
ROOT
ATOM      1  C   UNL     1       0.296   1.248  -1.392  0.00  0.00    +0.019 A 
ATOM      2  C   UNL     1       0.911   0.647  -2.482  0.00  0.00    +0.027 A 
ATOM      3  C   UNL     1       2.046  -0.120  -2.261  0.00  0.00    +0.063 A 
ATOM      4  C   UNL     1       2.526  -0.259  -0.956  0.00  0.00    +0.120 A 
ATOM      5  N   UNL     1       1.907   0.332   0.053  0.00  0.00    -0.348 N 
ATOM      6  C   UNL     1       0.826   1.067  -0.131  0.00  0.00    +0.084 A 
ATOM      7  N   UNL     1       3.663  -1.026  -0.715  0.00  0.00    -0.312 N 
ATOM      8  C   UNL     1       4.990  -0.397  -0.657  0.00  0.00    +0.125 C 
ATOM      9  C   UNL     1       5.644  -0.756   0.684  0.00  0.00    +0.127 C 
ATOM     10  N   UNL     1       5.538  -2.208   0.884  0.00  0.00    -0.292 N 
ATOM     11  C   UNL     1       4.211  -2.837   0.825  0.00  0.00    +0.127 C 
ATOM     12  C   UNL     1       3.557  -2.477  -0.510  0.00  0.00    +0.125 C 
ATOM     13  C   UNL     1       6.639  -2.950   1.116  0.00  0.00    +0.282 C 
ATOM     14  O   UNL     1       6.560  -4.164   1.145  0.00  0.00    -0.267 OA
ATOM     15  H   UNL     1       2.257   0.222   0.951  0.00  0.00    +0.167 HD
ENDROOT
BRANCH  13  16
ATOM     16  C   UNL     1       7.932  -2.295   1.335  0.00  0.00    +0.191 A 
ATOM     17  C   UNL     1       9.142  -2.921   1.437  0.00  0.00    +0.056 A 
ATOM     18  C   UNL     1      10.100  -1.917   1.643  0.00  0.00    +0.058 A 
ATOM     19  C   UNL     1       9.441  -0.735   1.658  0.00  0.00    +0.171 A 
ATOM     20  O   UNL     1       8.136  -0.967   1.467  0.00  0.00    -0.444 OA
ATOM     21 BR   UNL     1      10.233   0.965   1.901  0.00  0.00    -0.008 Br
ENDBRANCH  13  16
BRANCH   3  22
ATOM     22  N   UNL     1       2.700  -0.746  -3.329  0.00  0.00    -0.355 N 
ATOM     23  H   UNL     1       2.318  -0.711  -4.220  0.00  0.00    +0.142 HD
ATOM     24  H   UNL     1       3.536  -1.215  -3.178  0.00  0.00    +0.142 HD
ENDBRANCH   3  22
TORSDOF 2
