REMARK  Name = ZINC20557599
REMARK  5 active torsions:
REMARK  status: ('A' for Active; 'I' for Inactive)
REMARK    1  A    between atoms: C_1  and  C_2
REMARK    2  A    between atoms: C_2  and  C_4
REMARK    3  A    between atoms: C_2  and  N_16
REMARK    4  A    between atoms: N_6  and  C_7
REMARK    5  A    between atoms: C_10  and  N_14
REMARK                            x       y       z     vdW  Elec       q    Type
REMARK                         _______ _______ _______ _____ _____    ______ ____
ROOT
ATOM      1  C   UNL     1       0.305   2.119   1.102  0.00  0.00    +0.203 C 
ATOM      2  O   UNL     1       0.754   1.566   2.083  0.00  0.00    -0.277 OA
ATOM      3  N   UNL     1      -0.017   1.398   0.010  0.00  0.00    -0.284 N 
ATOM      4  H   UNL     1      -0.347   1.907  -0.908  0.00  0.00    +0.155 HD
ENDROOT
BRANCH   3   5
ATOM      5  C   UNL     1       0.069  -0.001   0.043  0.00  0.00    +0.070 A 
ATOM      6  C   UNL     1       1.245  -0.634  -0.339  0.00  0.00    +0.065 A 
ATOM      7  C   UNL     1       1.331  -2.013  -0.300  0.00  0.00    +0.044 A 
ATOM      8  C   UNL     1       0.239  -2.766   0.109  0.00  0.00    +0.027 A 
ATOM      9  C   UNL     1      -0.939  -2.134   0.485  0.00  0.00    +0.044 A 
ATOM     10  C   UNL     1      -1.024  -0.755   0.452  0.00  0.00    +0.065 A 
ATOM     11 CL   UNL     1      -2.496   0.036   0.923  0.00  0.00    -0.082 Cl
ATOM     12 CL   UNL     1       2.608   0.307  -0.858  0.00  0.00    -0.082 Cl
BRANCH   8  13
ATOM     13  N   UNL     1       0.325  -4.162   0.143  0.00  0.00    -0.358 N 
ATOM     14  H   UNL     1      -0.541  -4.758   0.467  0.00  0.00    +0.142 HD
ATOM     15  H   UNL     1       1.258  -4.663  -0.154  0.00  0.00    +0.142 HD
ENDBRANCH   8  13
ENDBRANCH   3   5
BRANCH   1  17
ATOM     16  C   UNL     1      -1.373   3.931   0.874  0.00  0.00    -0.004 C 
ATOM     17  C   UNL     1       0.106   3.613   1.104  0.00  0.00    +0.016 C 
BRANCH  17  18
ATOM     18  N   UNL     1       0.528   4.161   2.400  0.00  0.00    +0.388 N 
ATOM     19  C   UNL     1      -0.235   3.563   3.497  0.00  0.00    -0.067 C 
ATOM     20  C   UNL     1       0.502   3.781   4.824  0.00  0.00    +0.050 C 
ATOM     21  S   UNL     1       0.637   5.573   5.116  0.00  0.00    -0.164 S 
ATOM     22  C   UNL     1       1.314   6.186   3.542  0.00  0.00    +0.050 C 
ATOM     23  C   UNL     1       0.461   5.624   2.398  0.00  0.00    -0.067 C 
ATOM     24  H   UNL     1       1.582   3.895   2.569  0.00  0.00    -0.081 HD
ENDBRANCH  17  18
ENDBRANCH   1  17
TORSDOF 4
