REMARK  Name = ZINC20465830
REMARK  11 active torsions:
REMARK  status: ('A' for Active; 'I' for Inactive)
REMARK    1  A    between atoms: C_1  and  N_2
REMARK    2  A    between atoms: N_2  and  C_3
REMARK    3  A    between atoms: N_2  and  C_11
REMARK    4  A    between atoms: C_3  and  C_4
REMARK    5  A    between atoms: C_4  and  C_5
REMARK    6  A    between atoms: C_13  and  C_23
REMARK    7  A    between atoms: C_16  and  C_21
REMARK    8  A    between atoms: C_18  and  O_20
REMARK    9  A    between atoms: C_21  and  O_22
REMARK   10  A    between atoms: C_23  and  N_24
REMARK   11  A    between atoms: N_24  and  C_25
REMARK                            x       y       z     vdW  Elec       q    Type
REMARK                         _______ _______ _______ _____ _____    ______ ____
ROOT
ATOM      1  C   UNL     1       4.820   5.305  -2.982  0.00  0.00    +0.115 C 
ATOM      2  C   UNL     1       6.223   5.871  -2.668  0.00  0.00    +0.122 C 
ATOM      3  O   UNL     1       7.079   4.711  -2.587  0.00  0.00    -0.369 OA
ATOM      4  C   UNL     1       6.648   3.844  -3.658  0.00  0.00    +0.174 C 
ATOM      5  C   UNL     1       5.106   3.941  -3.648  0.00  0.00    +0.165 C 
ENDROOT
BRANCH   1   7
ATOM      6  C   UNL     1       2.688   4.655  -2.036  0.00  0.00    +0.105 C 
ATOM      7  N   UNL     1       4.050   5.122  -1.744  0.00  0.00    -0.297 NA
BRANCH   7   8
ATOM      8  C   UNL     1       4.737   4.202  -0.828  0.00  0.00    +0.089 C 
BRANCH   8   9
ATOM      9  C   UNL     1       4.211   4.411   0.593  0.00  0.00    +0.050 C 
BRANCH   9  10
ATOM     10  C   UNL     1       4.916   3.468   1.534  0.00  0.00    -0.046 A 
ATOM     11  C   UNL     1       6.086   3.859   2.157  0.00  0.00    +0.003 A 
ATOM     12  C   UNL     1       6.732   2.994   3.020  0.00  0.00    +0.000 A 
ATOM     13  C   UNL     1       6.212   1.735   3.255  0.00  0.00    +0.000 A 
ATOM     14  C   UNL     1       5.039   1.345   2.635  0.00  0.00    +0.000 A 
ATOM     15  C   UNL     1       4.393   2.211   1.773  0.00  0.00    +0.003 A 
ENDBRANCH   9  10
ENDBRANCH   8   9
ENDBRANCH   7   8
ENDBRANCH   1   7
BRANCH   5  16
ATOM     16  O   UNL     1       4.543   2.879  -2.877  0.00  0.00    -0.388 OA
ATOM     17  H   UNL     1       4.655   1.837  -3.211  0.00  0.00    +0.210 HD
ENDBRANCH   5  16
BRANCH   4  18
ATOM     18  C   UNL     1       7.093   2.404  -3.393  0.00  0.00    +0.190 C 
BRANCH  18  19
ATOM     19  O   UNL     1       8.513   2.313  -3.522  0.00  0.00    -0.392 OA
ATOM     20  H   UNL     1       9.019   1.349  -3.366  0.00  0.00    +0.210 HD
ENDBRANCH  18  19
ENDBRANCH   4  18
BRANCH   2  21
ATOM     21  C   UNL     1       6.209   6.618  -1.333  0.00  0.00    -0.049 C 
BRANCH  21  22
ATOM     22  N   UNL     1       7.508   7.272  -1.124  0.00  0.00    +0.383 N 
ATOM     23  H   UNL     1       8.303   6.512  -1.111  0.00  0.00    -0.085 HD
ATOM     24  H   UNL     1       7.695   7.985  -1.941  0.00  0.00    -0.085 HD
BRANCH  22  25
ATOM     25  C   UNL     1       7.532   8.000   0.151  0.00  0.00    -0.072 C 
ATOM     26  C   UNL     1       6.935   9.395  -0.047  0.00  0.00    -0.016 C 
ATOM     27  C   UNL     1       6.960  10.154   1.282  0.00  0.00    -0.002 C 
ATOM     28  C   UNL     1       8.405  10.282   1.769  0.00  0.00    -0.000 C 
ATOM     29  C   UNL     1       9.001   8.887   1.967  0.00  0.00    -0.002 C 
ATOM     30  C   UNL     1       8.977   8.128   0.639  0.00  0.00    -0.016 C 
ENDBRANCH  22  25
ENDBRANCH  21  22
ENDBRANCH   2  21
TORSDOF 10
