REMARK  Name = ZINC12531704
REMARK  12 active torsions:
REMARK  status: ('A' for Active; 'I' for Inactive)
REMARK    1  A    between atoms: C_1  and  C_2
REMARK    2  A    between atoms: C_7  and  N_76
REMARK    3  A    between atoms: C_10  and  N_76
REMARK    4  A    between atoms: C_13  and  C_34
REMARK    5  A    between atoms: C_13  and  C_35
REMARK    6  A    between atoms: C_16  and  C_23
REMARK    7  A    between atoms: C_19  and  C_21
REMARK    8  A    between atoms: C_19  and  O_22
REMARK    9  A    between atoms: C_23  and  C_24
REMARK   10  A    between atoms: C_24  and  C_25
REMARK   11  A    between atoms: N_27  and  C_28
REMARK   12  A    between atoms: C_28  and  C_29
REMARK                            x       y       z     vdW  Elec       q    Type
REMARK                         _______ _______ _______ _____ _____    ______ ____
ROOT
ATOM      1  C   UNL     1      -0.445  -0.287   3.450  0.00  0.00    -0.064 C 
ATOM      2  C   UNL     1      -1.772  -0.999   3.753  0.00  0.00    -0.009 C 
ATOM      3  C   UNL     1      -2.893  -0.063   3.252  0.00  0.00    -0.033 C 
ATOM      4  C   UNL     1      -2.242   0.890   2.263  0.00  0.00    +0.002 C 
ATOM      5  C   UNL     1      -0.742   0.706   2.303  0.00  0.00    -0.038 C 
ATOM      6  C   UNL     1      -0.127   0.152   1.031  0.00  0.00    +0.008 C 
ATOM      7  C   UNL     1      -0.731   0.758  -0.223  0.00  0.00    +0.035 C 
ATOM      8  C   UNL     1      -2.237   0.499  -0.265  0.00  0.00    +0.064 C 
ATOM      9  C   UNL     1      -2.905   1.118   0.951  0.00  0.00    +0.039 C 
ATOM     10  C   UNL     1      -2.519  -1.001  -0.350  0.00  0.00    +0.041 C 
ATOM     11  C   UNL     1      -3.452   0.732   4.443  0.00  0.00    +0.011 C 
ATOM     12  C   UNL     1      -4.012  -0.906   2.647  0.00  0.00    +0.011 C 
ENDROOT
BRANCH   1  13
ATOM     13  N   UNL     1       0.043   0.440   4.639  0.00  0.00    +0.383 N 
ATOM     14  H   UNL     1       0.695   1.175   4.343  0.00  0.00    -0.085 HD
ATOM     15  H   UNL     1      -0.755   0.866   5.126  0.00  0.00    -0.085 HD
BRANCH  13  22
ATOM     16  C   UNL     1       5.257  -1.273   7.499  0.00  0.00    +0.109 C 
ATOM     17  C   UNL     1       3.903  -1.031   8.114  0.00  0.00    +0.212 C 
ATOM     18  O   UNL     1       3.816  -0.699   9.277  0.00  0.00    -0.276 OA
ATOM     19  N   UNL     1       2.789  -1.185   7.372  0.00  0.00    -0.302 N 
ATOM     20  C   UNL     1       2.869  -1.706   6.000  0.00  0.00    +0.106 C 
ATOM     21  C   UNL     1       2.162  -0.726   5.058  0.00  0.00    +0.003 C 
ATOM     22  C   UNL     1       0.735  -0.484   5.557  0.00  0.00    -0.069 C 
ATOM     23  C   UNL     1       0.780   0.136   6.955  0.00  0.00    +0.003 C 
ATOM     24  C   UNL     1       1.471  -0.834   7.918  0.00  0.00    +0.106 C 
ENDBRANCH  13  22
ENDBRANCH   1  13
BRANCH   8  25
ATOM     25  O   UNL     1      -2.772   1.125  -1.446  0.00  0.00    -0.389 OA
ATOM     26  H   UNL     1      -2.392   0.796  -2.272  0.00  0.00    +0.210 HD
ENDBRANCH   8  25
BRANCH   5  27
ATOM     27  C   UNL     1      -0.084   2.054   2.631  0.00  0.00    +0.015 C 
BRANCH  27  28
ATOM     28  C   UNL     1       1.434   1.878   2.700  0.00  0.00    +0.096 C 
BRANCH  28  29
ATOM     29  C   UNL     1       2.069   3.168   3.151  0.00  0.00    +0.213 C 
ATOM     30  O   UNL     1       1.376   4.133   3.394  0.00  0.00    -0.276 OA
ATOM     31  N   UNL     1       3.408   3.249   3.285  0.00  0.00    -0.308 N 
ATOM     32  H   UNL     1       3.962   2.477   3.091  0.00  0.00    +0.149 HD
BRANCH  31  33
ATOM     33  C   UNL     1       4.026   4.503   3.724  0.00  0.00    +0.178 C 
BRANCH  33  34
ATOM     34  C   UNL     1       5.521   4.329   3.792  0.00  0.00    +0.122 A 
ATOM     35  C   UNL     1       6.386   4.556   2.787  0.00  0.00    +0.046 A 
ATOM     36  C   UNL     1       7.678   4.271   3.285  0.00  0.00    +0.041 A 
ATOM     37  C   UNL     1       7.524   3.879   4.563  0.00  0.00    +0.195 A 
ATOM     38  O   UNL     1       6.216   3.917   4.865  0.00  0.00    -0.466 OA
ENDBRANCH  33  34
ENDBRANCH  31  33
ENDBRANCH  28  29
ENDBRANCH  27  28
ENDBRANCH   5  27
TORSDOF 8
