REMARK  Name = ZINC59060563
REMARK  11 active torsions:
REMARK  status: ('A' for Active; 'I' for Inactive)
REMARK    1  A    between atoms: C_1  and  N_2
REMARK    2  A    between atoms: C_6  and  C_7
REMARK    3  A    between atoms: C_7  and  C_8
REMARK    4  A    between atoms: C_7  and  C_28
REMARK    5  A    between atoms: C_7  and  O_32
REMARK    6  A    between atoms: C_8  and  C_9
REMARK    7  A    between atoms: C_9  and  N_10
REMARK    8  A    between atoms: N_13  and  C_14
REMARK    9  A    between atoms: C_14  and  C_15
REMARK   10  A    between atoms: C_15  and  C_17
REMARK   11  A    between atoms: C_15  and  N_22
REMARK                            x       y       z     vdW  Elec       q    Type
REMARK                         _______ _______ _______ _____ _____    ______ ____
ROOT
ATOM      1  N   UNL     1       0.550  -2.640   5.348  0.00  0.00    -0.299 N 
ATOM      2  C   UNL     1       0.247  -2.749   6.657  0.00  0.00    +0.300 C 
ATOM      3  O   UNL     1      -0.112  -1.768   7.281  0.00  0.00    -0.253 OA
ATOM      4  N   UNL     1       0.340  -3.943   7.274  0.00  0.00    -0.301 N 
ATOM      5  H   UNL     1       0.836  -3.422   4.851  0.00  0.00    +0.150 HD
ATOM      6  H   UNL     1       0.626  -4.725   6.776  0.00  0.00    +0.150 HD
ENDROOT
BRANCH   1   7
ATOM      7  C   UNL     1       0.449  -1.342   4.678  0.00  0.00    +0.109 C 
BRANCH   7   8
ATOM      8  C   UNL     1       0.846  -1.494   3.208  0.00  0.00    +0.071 C 
BRANCH   8   9
ATOM      9  C   UNL     1       0.871  -0.117   2.541  0.00  0.00    +0.220 C 
BRANCH   9  15
ATOM     10  C   UNL     1       2.284   2.053   0.840  0.00  0.00    +0.150 C 
ATOM     11  N   UNL     1       1.950   0.700   0.388  0.00  0.00    -0.335 N 
ATOM     12  C   UNL     1       2.208   0.169  -0.847  0.00  0.00    +0.106 A 
ATOM     13  C   UNL     1       1.738  -1.093  -0.834  0.00  0.00    +0.130 A 
ATOM     14  N   UNL     1       1.207  -1.327   0.375  0.00  0.00    -0.237 NA
ATOM     15  C   UNL     1       1.335  -0.259   1.115  0.00  0.00    +0.150 A 
ENDBRANCH   9  15
BRANCH   9  16
ATOM     16  C   UNL     1      -0.535   0.485   2.563  0.00  0.00    +0.425 C 
ATOM     17  F   UNL     1      -1.440  -0.422   2.001  0.00  0.00    -0.167 F 
ATOM     18  F   UNL     1      -0.906   0.756   3.884  0.00  0.00    -0.167 F 
ATOM     19  F   UNL     1      -0.545   1.672   1.822  0.00  0.00    -0.167 F 
ENDBRANCH   9  16
BRANCH   9  20
ATOM     20  O   UNL     1       1.767   0.740   3.251  0.00  0.00    -0.373 OA
ATOM     21  H   UNL     1       2.679   0.419   3.278  0.00  0.00    +0.211 HD
ENDBRANCH   9  20
ENDBRANCH   8   9
ENDBRANCH   7   8
ENDBRANCH   1   7
BRANCH   4  22
ATOM     22  C   UNL     1       0.010  -4.061   8.697  0.00  0.00    +0.098 C 
BRANCH  22  23
ATOM     23  C   UNL     1       0.308  -5.484   9.173  0.00  0.00    +0.016 C 
BRANCH  23  24
ATOM     24  N   UNL     1      -0.398  -6.445   8.317  0.00  0.00    +0.387 N 
ATOM     25  C   UNL     1      -1.835  -6.144   8.327  0.00  0.00    -0.078 C 
ATOM     26  C   UNL     1      -2.565  -7.091   7.373  0.00  0.00    -0.019 C 
ATOM     27  C   UNL     1      -2.343  -8.537   7.829  0.00  0.00    -0.004 C 
ATOM     28  C   UNL     1      -0.838  -8.817   7.886  0.00  0.00    -0.019 C 
ATOM     29  C   UNL     1      -0.172  -7.805   8.821  0.00  0.00    -0.078 C 
ATOM     30  H   UNL     1      -0.048  -6.375   7.373  0.00  0.00    -0.081 HD
ENDBRANCH  23  24
BRANCH  23  31
ATOM     31  C   UNL     1       1.792  -5.738   9.097  0.00  0.00    +0.093 A 
ATOM     32  C   UNL     1       2.652  -5.691  10.130  0.00  0.00    +0.043 A 
ATOM     33  C   UNL     1       3.932  -5.993   9.610  0.00  0.00    +0.041 A 
ATOM     34  C   UNL     1       3.777  -6.206   8.291  0.00  0.00    +0.195 A 
ATOM     35  O   UNL     1       2.478  -6.057   7.987  0.00  0.00    -0.469 OA
ENDBRANCH  23  31
ENDBRANCH  22  23
ENDBRANCH   4  22
TORSDOF 10
