REMARK  Name = ZINC09460779
REMARK  14 active torsions:
REMARK  status: ('A' for Active; 'I' for Inactive)
REMARK    1  A    between atoms: C_1  and  C_2
REMARK    2  A    between atoms: C_2  and  N_64
REMARK    3  A    between atoms: C_3  and  C_4
REMARK    4  A    between atoms: C_3  and  N_64
REMARK    5  A    between atoms: C_5  and  C_6
REMARK    6  A    between atoms: C_5  and  N_64
REMARK    7  A    between atoms: C_6  and  N_7
REMARK    8  A    between atoms: C_8  and  C_27
REMARK    9  A    between atoms: C_11  and  C_12
REMARK   10  A    between atoms: C_11  and  O_22
REMARK   11  A    between atoms: C_15  and  O_18
REMARK   12  A    between atoms: O_18  and  C_19
REMARK   13  A    between atoms: C_19  and  C_20
REMARK   14  A    between atoms: C_19  and  C_21
REMARK                            x       y       z     vdW  Elec       q    Type
REMARK                         _______ _______ _______ _____ _____    ______ ____
ROOT
ATOM      1  N   UNL     1       5.299   3.470   2.056  0.00  0.00    -0.285 N 
ATOM      2  C   UNL     1       5.341   2.211   1.305  0.00  0.00    +0.144 C 
ATOM      3  C   UNL     1       5.228   2.576  -0.157  0.00  0.00    +0.071 C 
ATOM      4  C   UNL     1       5.223   1.706  -1.231  0.00  0.00    +0.133 C 
ATOM      5  C   UNL     1       5.128   3.974  -0.204  0.00  0.00    +0.249 C 
ATOM      6  O   UNL     1       5.021   4.649  -1.212  0.00  0.00    -0.282 OA
ATOM      7  C   UNL     1       5.177   4.490   1.190  0.00  0.00    +0.288 C 
ATOM      8  O   UNL     1       5.114   5.662   1.501  0.00  0.00    -0.266 OA
ENDROOT
BRANCH   2   9
ATOM      9  C   UNL     1       4.186   1.331   1.709  0.00  0.00    -0.021 A 
ATOM     10  C   UNL     1       4.373  -0.030   1.857  0.00  0.00    +0.007 A 
ATOM     11  C   UNL     1       3.315  -0.839   2.227  0.00  0.00    +0.022 A 
ATOM     12  C   UNL     1       2.067  -0.285   2.449  0.00  0.00    +0.059 A 
ATOM     13  C   UNL     1       1.879   1.079   2.300  0.00  0.00    +0.060 A 
ATOM     14  C   UNL     1       2.939   1.886   1.929  0.00  0.00    +0.027 A 
ATOM     15 CL   UNL     1       0.311   1.774   2.571  0.00  0.00    -0.082 Cl
ATOM     16 CL   UNL     1       0.737  -1.299   2.913  0.00  0.00    -0.082 Cl
ENDBRANCH   2   9
BRANCH   4  17
ATOM     17  C   UNL     1       4.983   2.217  -2.589  0.00  0.00    +0.017 A 
ATOM     18  C   UNL     1       3.900   3.069  -2.838  0.00  0.00    +0.015 A 
ATOM     19  C   UNL     1       3.682   3.548  -4.110  0.00  0.00    +0.046 A 
ATOM     20  C   UNL     1       4.530   3.178  -5.149  0.00  0.00    +0.121 A 
ATOM     21  C   UNL     1       5.604   2.328  -4.908  0.00  0.00    +0.046 A 
ATOM     22  C   UNL     1       5.833   1.848  -3.639  0.00  0.00    +0.015 A 
BRANCH  20  23
ATOM     23  O   UNL     1       4.307   3.648  -6.402  0.00  0.00    -0.489 OA
BRANCH  23  24
ATOM     24  C   UNL     1       5.142   3.138  -7.444  0.00  0.00    +0.167 C 
ATOM     25  C   UNL     1       4.425   3.281  -8.788  0.00  0.00    +0.051 C 
ATOM     26  C   UNL     1       6.453   3.926  -7.479  0.00  0.00    +0.051 C 
ENDBRANCH  23  24
ENDBRANCH  20  23
ENDBRANCH   4  17
BRANCH   4  27
ATOM     27  O   UNL     1       5.440   0.389  -1.034  0.00  0.00    -0.506 OA
ATOM     28  H   UNL     1       5.403  -0.090  -1.911  0.00  0.00    +0.292 HD
ENDBRANCH   4  27
BRANCH   1  29
ATOM     29  C   UNL     1       5.378   3.595   3.513  0.00  0.00    +0.090 C 
BRANCH  29  30
ATOM     30  C   UNL     1       6.842   3.737   3.934  0.00  0.00    -0.060 C 
BRANCH  30  31
ATOM     31  N   UNL     1       6.907   3.840   5.407  0.00  0.00    +0.380 N 
ATOM     32  H   UNL     1       6.381   3.061   5.819  0.00  0.00    -0.082 HD
BRANCH  31  34
ATOM     33  C   UNL     1       8.781   2.310   5.756  0.00  0.00    -0.017 C 
ATOM     34  C   UNL     1       8.313   3.763   5.858  0.00  0.00    -0.082 C 
ENDBRANCH  31  34
BRANCH  31  35
ATOM     35  C   UNL     1       6.304   5.115   5.851  0.00  0.00    -0.082 C 
ATOM     36  C   UNL     1       6.044   5.037   7.357  0.00  0.00    -0.017 C 
ENDBRANCH  31  35
ENDBRANCH  30  31
ENDBRANCH  29  30
ENDBRANCH   1  29
TORSDOF 10
