REMARK  Name = ZINC40815419
REMARK  8 active torsions:
REMARK  status: ('A' for Active; 'I' for Inactive)
REMARK    1  A    between atoms: C_1  and  C_2
REMARK    2  A    between atoms: C_6  and  C_7
REMARK    3  A    between atoms: N_9  and  N_10
REMARK    4  A    between atoms: N_13  and  C_16
REMARK    5  A    between atoms: N_21  and  N_22
REMARK    6  A    between atoms: C_23  and  C_25
REMARK    7  A    between atoms: C_25  and  C_26
REMARK    8  A    between atoms: C_25  and  C_32
REMARK                            x       y       z     vdW  Elec       q    Type
REMARK                         _______ _______ _______ _____ _____    ______ ____
ROOT
ATOM      1  C   UNL     1       0.079   2.076   0.063  0.00  0.00    +0.048 C 
ATOM      2  C   UNL     1       0.104   0.575   0.189  0.00  0.00    +0.009 A 
ATOM      3  C   UNL     1       0.097  -0.357  -0.856  0.00  0.00    +0.042 A 
ATOM      4  C   UNL     1       0.127  -1.610  -0.291  0.00  0.00    +0.115 A 
ATOM      5  O   UNL     1       0.155  -1.465   1.031  0.00  0.00    -0.454 OA
ATOM      6  C   UNL     1       0.145  -0.150   1.347  0.00  0.00    +0.194 A 
ATOM      7  C   UNL     1       0.123  -2.878  -1.108  0.00  0.00    +0.075 C 
ATOM      8  C   UNL     1      -0.423  -2.580  -2.507  0.00  0.00    +0.014 C 
ATOM      9  C   UNL     1       0.335  -1.413  -3.146  0.00  0.00    +0.058 C 
ATOM     10  C   UNL     1       0.066  -0.162  -2.322  0.00  0.00    +0.070 C 
ATOM     11  N   UNL     1      -0.173   0.992  -2.866  0.00  0.00    -0.184 NA
ENDROOT
BRANCH   6  12
ATOM     12  C   UNL     1       0.171   0.405   2.705  0.00  0.00    +0.293 C 
ATOM     13  O   UNL     1       0.157   1.610   2.870  0.00  0.00    -0.265 OA
ATOM     14  N   UNL     1       0.212  -0.421   3.770  0.00  0.00    -0.242 N 
ATOM     15  H   UNL     1       0.223  -1.382   3.639  0.00  0.00    +0.170 HD
BRANCH  14  16
ATOM     16  N   UNL     1       0.236   0.096   5.034  0.00  0.00    -0.230 NA
ATOM     17  C   UNL     1       1.489  -0.248   5.720  0.00  0.00    +0.087 C 
ATOM     18  C   UNL     1       1.502   0.398   7.107  0.00  0.00    -0.062 C 
ATOM     19  N   UNL     1       0.352  -0.084   7.883  0.00  0.00    +0.380 N 
ATOM     20  C   UNL     1      -0.893   0.288   7.198  0.00  0.00    -0.062 C 
ATOM     21  C   UNL     1      -0.926  -0.358   5.811  0.00  0.00    +0.087 C 
ATOM     22  C   UNL     1       0.375   0.522   9.221  0.00  0.00    -0.096 C 
ATOM     23  H   UNL     1       0.401  -1.089   7.968  0.00  0.00    -0.082 HD
ENDBRANCH  14  16
ENDBRANCH   6  12
BRANCH  11  24
ATOM     24  N   UNL     1      -0.190   1.118  -4.261  0.00  0.00    -0.206 N 
ATOM     25  C   UNL     1      -0.438   2.317  -4.826  0.00  0.00    +0.244 C 
ATOM     26  O   UNL     1      -0.646   3.286  -4.127  0.00  0.00    -0.273 OA
ATOM     27  H   UNL     1      -0.023   0.344  -4.821  0.00  0.00    +0.177 HD
BRANCH  25  28
ATOM     28  C   UNL     1      -0.456   2.453  -6.327  0.00  0.00    +0.136 C 
BRANCH  28  29
ATOM     29  C   UNL     1      -0.754   3.883  -6.698  0.00  0.00    -0.031 A 
ATOM     30  C   UNL     1      -1.802   4.171  -7.552  0.00  0.00    +0.005 A 
ATOM     31  C   UNL     1      -2.076   5.483  -7.892  0.00  0.00    +0.000 A 
ATOM     32  C   UNL     1      -1.302   6.506  -7.378  0.00  0.00    +0.000 A 
ATOM     33  C   UNL     1      -0.254   6.218  -6.524  0.00  0.00    +0.000 A 
ATOM     34  C   UNL     1       0.017   4.906  -6.180  0.00  0.00    +0.005 A 
ENDBRANCH  28  29
BRANCH  28  35
ATOM     35  C   UNL     1       0.888   2.059  -6.883  0.00  0.00    -0.031 A 
ATOM     36  C   UNL     1       2.041   2.620  -6.367  0.00  0.00    +0.005 A 
ATOM     37  C   UNL     1       3.274   2.260  -6.877  0.00  0.00    +0.000 A 
ATOM     38  C   UNL     1       3.354   1.337  -7.904  0.00  0.00    +0.000 A 
ATOM     39  C   UNL     1       2.201   0.775  -8.420  0.00  0.00    +0.000 A 
ATOM     40  C   UNL     1       0.968   1.133  -7.907  0.00  0.00    +0.005 A 
ENDBRANCH  28  35
ENDBRANCH  25  28
ENDBRANCH  11  24
TORSDOF 6
