REMARK  Name = ZINC61950976
REMARK  4 active torsions:
REMARK  status: ('A' for Active; 'I' for Inactive)
REMARK    1  A    between atoms: C_1  and  N_2
REMARK    2  A    between atoms: N_2  and  C_3
REMARK    3  A    between atoms: C_7  and  C_9
REMARK    4  A    between atoms: C_9  and  N_10
REMARK                            x       y       z     vdW  Elec       q    Type
REMARK                         _______ _______ _______ _____ _____    ______ ____
ROOT
ATOM      1  C   UNL     1       0.009   1.460   0.066  0.00  0.00    +0.137 C 
ATOM      2  N   UNL     1       0.002  -0.004   0.002  0.00  0.00    -0.283 N 
ATOM      3  C   UNL     1      -0.165  -0.648  -1.224  0.00  0.00    +0.211 A 
ATOM      4  C   UNL     1      -0.180   0.123  -2.478  0.00  0.00    +0.295 A 
ATOM      5  O   UNL     1      -0.046   1.332  -2.460  0.00  0.00    -0.264 OA
ATOM      6  N   UNL     1      -0.343  -0.530  -3.648  0.00  0.00    -0.271 N 
ATOM      7  H   UNL     1      -0.355  -0.035  -4.481  0.00  0.00    +0.174 HD
ATOM      8  C   UNL     1      -0.490  -1.868  -3.658  0.00  0.00    +0.343 A 
ATOM      9  O   UNL     1      -0.636  -2.445  -4.719  0.00  0.00    -0.245 OA
ATOM     10  N   UNL     1      -0.477  -2.578  -2.517  0.00  0.00    -0.226 N 
ATOM     11  H   UNL     1      -0.585  -3.541  -2.552  0.00  0.00    +0.194 HD
ATOM     12  N   UNL     1      -0.306  -1.948  -1.278  0.00  0.00    -0.149 NA
ENDROOT
BRANCH   2  13
ATOM     13  C   UNL     1       0.163  -0.755   1.169  0.00  0.00    +0.035 A 
ATOM     14  C   UNL     1       0.332  -2.132   1.094  0.00  0.00    +0.023 A 
ATOM     15  C   UNL     1       0.490  -2.871   2.249  0.00  0.00    +0.002 A 
ATOM     16  C   UNL     1       0.481  -2.241   3.481  0.00  0.00    +0.002 A 
ATOM     17  C   UNL     1       0.313  -0.871   3.560  0.00  0.00    -0.063 A 
ATOM     18  C   UNL     1       0.160  -0.125   2.408  0.00  0.00    +0.025 A 
BRANCH  17  19
ATOM     19  C   UNL     1       0.304  -0.190   4.904  0.00  0.00    -0.051 C 
BRANCH  19  20
ATOM     20  N   UNL     1       1.672   0.203   5.263  0.00  0.00    +0.381 N 
ATOM     21  H   UNL     1       1.666   0.659   6.163  0.00  0.00    -0.090 HD
ATOM     22  H   UNL     1       2.258  -0.617   5.306  0.00  0.00    -0.090 HD
ATOM     23  H   UNL     1       2.033   0.839   4.567  0.00  0.00    -0.090 HD
ENDBRANCH  19  20
ENDBRANCH  17  19
ENDBRANCH   2  13
TORSDOF 3
