REMARK  Name = ZINC48256975
REMARK  9 active torsions:
REMARK  status: ('A' for Active; 'I' for Inactive)
REMARK    1  A    between atoms: C_1  and  C_2
REMARK    2  A    between atoms: C_2  and  C_3
REMARK    3  A    between atoms: N_5  and  C_6
REMARK    4  A    between atoms: C_9  and  C_30
REMARK    5  A    between atoms: C_10  and  N_12
REMARK    6  A    between atoms: N_15  and  C_16
REMARK    7  A    between atoms: C_16  and  C_17
REMARK    8  A    between atoms: C_17  and  C_19
REMARK    9  A    between atoms: C_17  and  N_24
REMARK                            x       y       z     vdW  Elec       q    Type
REMARK                         _______ _______ _______ _____ _____    ______ ____
ROOT
ATOM      1  N   UNL     1      -4.386  -5.710   0.067  0.00  0.00    -0.269 N 
ATOM      2  C   UNL     1      -3.310  -6.488   0.300  0.00  0.00    +0.304 C 
ATOM      3  O   UNL     1      -2.209  -5.986   0.413  0.00  0.00    -0.253 OA
ATOM      4  N   UNL     1      -3.456  -7.824   0.407  0.00  0.00    -0.300 N 
ATOM      5  H   UNL     1      -5.251  -6.115  -0.100  0.00  0.00    +0.156 HD
ATOM      6  H   UNL     1      -4.335  -8.225   0.317  0.00  0.00    +0.150 HD
ENDROOT
BRANCH   1  11
ATOM      7  C   UNL     1      -2.946  -2.350  -0.370  0.00  0.00    +0.035 A 
ATOM      8  C   UNL     1      -3.999  -1.557   0.066  0.00  0.00    +0.024 A 
ATOM      9  C   UNL     1      -5.173  -2.142   0.499  0.00  0.00    +0.007 A 
ATOM     10  C   UNL     1      -5.303  -3.518   0.500  0.00  0.00    -0.029 A 
ATOM     11  C   UNL     1      -4.253  -4.316   0.065  0.00  0.00    +0.039 A 
ATOM     12  C   UNL     1      -3.075  -3.731  -0.376  0.00  0.00    +0.047 A 
ATOM     13  C   UNL     1      -6.585  -4.152   0.974  0.00  0.00    +0.045 C 
BRANCH   7  16
ATOM     14  C   UNL     1      -1.304  -0.635  -0.214  0.00  0.00    +0.217 C 
ATOM     15  O   UNL     1      -1.973  -0.087   0.636  0.00  0.00    -0.275 OA
ATOM     16  N   UNL     1      -1.757  -1.756  -0.809  0.00  0.00    -0.285 N 
ATOM     17  H   UNL     1      -1.259  -2.151  -1.542  0.00  0.00    +0.155 HD
BRANCH  14  19
ATOM     18  C   UNL     1       0.309   1.199   0.217  0.00  0.00    +0.013 C 
ATOM     19  C   UNL     1       0.035  -0.064  -0.603  0.00  0.00    +0.093 C 
ENDBRANCH  14  19
ENDBRANCH   7  16
ENDBRANCH   1  11
BRANCH   4  20
ATOM     20  C   UNL     1      -2.288  -8.670   0.661  0.00  0.00    +0.098 C 
BRANCH  20  21
ATOM     21  C   UNL     1      -2.706 -10.142   0.625  0.00  0.00    +0.016 C 
BRANCH  21  22
ATOM     22  N   UNL     1      -3.794 -10.364   1.587  0.00  0.00    +0.387 N 
ATOM     23  C   UNL     1      -3.372  -9.906   2.916  0.00  0.00    -0.078 C 
ATOM     24  C   UNL     1      -4.530 -10.061   3.904  0.00  0.00    -0.019 C 
ATOM     25  C   UNL     1      -4.938 -11.535   3.977  0.00  0.00    -0.004 C 
ATOM     26  C   UNL     1      -5.305 -12.023   2.572  0.00  0.00    -0.019 C 
ATOM     27  C   UNL     1      -4.119 -11.795   1.633  0.00  0.00    -0.078 C 
ATOM     28  H   UNL     1      -4.609  -9.845   1.297  0.00  0.00    -0.081 HD
ENDBRANCH  21  22
BRANCH  21  29
ATOM     29  C   UNL     1      -1.528 -11.008   0.990  0.00  0.00    +0.093 A 
ATOM     30  C   UNL     1      -0.724 -11.648   0.122  0.00  0.00    +0.043 A 
ATOM     31  C   UNL     1       0.241 -12.338   0.891  0.00  0.00    +0.041 A 
ATOM     32  C   UNL     1      -0.030 -12.078   2.182  0.00  0.00    +0.195 A 
ATOM     33  O   UNL     1      -1.100 -11.267   2.236  0.00  0.00    -0.469 OA
ENDBRANCH  21  29
ENDBRANCH  20  21
ENDBRANCH   4  20
TORSDOF 7
