REMARK  Name = ZINC34736470
REMARK  13 active torsions:
REMARK  status: ('A' for Active; 'I' for Inactive)
REMARK    1  A    between atoms: C_1  and  C_2
REMARK    2  A    between atoms: C_2  and  O_3
REMARK    3  A    between atoms: O_3  and  C_4
REMARK    4  A    between atoms: C_7  and  C_10
REMARK    5  A    between atoms: N_12  and  C_13
REMARK    6  A    between atoms: C_14  and  C_26
REMARK    7  A    between atoms: C_18  and  C_24
REMARK    8  A    between atoms: C_18  and  C_25
REMARK    9  A    between atoms: C_20  and  C_22
REMARK   10  A    between atoms: C_20  and  C_23
REMARK   11  A    between atoms: C_26  and  O_28
REMARK   12  A    between atoms: O_28  and  C_29
REMARK   13  A    between atoms: C_29  and  C_30
REMARK                            x       y       z     vdW  Elec       q    Type
REMARK                         _______ _______ _______ _____ _____    ______ ____
ROOT
ATOM      1  C   UNL     1      -3.398  -7.970  -0.013  0.00  0.00    +0.086 A 
ATOM      2  C   UNL     1      -4.589  -8.688  -0.009  0.00  0.00    +0.091 A 
ATOM      3  C   UNL     1      -4.484 -10.130  -0.017  0.00  0.00    -0.024 A 
ATOM      4  C   UNL     1      -3.216 -10.603  -0.021  0.00  0.00    -0.016 A 
ATOM      5  S   UNL     1      -2.205  -9.152  -0.025  0.00  0.00    -0.079 S 
ATOM      6  C   UNL     1      -2.807 -12.038  -0.012  0.00  0.00    -0.041 C 
ATOM      7  N   UNL     1      -3.942 -12.940  -0.203  0.00  0.00    +0.389 N 
ATOM      8  C   UNL     1      -5.139 -12.364  -0.799  0.00  0.00    -0.069 C 
ATOM      9  C   UNL     1      -5.629 -11.131  -0.030  0.00  0.00    +0.024 C 
ATOM     10  C   UNL     1      -6.259 -13.421  -0.758  0.00  0.00    -0.010 C 
ATOM     11  C   UNL     1      -4.902 -11.988  -2.264  0.00  0.00    -0.010 C 
ATOM     12  C   UNL     1      -1.752 -12.276  -1.101  0.00  0.00    -0.005 C 
ATOM     13  C   UNL     1      -2.156 -12.347   1.351  0.00  0.00    -0.005 C 
ATOM     14  H   UNL     1      -3.639 -13.727  -0.778  0.00  0.00    -0.084 HD
ATOM     15  H   UNL     1      -4.193 -13.341   0.703  0.00  0.00    -0.084 HD
ENDROOT
BRANCH   1  18
ATOM     16  C   UNL     1      -1.997  -6.063  -0.011  0.00  0.00    +0.249 C 
ATOM     17  O   UNL     1      -1.023  -6.791  -0.019  0.00  0.00    -0.270 OA
ATOM     18  N   UNL     1      -3.236  -6.595  -0.007  0.00  0.00    -0.275 N 
ATOM     19  H   UNL     1      -4.013  -6.015   0.000  0.00  0.00    +0.156 HD
BRANCH  16  23
ATOM     20  C   UNL     1      -1.498  -1.846   0.006  0.00  0.00    +0.121 A 
ATOM     21  C   UNL     1      -0.383  -2.676  -0.003  0.00  0.00    +0.046 A 
ATOM     22  C   UNL     1      -0.541  -4.044  -0.008  0.00  0.00    +0.016 A 
ATOM     23  C   UNL     1      -1.824  -4.598  -0.004  0.00  0.00    +0.037 A 
ATOM     24  C   UNL     1      -2.942  -3.760   0.005  0.00  0.00    +0.016 A 
ATOM     25  C   UNL     1      -2.776  -2.393   0.016  0.00  0.00    +0.046 A 
BRANCH  20  26
ATOM     26  O   UNL     1      -1.339  -0.499   0.012  0.00  0.00    -0.492 OA
BRANCH  26  28
ATOM     27  C   UNL     1      -0.019   1.526   0.010  0.00  0.00    +0.048 C 
ATOM     28  C   UNL     1       0.002  -0.004   0.002  0.00  0.00    +0.225 C 
ENDBRANCH  26  28
ENDBRANCH  20  26
ENDBRANCH  16  23
ENDBRANCH   1  18
BRANCH   2  29
ATOM     29  C   UNL     1      -5.884  -8.003   0.006  0.00  0.00    +0.342 C 
ATOM     30  O   UNL     1      -6.429  -7.712  -1.041  0.00  0.00    -0.245 OA
BRANCH  29  31
ATOM     31  O   UNL     1      -6.471  -7.696   1.181  0.00  0.00    -0.461 OA
BRANCH  31  32
ATOM     32  C   UNL     1      -7.733  -7.029   1.120  0.00  0.00    +0.229 C 
ATOM     33  C   UNL     1      -8.239  -6.765   2.540  0.00  0.00    +0.048 C 
ENDBRANCH  31  32
ENDBRANCH  29  31
ENDBRANCH   2  29
TORSDOF 7
