REMARK  Name = ZINC67401212
REMARK  8 active torsions:
REMARK  status: ('A' for Active; 'I' for Inactive)
REMARK    1  A    between atoms: C_1  and  C_2
REMARK    2  A    between atoms: C_2  and  C_4
REMARK    3  A    between atoms: C_2  and  N_14
REMARK    4  A    between atoms: N_10  and  C_11
REMARK    5  A    between atoms: N_10  and  C_12
REMARK    6  A    between atoms: C_17  and  C_20
REMARK    7  A    between atoms: C_20  and  C_22
REMARK    8  A    between atoms: C_20  and  O_29
REMARK                            x       y       z     vdW  Elec       q    Type
REMARK                         _______ _______ _______ _____ _____    ______ ____
ROOT
ATOM      1  N   UNL     1       0.713  -0.491   1.192  0.00  0.00    +0.386 N 
ATOM      2  C   UNL     1       2.087   0.025   1.185  0.00  0.00    -0.077 C 
ATOM      3  C   UNL     1       2.806  -0.412   2.463  0.00  0.00    -0.012 C 
ATOM      4  C   UNL     1       2.834  -1.941   2.528  0.00  0.00    +0.019 C 
ATOM      5  C   UNL     1       1.399  -2.472   2.460  0.00  0.00    -0.012 C 
ATOM      6  C   UNL     1       0.732  -1.958   1.183  0.00  0.00    -0.077 C 
ATOM      7  H   UNL     1       0.238  -0.167   2.022  0.00  0.00    -0.081 HD
ENDROOT
BRANCH   1   9
ATOM      8  C   UNL     1      -0.019   1.526   0.010  0.00  0.00    -0.005 C 
ATOM      9  C   UNL     1       0.002  -0.004   0.002  0.00  0.00    -0.002 C 
BRANCH   9  10
ATOM     10  C   UNL     1      -1.412  -0.526   0.013  0.00  0.00    +0.123 A 
ATOM     11  N   UNL     1      -2.124  -0.477   1.125  0.00  0.00    -0.201 NA
ATOM     12  C   UNL     1      -3.373  -0.936   1.138  0.00  0.00    +0.217 A 
ATOM     13  N   UNL     1      -3.904  -1.444   0.031  0.00  0.00    -0.181 NA
ATOM     14  C   UNL     1      -3.185  -1.492  -1.085  0.00  0.00    +0.222 A 
ATOM     15  N   UNL     1      -1.938  -1.026  -1.091  0.00  0.00    -0.201 NA
ATOM     16  N   UNL     1      -3.732  -2.019  -2.237  0.00  0.00    -0.306 N 
ATOM     17  C   UNL     1      -5.106  -2.527  -2.229  0.00  0.00    +0.132 C 
ATOM     18  C   UNL     1      -2.938  -2.071  -3.467  0.00  0.00    +0.132 C 
ATOM     19  N   UNL     1      -4.116  -0.885   2.300  0.00  0.00    -0.327 N 
ATOM     20  H   UNL     1      -3.728  -0.514   3.108  0.00  0.00    +0.145 HD
ATOM     21  H   UNL     1      -5.026  -1.220   2.309  0.00  0.00    +0.145 HD
ENDBRANCH   9  10
ENDBRANCH   1   9
BRANCH   4  22
ATOM     22  C   UNL     1       3.482  -2.385   3.842  0.00  0.00    +0.147 C 
BRANCH  22  23
ATOM     23  C   UNL     1       3.509  -3.891   3.905  0.00  0.00    -0.019 A 
ATOM     24  C   UNL     1       4.547  -4.589   3.317  0.00  0.00    +0.007 A 
ATOM     25  C   UNL     1       4.572  -5.969   3.374  0.00  0.00    +0.020 A 
ATOM     26  C   UNL     1       3.558  -6.653   4.021  0.00  0.00    +0.041 A 
ATOM     27  C   UNL     1       2.519  -5.954   4.609  0.00  0.00    +0.020 A 
ATOM     28  C   UNL     1       2.498  -4.573   4.556  0.00  0.00    +0.007 A 
ATOM     29 CL   UNL     1       3.588  -8.387   4.093  0.00  0.00    -0.084 Cl
ENDBRANCH  22  23
BRANCH  22  30
ATOM     30  O   UNL     1       4.818  -1.882   3.908  0.00  0.00    -0.387 OA
ATOM     31  H   UNL     1       5.389  -2.188   3.190  0.00  0.00    +0.210 HD
ENDBRANCH  22  30
ENDBRANCH   4  22
TORSDOF 5
