REMARK  Name = ZINC16625740
REMARK  10 active torsions:
REMARK  status: ('A' for Active; 'I' for Inactive)
REMARK    1  A    between atoms: C_1  and  N_52
REMARK    2  A    between atoms: C_2  and  C_3
REMARK    3  A    between atoms: C_2  and  N_52
REMARK    4  A    between atoms: N_5  and  C_6
REMARK    5  A    between atoms: C_10  and  C_12
REMARK    6  A    between atoms: C_17  and  C_18
REMARK    7  A    between atoms: C_17  and  N_52
REMARK    8  A    between atoms: N_23  and  C_24
REMARK    9  A    between atoms: C_27  and  O_30
REMARK   10  A    between atoms: O_30  and  C_31
REMARK                            x       y       z     vdW  Elec       q    Type
REMARK                         _______ _______ _______ _____ _____    ______ ____
ROOT
ATOM      1  C   UNL     1       5.941   2.969  -1.112  0.00  0.00    -0.095 C 
ATOM      2  N   UNL     1       5.874   2.302   0.206  0.00  0.00    +0.389 N 
ATOM      3  H   UNL     1       5.641   3.001   0.922  0.00  0.00    -0.081 HD
ENDROOT
BRANCH   2   4
ATOM      4  C   UNL     1       7.183   1.698   0.533  0.00  0.00    +0.019 C 
BRANCH   4   5
ATOM      5  C   UNL     1       8.185   2.800   0.756  0.00  0.00    +0.201 C 
ATOM      6  O   UNL     1       7.849   3.959   0.638  0.00  0.00    -0.278 OA
ATOM      7  N   UNL     1       9.457   2.498   1.087  0.00  0.00    -0.287 N 
ATOM      8  H   UNL     1       9.743   1.572   1.116  0.00  0.00    +0.155 HD
BRANCH   7   9
ATOM      9  C   UNL     1      10.363   3.521   1.390  0.00  0.00    +0.034 A 
ATOM     10  C   UNL     1      10.295   4.732   0.714  0.00  0.00    +0.025 A 
ATOM     11  C   UNL     1      11.188   5.742   1.018  0.00  0.00    +0.022 A 
ATOM     12  C   UNL     1      12.156   5.543   1.987  0.00  0.00    +0.053 A 
ATOM     13  C   UNL     1      12.229   4.335   2.657  0.00  0.00    +0.075 A 
ATOM     14  C   UNL     1      11.335   3.324   2.361  0.00  0.00    +0.037 A 
ATOM     15 CL   UNL     1      13.280   6.811   2.361  0.00  0.00    -0.083 Cl
BRANCH  13  16
ATOM     16  C   UNL     1      13.284   4.122   3.712  0.00  0.00    +0.419 C 
ATOM     17  F   UNL     1      13.158   2.834   4.244  0.00  0.00    -0.166 F 
ATOM     18  F   UNL     1      14.552   4.268   3.139  0.00  0.00    -0.166 F 
ATOM     19  F   UNL     1      13.121   5.066   4.731  0.00  0.00    -0.166 F 
ENDBRANCH  13  16
ENDBRANCH   7   9
ENDBRANCH   4   5
ENDBRANCH   2   4
BRANCH   2  20
ATOM     20  C   UNL     1       4.825   1.261   0.193  0.00  0.00    +0.019 C 
BRANCH  20  21
ATOM     21  C   UNL     1       3.479   1.928   0.077  0.00  0.00    +0.204 C 
ATOM     22  O   UNL     1       3.406   3.136  -0.003  0.00  0.00    -0.277 OA
ATOM     23  N   UNL     1       2.357   1.183   0.063  0.00  0.00    -0.241 N 
ATOM     24  C   UNL     1       1.153   1.779  -0.040  0.00  0.00    +0.310 C 
ATOM     25  O   UNL     1       1.079   2.990  -0.120  0.00  0.00    -0.252 OA
ATOM     26  N   UNL     1       0.030   1.034  -0.054  0.00  0.00    -0.269 N 
ATOM     27  H   UNL     1       2.415   0.216   0.127  0.00  0.00    +0.159 HD
ATOM     28  H   UNL     1       0.091   0.065  -0.058  0.00  0.00    +0.156 HD
BRANCH  26  29
ATOM     29  C   UNL     1      -1.225   1.657  -0.070  0.00  0.00    +0.035 A 
ATOM     30  C   UNL     1      -2.295   1.081   0.603  0.00  0.00    +0.027 A 
ATOM     31  C   UNL     1      -3.530   1.699   0.592  0.00  0.00    +0.047 A 
ATOM     32  C   UNL     1      -3.705   2.888  -0.100  0.00  0.00    +0.120 A 
ATOM     33  C   UNL     1      -2.638   3.461  -0.777  0.00  0.00    +0.047 A 
ATOM     34  C   UNL     1      -1.401   2.847  -0.762  0.00  0.00    +0.027 A 
BRANCH  32  35
ATOM     35  O   UNL     1      -4.922   3.494  -0.115  0.00  0.00    -0.495 OA
ATOM     36  C   UNL     1      -5.976   2.849   0.604  0.00  0.00    +0.277 C 
ENDBRANCH  32  35
ENDBRANCH  26  29
ENDBRANCH  20  21
ENDBRANCH   2  20
TORSDOF 8
