REMARK  Name = ZINC63012599
REMARK  4 active torsions:
REMARK  status: ('A' for Active; 'I' for Inactive)
REMARK    1  A    between atoms: C_1  and  C_2
REMARK    2  A    between atoms: C_3  and  N_19
REMARK    3  A    between atoms: C_4  and  N_8
REMARK    4  A    between atoms: N_5  and  C_7
REMARK                            x       y       z     vdW  Elec       q    Type
REMARK                         _______ _______ _______ _____ _____    ______ ____
ROOT
ATOM      1  C   UNL     1       1.367   0.462   1.596  0.00  0.00    +0.067 C 
ATOM      2  C   UNL     1       0.591  -0.449   0.680  0.00  0.00    +0.054 A 
ATOM      3  C   UNL     1       1.119  -1.526  -0.041  0.00  0.00    +0.085 A 
ATOM      4  C   UNL     1       0.100  -2.095  -0.747  0.00  0.00    +0.139 A 
ATOM      5  N   UNL     1      -1.030  -1.389  -0.472  0.00  0.00    -0.275 N 
ATOM      6  N   UNL     1      -0.691  -0.369   0.427  0.00  0.00    -0.299 N 
ATOM      7  C   UNL     1      -2.365  -1.652  -1.015  0.00  0.00    +0.172 C 
ATOM      8  H   UNL     1      -1.303   0.286   0.797  0.00  0.00    +0.187 HD
ENDROOT
BRANCH   4   9
ATOM      9  N   UNL     1       0.199  -3.200  -1.596  0.00  0.00    -0.306 N 
ATOM     10  C   UNL     1       0.126  -4.561  -1.073  0.00  0.00    +0.148 C 
ATOM     11  C   UNL     1       1.009  -5.441  -1.982  0.00  0.00    +0.248 C 
ATOM     12  O   UNL     1       2.340  -4.924  -1.968  0.00  0.00    -0.490 OA
ATOM     13  C   UNL     1       2.701  -3.960  -2.858  0.00  0.00    +0.125 A 
ATOM     14  C   UNL     1       4.037  -3.952  -3.264  0.00  0.00    +0.046 A 
ATOM     15  C   UNL     1       4.501  -2.991  -4.135  0.00  0.00    +0.004 A 
ATOM     16  C   UNL     1       3.644  -2.017  -4.614  0.00  0.00    +0.001 A 
ATOM     17  C   UNL     1       2.318  -2.025  -4.229  0.00  0.00    +0.009 A 
ATOM     18  C   UNL     1       1.843  -3.000  -3.370  0.00  0.00    +0.011 A 
ATOM     19  C   UNL     1       0.372  -3.029  -3.040  0.00  0.00    +0.145 C 
ENDBRANCH   4   9
BRANCH   3  20
ATOM     20  N   UNL     1       2.468  -1.950  -0.037  0.00  0.00    -0.354 N 
ATOM     21  H   UNL     1       3.143  -1.416   0.411  0.00  0.00    +0.142 HD
ATOM     22  H   UNL     1       2.719  -2.774  -0.484  0.00  0.00    +0.142 HD
ENDBRANCH   3  20
TORSDOF 2
