REMARK  Name = ZINC09729421
REMARK  8 active torsions:
REMARK  status: ('A' for Active; 'I' for Inactive)
REMARK    1  A    between atoms: C_1  and  C_2
REMARK    2  A    between atoms: C_2  and  C_4
REMARK    3  A    between atoms: C_2  and  N_67
REMARK    4  A    between atoms: C_7  and  S_16
REMARK    5  A    between atoms: N_8  and  C_9
REMARK    6  A    between atoms: S_16  and  C_17
REMARK    7  A    between atoms: C_17  and  C_18
REMARK    8  A    between atoms: N_20  and  C_21
REMARK                            x       y       z     vdW  Elec       q    Type
REMARK                         _______ _______ _______ _____ _____    ______ ____
ROOT
ATOM      1  C   UNL     1      -0.622  11.776  -2.960  0.00  0.00    +0.125 A 
ATOM      2  N   UNL     1      -1.211  10.873  -3.691  0.00  0.00    -0.135 NA
ATOM      3  N   UNL     1      -1.376   9.793  -3.013  0.00  0.00    -0.122 NA
ATOM      4  C   UNL     1      -0.906   9.953  -1.798  0.00  0.00    +0.197 A 
ATOM      5  N   UNL     1      -0.405  11.223  -1.726  0.00  0.00    -0.275 N 
ENDROOT
BRANCH   5   6
ATOM      6  C   UNL     1       0.204  11.834  -0.618  0.00  0.00    +0.050 A 
ATOM      7  C   UNL     1      -0.397  12.927  -0.011  0.00  0.00    +0.029 A 
ATOM      8  C   UNL     1       0.201  13.523   1.083  0.00  0.00    +0.040 A 
ATOM      9  C   UNL     1       1.404  13.037   1.565  0.00  0.00    +0.124 A 
ATOM     10  C   UNL     1       2.007  11.949   0.957  0.00  0.00    +0.040 A 
ATOM     11  C   UNL     1       1.410  11.348  -0.133  0.00  0.00    +0.029 A 
ATOM     12  F   UNL     1       1.990  13.625   2.632  0.00  0.00    -0.205 F 
ENDBRANCH   5   6
BRANCH   1  14
ATOM     13  C   UNL     1      -1.505  14.041  -3.451  0.00  0.00    -0.005 C 
ATOM     14  C   UNL     1      -0.248  13.171  -3.392  0.00  0.00    -0.002 C 
BRANCH  14  20
ATOM     15  C   UNL     1       1.530  12.213  -4.727  0.00  0.00    -0.078 C 
ATOM     16  C   UNL     1       2.064  12.073  -6.155  0.00  0.00    -0.019 C 
ATOM     17  C   UNL     1       2.472  13.453  -6.679  0.00  0.00    -0.004 C 
ATOM     18  C   UNL     1       1.265  14.392  -6.617  0.00  0.00    -0.019 C 
ATOM     19  C   UNL     1       0.754  14.464  -5.176  0.00  0.00    -0.078 C 
ATOM     20  N   UNL     1       0.355  13.110  -4.740  0.00  0.00    +0.386 N 
ATOM     21  H   UNL     1      -0.340  12.739  -5.399  0.00  0.00    -0.081 HD
ENDBRANCH  14  20
ENDBRANCH   1  14
BRANCH   4  22
ATOM     22  S   UNL     1      -0.912   8.754  -0.506  0.00  0.00    -0.076 S 
BRANCH  22  23
ATOM     23  C   UNL     1      -1.720   7.377  -1.359  0.00  0.00    +0.173 C 
BRANCH  23  24
ATOM     24  C   UNL     1      -1.837   6.204  -0.420  0.00  0.00    +0.224 C 
ATOM     25  O   UNL     1      -1.416   6.290   0.714  0.00  0.00    -0.275 OA
ATOM     26  N   UNL     1      -2.411   5.059  -0.841  0.00  0.00    -0.308 N 
ATOM     27  H   UNL     1      -2.748   4.990  -1.748  0.00  0.00    +0.149 HD
BRANCH  26  28
ATOM     28  C   UNL     1      -2.525   3.919   0.072  0.00  0.00    +0.103 C 
ATOM     29  C   UNL     1      -3.706   3.051  -0.372  0.00  0.00    +0.027 C 
ATOM     30  C   UNL     1      -3.683   1.759   0.454  0.00  0.00    +0.007 C 
ATOM     31  C   UNL     1      -2.487   0.921   0.005  0.00  0.00    +0.035 C 
ATOM     32  C   UNL     1      -1.228   1.748   0.017  0.00  0.00    -0.042 A 
ATOM     33  C   UNL     1      -1.245   3.125   0.037  0.00  0.00    -0.024 A 
ATOM     34  C   UNL     1      -0.048   3.828   0.025  0.00  0.00    +0.006 A 
ATOM     35  C   UNL     1       1.158   3.158   0.008  0.00  0.00    +0.000 A 
ATOM     36  C   UNL     1       1.176   1.776   0.000  0.00  0.00    +0.000 A 
ATOM     37  C   UNL     1      -0.013   1.076   0.008  0.00  0.00    +0.004 A 
ENDBRANCH  26  28
ENDBRANCH  23  24
ENDBRANCH  22  23
ENDBRANCH   4  22
TORSDOF 7
