REMARK  Name = ZINC39631178
REMARK  12 active torsions:
REMARK  status: ('A' for Active; 'I' for Inactive)
REMARK    1  A    between atoms: C_1  and  C_2
REMARK    2  A    between atoms: C_6  and  C_8
REMARK    3  A    between atoms: C_12  and  C_21
REMARK    4  A    between atoms: N_23  and  C_24
REMARK    5  A    between atoms: C_24  and  C_26
REMARK    6  A    between atoms: C_24  and  C_27
REMARK    7  A    between atoms: C_27  and  C_28
REMARK    8  A    between atoms: C_28  and  C_29
REMARK    9  A    between atoms: C_29  and  C_30
REMARK   10  A    between atoms: C_30  and  C_31
REMARK   11  A    between atoms: C_30  and  C_32
REMARK   12  A    between atoms: C_30  and  O_33
REMARK                            x       y       z     vdW  Elec       q    Type
REMARK                         _______ _______ _______ _____ _____    ______ ____
ROOT
ATOM      1  C   UNL     1       1.930  -1.571   1.992  0.00  0.00    +0.247 C 
ATOM      2  O   UNL     1       2.128  -1.041   3.068  0.00  0.00    -0.270 OA
ATOM      3  N   UNL     1       1.439  -2.825   1.940  0.00  0.00    -0.296 N 
ATOM      4  C   UNL     1       1.243  -3.674   0.741  0.00  0.00    +0.121 C 
ATOM      5  C   UNL     1       1.653  -5.093   1.195  0.00  0.00    +0.100 C 
ATOM      6  C   UNL     1       1.473  -5.083   2.722  0.00  0.00    -0.004 C 
ATOM      7  C   UNL     1       0.981  -3.670   3.068  0.00  0.00    +0.115 C 
ATOM      8  C   UNL     1       2.806  -5.354   3.413  0.00  0.00    -0.010 C 
ATOM      9  C   UNL     1       2.591  -5.396   4.929  0.00  0.00    -0.082 C 
ATOM     10  N   UNL     1       1.623  -6.449   5.258  0.00  0.00    +0.379 N 
ATOM     11  C   UNL     1       0.317  -6.132   4.666  0.00  0.00    -0.082 C 
ATOM     12  C   UNL     1       0.436  -6.121   3.140  0.00  0.00    -0.010 C 
ATOM     13  H   UNL     1       1.951  -7.331   4.895  0.00  0.00    -0.086 HD
ATOM     14  H   UNL     1       1.528  -6.515   6.261  0.00  0.00    -0.086 HD
ENDROOT
BRANCH   1  20
ATOM     15  C   UNL     1       4.250   2.153  -0.385  0.00  0.00    +0.044 C 
ATOM     16  C   UNL     1       3.340   0.951  -0.406  0.00  0.00    -0.050 A 
ATOM     17  C   UNL     1       2.780   0.530  -1.599  0.00  0.00    +0.003 A 
ATOM     18  C   UNL     1       1.945  -0.572  -1.628  0.00  0.00    +0.001 A 
ATOM     19  C   UNL     1       1.665  -1.259  -0.465  0.00  0.00    +0.013 A 
ATOM     20  C   UNL     1       2.226  -0.840   0.742  0.00  0.00    +0.037 A 
ATOM     21  C   UNL     1       3.073   0.270   0.763  0.00  0.00    +0.016 A 
ENDBRANCH   1  20
BRANCH   5  22
ATOM     22  C   UNL     1       3.091  -5.364   0.836  0.00  0.00    +0.218 C 
ATOM     23  O   UNL     1       3.895  -4.455   0.826  0.00  0.00    -0.275 OA
ATOM     24  N   UNL     1       3.484  -6.615   0.525  0.00  0.00    -0.312 N 
ATOM     25  H   UNL     1       2.861  -7.353   0.607  0.00  0.00    +0.149 HD
BRANCH  24  26
ATOM     26  C   UNL     1       4.853  -6.859   0.063  0.00  0.00    +0.070 C 
ATOM     27  C   UNL     1       5.769  -7.069   1.271  0.00  0.00    +0.028 C 
BRANCH  26  28
ATOM     28  C   UNL     1       4.877  -8.110  -0.818  0.00  0.00    +0.022 C 
BRANCH  28  29
ATOM     29  C   UNL     1       4.014  -7.876  -2.060  0.00  0.00    +0.005 C 
BRANCH  29  30
ATOM     30  C   UNL     1       3.945  -9.163  -2.883  0.00  0.00    +0.034 C 
BRANCH  30  31
ATOM     31  C   UNL     1       3.192  -8.895  -4.187  0.00  0.00    +0.061 C 
ATOM     32  C   UNL     1       3.185 -10.163  -5.043  0.00  0.00    +0.041 C 
ATOM     33  C   UNL     1       1.752  -8.486  -3.870  0.00  0.00    +0.041 C 
BRANCH  31  34
ATOM     34  O   UNL     1       3.839  -7.841  -4.903  0.00  0.00    -0.389 OA
ATOM     35  H   UNL     1       4.757  -8.031  -5.138  0.00  0.00    +0.210 HD
ENDBRANCH  31  34
ENDBRANCH  30  31
ENDBRANCH  29  30
ENDBRANCH  28  29
ENDBRANCH  26  28
ENDBRANCH  24  26
ENDBRANCH   5  22
TORSDOF 8
