REMARK  Name = ZINC20763819
REMARK  7 active torsions:
REMARK  status: ('A' for Active; 'I' for Inactive)
REMARK    1  A    between atoms: C_1  and  O_2
REMARK    2  A    between atoms: O_2  and  C_3
REMARK    3  A    between atoms: C_3  and  C_5
REMARK    4  A    between atoms: C_8  and  C_11
REMARK    5  A    between atoms: C_14  and  C_26
REMARK    6  A    between atoms: C_17  and  C_19
REMARK    7  A    between atoms: C_31  and  O_32
REMARK                            x       y       z     vdW  Elec       q    Type
REMARK                         _______ _______ _______ _____ _____    ______ ____
ROOT
ATOM      1  C   UNL     1      -1.321   7.281   0.775  0.00  0.00    +0.081 C 
ATOM      2  N   UNL     1      -1.354   5.824   0.604  0.00  0.00    +0.401 N 
ATOM      3  C   UNL     1      -0.082   5.350   0.031  0.00  0.00    -0.028 C 
ATOM      4  C   UNL     1       0.021   5.877  -1.404  0.00  0.00    +0.044 C 
ATOM      5  C   UNL     1      -0.319   7.341  -1.427  0.00  0.00    +0.040 C 
ATOM      6  N   UNL     1      -0.912   7.936  -0.461  0.00  0.00    -0.299 NA
ATOM      7  H   UNL     1      -1.510   5.343   1.581  0.00  0.00    -0.081 HD
ATOM      8  H   UNL     1      -2.177   5.552  -0.073  0.00  0.00    -0.081 HD
ENDROOT
BRANCH   5   9
ATOM      9  C   UNL     1       0.048   8.129  -2.619  0.00  0.00    -0.004 A 
ATOM     10  C   UNL     1       0.702   7.517  -3.690  0.00  0.00    +0.011 A 
ATOM     11  C   UNL     1       1.038   8.259  -4.804  0.00  0.00    +0.016 A 
ATOM     12  C   UNL     1       0.739   9.610  -4.856  0.00  0.00    +0.018 A 
ATOM     13  C   UNL     1       0.096  10.224  -3.794  0.00  0.00    +0.016 A 
ATOM     14  C   UNL     1      -0.251   9.492  -2.678  0.00  0.00    +0.011 A 
ATOM     15 BR   UNL     1       1.210  10.620  -6.383  0.00  0.00    -0.050 Br
ENDBRANCH   5   9
BRANCH   1  19
ATOM     16  C   UNL     1      -5.217   8.658   1.876  0.00  0.00    +0.059 A 
ATOM     17  C   UNL     1      -4.351   9.495   1.170  0.00  0.00    +0.015 A 
ATOM     18  C   UNL     1      -3.096   9.044   0.818  0.00  0.00    +0.004 A 
ATOM     19  C   UNL     1      -2.694   7.766   1.163  0.00  0.00    -0.040 A 
ATOM     20  C   UNL     1      -3.549   6.930   1.859  0.00  0.00    +0.004 A 
ATOM     21  C   UNL     1      -4.805   7.370   2.222  0.00  0.00    +0.015 A 
BRANCH  16  22
ATOM     22  C   UNL     1      -6.563   9.134   2.256  0.00  0.00    +0.339 C 
ATOM     23  O   UNL     1      -6.919  10.255   1.954  0.00  0.00    -0.245 OA
BRANCH  22  25
ATOM     24  C   UNL     1      -8.703   8.857   3.278  0.00  0.00    +0.280 C 
ATOM     25  O   UNL     1      -7.396   8.324   2.938  0.00  0.00    -0.464 OA
ENDBRANCH  22  25
ENDBRANCH  16  22
ENDBRANCH   1  19
BRANCH   3  26
ATOM     26  C   UNL     1      -0.057   3.844   0.023  0.00  0.00    -0.019 A 
ATOM     27  C   UNL     1      -1.242   3.132   0.031  0.00  0.00    +0.005 A 
ATOM     28  C   UNL     1      -1.220   1.750   0.017  0.00  0.00    +0.000 A 
ATOM     29  C   UNL     1      -0.013   1.076   0.008  0.00  0.00    +0.004 A 
ATOM     30  C   UNL     1       1.174   1.782   0.000  0.00  0.00    +0.045 A 
ATOM     31  C   UNL     1       1.155   3.169   0.008  0.00  0.00    +0.118 A 
BRANCH  31  32
ATOM     32  O   UNL     1       2.321   3.867   0.000  0.00  0.00    -0.507 OA
ATOM     33  H   UNL     1       3.282   3.331  -0.012  0.00  0.00    +0.292 HD
ENDBRANCH  31  32
ENDBRANCH   3  26
TORSDOF 6
