REMARK  Name = ZINC39631288
REMARK  12 active torsions:
REMARK  status: ('A' for Active; 'I' for Inactive)
REMARK    1  A    between atoms: C_1  and  C_2
REMARK    2  A    between atoms: C_2  and  C_4
REMARK    3  A    between atoms: C_2  and  N_11
REMARK    4  A    between atoms: C_4  and  C_5
REMARK    5  A    between atoms: C_5  and  C_6
REMARK    6  A    between atoms: C_6  and  C_7
REMARK    7  A    between atoms: C_7  and  C_8
REMARK    8  A    between atoms: C_7  and  C_9
REMARK    9  A    between atoms: C_7  and  O_10
REMARK   10  A    between atoms: C_12  and  C_14
REMARK   11  A    between atoms: C_25  and  C_27
REMARK   12  A    between atoms: C_30  and  C_33
REMARK                            x       y       z     vdW  Elec       q    Type
REMARK                         _______ _______ _______ _____ _____    ______ ____
ROOT
ATOM      1  C   UNL     1      -0.458   0.304  -3.701  0.00  0.00    +0.100 C 
ATOM      2  C   UNL     1       0.278  -1.054  -3.738  0.00  0.00    +0.121 C 
ATOM      3  N   UNL     1      -0.306  -1.765  -4.900  0.00  0.00    -0.296 N 
ATOM      4  C   UNL     1      -0.476  -0.711  -5.929  0.00  0.00    +0.115 C 
ATOM      5  C   UNL     1      -0.948   0.527  -5.142  0.00  0.00    -0.004 C 
ATOM      6  C   UNL     1      -0.324   1.792  -5.722  0.00  0.00    -0.010 C 
ATOM      7  C   UNL     1      -0.871   2.025  -7.133  0.00  0.00    -0.082 C 
ATOM      8  N   UNL     1      -2.332   2.157  -7.078  0.00  0.00    +0.379 N 
ATOM      9  C   UNL     1      -2.931   0.902  -6.606  0.00  0.00    -0.082 C 
ATOM     10  C   UNL     1      -2.470   0.622  -5.173  0.00  0.00    -0.010 C 
ATOM     11  C   UNL     1      -0.613  -3.074  -4.999  0.00  0.00    +0.247 C 
ATOM     12  O   UNL     1      -1.021  -3.524  -6.052  0.00  0.00    -0.270 OA
ATOM     13  H   UNL     1      -2.577   2.904  -6.446  0.00  0.00    -0.086 HD
ATOM     14  H   UNL     1      -2.684   2.371  -7.999  0.00  0.00    -0.086 HD
ENDROOT
BRANCH  11  15
ATOM     15  C   UNL     1      -0.452  -3.961  -3.828  0.00  0.00    +0.037 A 
ATOM     16  C   UNL     1       0.463  -3.639  -2.825  0.00  0.00    +0.013 A 
ATOM     17  C   UNL     1       0.608  -4.471  -1.734  0.00  0.00    +0.013 A 
ATOM     18  C   UNL     1      -0.152  -5.623  -1.633  0.00  0.00    +0.055 A 
ATOM     19  C   UNL     1      -1.061  -5.949  -2.624  0.00  0.00    +0.013 A 
ATOM     20  C   UNL     1      -1.220  -5.122  -3.717  0.00  0.00    +0.013 A 
BRANCH  18  21
ATOM     21  C   UNL     1       0.011  -6.528  -0.439  0.00  0.00    +0.417 C 
ATOM     22  F   UNL     1      -0.948  -6.203   0.526  0.00  0.00    -0.166 F 
ATOM     23  F   UNL     1      -0.158  -7.859  -0.836  0.00  0.00    -0.166 F 
ATOM     24  F   UNL     1       1.291  -6.361   0.101  0.00  0.00    -0.166 F 
ENDBRANCH  18  21
ENDBRANCH  11  15
BRANCH   1  26
ATOM     25  N   UNL     1      -2.072   1.364  -2.155  0.00  0.00    -0.312 N 
ATOM     26  C   UNL     1      -1.627   0.241  -2.753  0.00  0.00    +0.218 C 
ATOM     27  O   UNL     1      -2.169  -0.821  -2.527  0.00  0.00    -0.275 OA
ATOM     28  H   UNL     1      -1.690   2.224  -2.393  0.00  0.00    +0.149 HD
BRANCH  25  30
ATOM     29  C   UNL     1      -4.497   1.335  -1.837  0.00  0.00    +0.028 C 
ATOM     30  C   UNL     1      -3.132   1.287  -1.147  0.00  0.00    +0.070 C 
BRANCH  30  31
ATOM     31  C   UNL     1      -3.006   2.470  -0.184  0.00  0.00    +0.022 C 
BRANCH  31  32
ATOM     32  C   UNL     1      -1.675   2.378   0.565  0.00  0.00    +0.005 C 
BRANCH  32  33
ATOM     33  C   UNL     1      -1.603   3.488   1.615  0.00  0.00    +0.034 C 
BRANCH  33  34
ATOM     34  C   UNL     1      -0.298   3.361   2.404  0.00  0.00    +0.061 C 
ATOM     35  C   UNL     1      -0.193   4.512   3.406  0.00  0.00    +0.041 C 
ATOM     36  C   UNL     1      -0.283   2.028   3.154  0.00  0.00    +0.041 C 
BRANCH  34  37
ATOM     37  O   UNL     1       0.810   3.412   1.502  0.00  0.00    -0.389 OA
ATOM     38  H   UNL     1       0.908   4.259   1.047  0.00  0.00    +0.210 HD
ENDBRANCH  34  37
ENDBRANCH  33  34
ENDBRANCH  32  33
ENDBRANCH  31  32
ENDBRANCH  30  31
ENDBRANCH  25  30
ENDBRANCH   1  26
TORSDOF 9
