REMARK  Name = ZINC09666108
REMARK  8 active torsions:
REMARK  status: ('A' for Active; 'I' for Inactive)
REMARK    1  A    between atoms: C_8  and  C_10
REMARK    2  A    between atoms: C_10  and  C_11
REMARK    3  A    between atoms: C_11  and  C_12
REMARK    4  A    between atoms: C_19  and  C_20
REMARK    5  A    between atoms: C_19  and  N_57
REMARK    6  A    between atoms: N_22  and  C_23
REMARK    7  A    between atoms: C_26  and  O_29
REMARK    8  A    between atoms: O_29  and  C_30
REMARK                            x       y       z     vdW  Elec       q    Type
REMARK                         _______ _______ _______ _____ _____    ______ ____
ROOT
ATOM      1  C   UNL     1       6.653   3.934  -2.175  0.00  0.00    +0.216 C 
ATOM      2  O   UNL     1       7.765   3.641  -1.789  0.00  0.00    -0.276 OA
ATOM      3  N   UNL     1       5.581   3.682  -1.397  0.00  0.00    -0.305 N 
ATOM      4  C   UNL     1       5.738   3.051  -0.078  0.00  0.00    +0.089 C 
ATOM      5  C   UNL     1       4.783   1.855   0.006  0.00  0.00    -0.059 C 
ATOM      6  C   UNL     1       3.329   2.795  -1.692  0.00  0.00    -0.059 C 
ATOM      7  C   UNL     1       4.224   4.030  -1.846  0.00  0.00    +0.089 C 
ATOM      8  N   UNL     1       3.412   2.320  -0.293  0.00  0.00    +0.387 N 
ATOM      9  H   UNL     1       3.179   3.097   0.336  0.00  0.00    -0.081 HD
ENDROOT
BRANCH   1  10
ATOM     10  C   UNL     1       6.469   4.582  -3.523  0.00  0.00    +0.102 C 
BRANCH  10  11
ATOM     11  C   UNL     1       7.833   4.755  -4.196  0.00  0.00    +0.072 C 
BRANCH  11  19
ATOM     12  C   UNL     1       7.250   8.720  -8.889  0.00  0.00    +0.002 A 
ATOM     13  C   UNL     1       7.078   7.703  -9.818  0.00  0.00    +0.001 A 
ATOM     14  C   UNL     1       7.100   6.387  -9.396  0.00  0.00    +0.017 A 
ATOM     15  C   UNL     1       7.292   6.110  -8.065  0.00  0.00    +0.039 A 
ATOM     16  C   UNL     1       7.470   7.125  -7.097  0.00  0.00    +0.078 A 
ATOM     17  C   UNL     1       7.441   8.456  -7.569  0.00  0.00    +0.029 A 
ATOM     18  N   UNL     1       7.645   6.672  -5.838  0.00  0.00    -0.244 NA
ATOM     19  C   UNL     1       7.649   5.402  -5.544  0.00  0.00    +0.080 A 
ATOM     20  S   UNL     1       7.400   4.636  -7.082  0.00  0.00    -0.072 S 
ENDBRANCH  11  19
ENDBRANCH  10  11
ENDBRANCH   1  10
BRANCH   8  21
ATOM     21  C   UNL     1       2.448   1.222  -0.076  0.00  0.00    +0.019 C 
BRANCH  21  22
ATOM     22  C   UNL     1       1.050   1.777  -0.175  0.00  0.00    +0.201 C 
ATOM     23  O   UNL     1       0.880   2.953  -0.417  0.00  0.00    -0.278 OA
ATOM     24  N   UNL     1      -0.011   0.966   0.007  0.00  0.00    -0.287 N 
ATOM     25  H   UNL     1       0.122   0.012   0.124  0.00  0.00    +0.155 HD
BRANCH  24  26
ATOM     26  C   UNL     1      -1.306   1.500   0.022  0.00  0.00    +0.034 A 
ATOM     27  C   UNL     1      -1.528   2.770   0.536  0.00  0.00    +0.027 A 
ATOM     28  C   UNL     1      -2.804   3.298   0.546  0.00  0.00    +0.048 A 
ATOM     29  C   UNL     1      -3.866   2.555   0.052  0.00  0.00    +0.130 A 
ATOM     30  C   UNL     1      -3.646   1.283  -0.457  0.00  0.00    +0.048 A 
ATOM     31  C   UNL     1      -2.370   0.756  -0.472  0.00  0.00    +0.027 A 
BRANCH  29  32
ATOM     32  O   UNL     1      -5.123   3.073   0.068  0.00  0.00    -0.406 OA
BRANCH  32  33
ATOM     33  C   UNL     1      -5.277   4.387   0.607  0.00  0.00    +0.575 C 
ATOM     34  F   UNL     1      -4.508   5.289  -0.137  0.00  0.00    -0.133 F 
ATOM     35  F   UNL     1      -6.623   4.762   0.545  0.00  0.00    -0.133 F 
ATOM     36  F   UNL     1      -4.850   4.398   1.939  0.00  0.00    -0.133 F 
ENDBRANCH  32  33
ENDBRANCH  29  32
ENDBRANCH  24  26
ENDBRANCH  21  22
ENDBRANCH   8  21
TORSDOF 8
