REMARK  Name = ZINC02319090
REMARK  7 active torsions:
REMARK  status: ('A' for Active; 'I' for Inactive)
REMARK    1  A    between atoms: C_1  and  N_2
REMARK    2  A    between atoms: C_3  and  C_21
REMARK    3  A    between atoms: C_6  and  S_7
REMARK    4  A    between atoms: S_7  and  C_8
REMARK    5  A    between atoms: C_8  and  C_9
REMARK    6  A    between atoms: N_11  and  N_12
REMARK    7  A    between atoms: C_13  and  C_14
REMARK                            x       y       z     vdW  Elec       q    Type
REMARK                         _______ _______ _______ _____ _____    ______ ____
ROOT
ATOM      1  S   UNL     1      -1.102  -2.324  -0.563  0.00  0.00    -0.077 S 
ENDROOT
BRANCH   1   7
ATOM      2  C   UNL     1      -1.849  -5.504  -0.061  0.00  0.00    +0.153 C 
ATOM      3  N   UNL     1      -2.851  -4.437  -0.017  0.00  0.00    -0.305 N 
ATOM      4  C   UNL     1      -4.199  -4.572   0.227  0.00  0.00    +0.165 A 
ATOM      5  N   UNL     1      -4.722  -3.369   0.174  0.00  0.00    -0.128 NA
ATOM      6  N   UNL     1      -3.806  -2.503  -0.077  0.00  0.00    -0.122 NA
ATOM      7  C   UNL     1      -2.643  -3.101  -0.210  0.00  0.00    +0.192 A 
BRANCH   4   8
ATOM      8  C   UNL     1      -4.920  -5.833   0.498  0.00  0.00    +0.020 A 
ATOM      9  C   UNL     1      -4.225  -6.957   0.948  0.00  0.00    +0.011 A 
ATOM     10  C   UNL     1      -4.904  -8.131   1.199  0.00  0.00    +0.002 A 
ATOM     11  C   UNL     1      -6.272  -8.197   1.006  0.00  0.00    +0.015 A 
ATOM     12  C   UNL     1      -6.969  -7.087   0.560  0.00  0.00    +0.019 A 
ATOM     13  C   UNL     1      -6.301  -5.904   0.310  0.00  0.00    +0.027 A 
ATOM     14 BR   UNL     1      -8.839  -7.188   0.300  0.00  0.00    -0.050 Br
ENDBRANCH   4   8
ENDBRANCH   1   7
BRANCH   1  15
ATOM     15  C   UNL     1      -1.639  -0.599  -0.675  0.00  0.00    +0.174 C 
BRANCH  15  16
ATOM     16  C   UNL     1      -0.452   0.278  -0.980  0.00  0.00    +0.242 C 
ATOM     17  O   UNL     1       0.649  -0.215  -1.109  0.00  0.00    -0.273 OA
ATOM     18  N   UNL     1      -0.613   1.610  -1.110  0.00  0.00    -0.206 N 
ATOM     19  H   UNL     1      -1.494   2.003  -1.011  0.00  0.00    +0.177 HD
BRANCH  18  20
ATOM     20  N   UNL     1       0.490   2.425  -1.393  0.00  0.00    -0.188 NA
ATOM     21  C   UNL     1       0.335   3.707  -1.518  0.00  0.00    +0.138 C 
BRANCH  21  22
ATOM     22  C   UNL     1       1.497   4.565  -1.816  0.00  0.00    -0.005 A 
ATOM     23  C   UNL     1       2.767   4.002  -1.959  0.00  0.00    +0.010 A 
ATOM     24  C   UNL     1       3.848   4.809  -2.244  0.00  0.00    +0.016 A 
ATOM     25  C   UNL     1       3.679   6.177  -2.376  0.00  0.00    +0.018 A 
ATOM     26  C   UNL     1       2.423   6.743  -2.230  0.00  0.00    +0.016 A 
ATOM     27  C   UNL     1       1.333   5.946  -1.951  0.00  0.00    +0.010 A 
ATOM     28 BR   UNL     1       5.168   7.277  -2.758  0.00  0.00    -0.050 Br
ENDBRANCH  21  22
ENDBRANCH  18  20
ENDBRANCH  15  16
ENDBRANCH   1  15
TORSDOF 6
