REMARK  Name = ZINC48025213
REMARK  7 active torsions:
REMARK  status: ('A' for Active; 'I' for Inactive)
REMARK    1  A    between atoms: C_3  and  C_6
REMARK    2  A    between atoms: C_6  and  C_8
REMARK    3  A    between atoms: C_6  and  N_15
REMARK    4  A    between atoms: C_16  and  C_18
REMARK    5  A    between atoms: C_18  and  N_19
REMARK    6  A    between atoms: C_22  and  C_25
REMARK    7  A    between atoms: C_25  and  C_26
REMARK                            x       y       z     vdW  Elec       q    Type
REMARK                         _______ _______ _______ _____ _____    ______ ____
ROOT
ATOM      1  N   UNL     1       4.569   1.019  -0.924  0.00  0.00    -0.306 N 
ATOM      2  C   UNL     1       4.598   1.290  -2.244  0.00  0.00    +0.197 C 
ATOM      3  O   UNL     1       3.955   2.218  -2.687  0.00  0.00    -0.278 OA
ATOM      4  H   UNL     1       5.084   0.277  -0.570  0.00  0.00    +0.150 HD
ENDROOT
BRANCH   1   5
ATOM      5  C   UNL     1       3.761   1.845  -0.024  0.00  0.00    +0.140 C 
BRANCH   5   6
ATOM      6  C   UNL     1       4.330   1.776   1.369  0.00  0.00    -0.022 A 
ATOM      7  C   UNL     1       4.808   0.576   1.861  0.00  0.00    +0.008 A 
ATOM      8  C   UNL     1       5.331   0.511   3.139  0.00  0.00    +0.038 A 
ATOM      9  C   UNL     1       5.377   1.649   3.926  0.00  0.00    +0.123 A 
ATOM     10  C   UNL     1       4.899   2.851   3.432  0.00  0.00    +0.038 A 
ATOM     11  C   UNL     1       4.381   2.914   2.152  0.00  0.00    +0.008 A 
ATOM     12  F   UNL     1       5.888   1.587   5.175  0.00  0.00    -0.205 F 
ENDBRANCH   5   6
BRANCH   5  15
ATOM     13  C   UNL     1      -0.016   1.351   0.009  0.00  0.00    +0.008 A 
ATOM     14  C   UNL     1       1.183   2.038   0.002  0.00  0.00    +0.013 A 
ATOM     15  C   UNL     1       2.343   1.336  -0.013  0.00  0.00    +0.014 A 
ATOM     16  S   UNL     1       1.754  -0.349  -0.017  0.00  0.00    -0.099 S 
ATOM     17  C   UNL     1       0.002  -0.004   0.002  0.00  0.00    +0.045 A 
ENDBRANCH   5  15
ENDBRANCH   1   5
BRANCH   2  18
ATOM     18  C   UNL     1       5.430   0.441  -3.170  0.00  0.00    +0.019 C 
BRANCH  18  19
ATOM     19  N   UNL     1       5.293   0.937  -4.546  0.00  0.00    +0.385 N 
ATOM     20  C   UNL     1       5.857   2.289  -4.635  0.00  0.00    -0.078 C 
ATOM     21  C   UNL     1       5.645   2.843  -6.045  0.00  0.00    -0.015 C 
ATOM     22  C   UNL     1       6.343   1.930  -7.057  0.00  0.00    -0.006 C 
ATOM     23  C   UNL     1       5.800   0.506  -6.904  0.00  0.00    -0.015 C 
ATOM     24  C   UNL     1       6.007   0.039  -5.462  0.00  0.00    -0.078 C 
ATOM     25  H   UNL     1       4.316   0.965  -4.796  0.00  0.00    -0.081 HD
BRANCH  22  26
ATOM     26  C   UNL     1       6.068   2.433  -8.475  0.00  0.00    +0.099 C 
BRANCH  26  27
ATOM     27  C   UNL     1       6.854   1.608  -9.462  0.00  0.00    +0.211 C 
ATOM     28  O   UNL     1       7.564   0.707  -9.069  0.00  0.00    -0.276 OA
ATOM     29  N   UNL     1       6.768   1.872 -10.781  0.00  0.00    -0.329 N 
ATOM     30  H   UNL     1       6.200   2.593 -11.095  0.00  0.00    +0.145 HD
ATOM     31  H   UNL     1       7.274   1.341 -11.416  0.00  0.00    +0.145 HD
ENDBRANCH  26  27
ENDBRANCH  22  26
ENDBRANCH  18  19
ENDBRANCH   2  18
TORSDOF 7
