REMARK  Name = ZINC20777990
REMARK  7 active torsions:
REMARK  status: ('A' for Active; 'I' for Inactive)
REMARK    1  A    between atoms: C_1  and  N_2
REMARK    2  A    between atoms: C_10  and  C_12
REMARK    3  A    between atoms: C_12  and  N_13
REMARK    4  A    between atoms: C_14  and  C_16
REMARK    5  A    between atoms: C_19  and  C_24
REMARK    6  A    between atoms: C_24  and  N_25
REMARK    7  A    between atoms: N_28  and  C_31
REMARK                            x       y       z     vdW  Elec       q    Type
REMARK                         _______ _______ _______ _____ _____    ______ ____
ROOT
ATOM      1  C   UNL     1      -2.626   1.932  -5.733  0.00  0.00    +0.101 A 
ATOM      2  C   UNL     1      -1.357   2.502  -5.656  0.00  0.00    +0.020 A 
ATOM      3  C   UNL     1      -0.548   2.205  -4.559  0.00  0.00    +0.023 A 
ATOM      4  C   UNL     1      -0.995   1.365  -3.591  0.00  0.00    +0.033 A 
ATOM      5  N   UNL     1      -2.227   0.807  -3.659  0.00  0.00    -0.324 N 
ATOM      6  H   UNL     1      -2.570   0.132  -2.861  0.00  0.00    +0.169 HD
ATOM      7  C   UNL     1      -3.050   1.064  -4.694  0.00  0.00    +0.261 A 
ATOM      8  O   UNL     1      -4.155   0.553  -4.737  0.00  0.00    -0.267 OA
ENDROOT
BRANCH   1  10
ATOM      9  N   UNL     1      -4.686   1.578  -6.994  0.00  0.00    -0.307 N 
ATOM     10  C   UNL     1      -3.510   2.225  -6.871  0.00  0.00    +0.250 C 
ATOM     11  O   UNL     1      -3.181   3.052  -7.700  0.00  0.00    -0.270 OA
ATOM     12  H   UNL     1      -5.023   0.893  -6.202  0.00  0.00    +0.149 HD
BRANCH   9  13
ATOM     13  C   UNL     1      -5.516   1.787  -8.184  0.00  0.00    +0.139 C 
BRANCH  13  23
ATOM     14  C   UNL     1      -9.839  -2.791  -7.645  0.00  0.00    +0.129 C 
ATOM     15  N   UNL     1     -10.210  -1.381  -7.825  0.00  0.00    -0.333 N 
ATOM     16  C   UNL     1     -11.174  -0.958  -6.807  0.00  0.00    +0.105 C 
ATOM     17  C   UNL     1     -11.504   0.523  -7.029  0.00  0.00    +0.024 C 
ATOM     18  C   UNL     1     -10.251   1.339  -6.703  0.00  0.00    +0.038 C 
ATOM     19  C   UNL     1      -9.053   0.720  -7.376  0.00  0.00    -0.026 A 
ATOM     20  C   UNL     1      -9.078  -0.570  -7.879  0.00  0.00    +0.033 A 
ATOM     21  C   UNL     1      -7.932  -1.095  -8.477  0.00  0.00    +0.024 A 
ATOM     22  C   UNL     1      -6.787  -0.334  -8.579  0.00  0.00    +0.007 A 
ATOM     23  C   UNL     1      -6.767   0.954  -8.076  0.00  0.00    -0.030 A 
ATOM     24  C   UNL     1      -7.897   1.478  -7.480  0.00  0.00    +0.010 A 
ENDBRANCH  13  23
ENDBRANCH   9  13
ENDBRANCH   1  10
BRANCH   4  25
ATOM     25  C   UNL     1      -0.105   1.051  -2.416  0.00  0.00    +0.137 C 
BRANCH  25  26
ATOM     26  N   UNL     1      -0.710   1.583  -1.188  0.00  0.00    -0.300 NA
ATOM     27  C   UNL     1       0.001   1.097   0.003  0.00  0.00    +0.066 C 
ATOM     28  C   UNL     1      -0.706   1.608   1.261  0.00  0.00    -0.062 C 
ATOM     29  N   UNL     1      -0.743   3.077   1.236  0.00  0.00    +0.385 N 
ATOM     30  C   UNL     1      -1.454   3.564   0.045  0.00  0.00    -0.062 C 
ATOM     31  C   UNL     1      -0.746   3.052  -1.212  0.00  0.00    +0.066 C 
ATOM     32  H   UNL     1       0.294   3.442   1.185  0.00  0.00    -0.081 HD
BRANCH  29  33
ATOM     33  C   UNL     1      -1.348   3.610   2.464  0.00  0.00    -0.065 C 
ATOM     34  C   UNL     1      -1.282   5.138   2.444  0.00  0.00    -0.009 C 
ATOM     35  C   UNL     1      -1.912   5.692   3.723  0.00  0.00    -0.012 C 
ATOM     36  C   UNL     1      -1.147   5.165   4.938  0.00  0.00    +0.007 C 
ATOM     37  C   UNL     1      -1.213   3.637   4.959  0.00  0.00    -0.012 C 
ATOM     38  C   UNL     1      -0.583   3.082   3.679  0.00  0.00    -0.009 C 
ATOM     39  C   UNL     1      -2.674   3.190   5.043  0.00  0.00    +0.007 C 
ATOM     40  C   UNL     1      -3.439   3.717   3.827  0.00  0.00    -0.012 C 
ATOM     41  C   UNL     1      -3.373   5.246   3.807  0.00  0.00    +0.007 C 
ATOM     42  C   UNL     1      -2.809   3.163   2.548  0.00  0.00    -0.009 C 
ENDBRANCH  29  33
ENDBRANCH  25  26
ENDBRANCH   4  25
TORSDOF 6
