REMARK  Name = ZINC67298251
REMARK  5 active torsions:
REMARK  status: ('A' for Active; 'I' for Inactive)
REMARK    1  A    between atoms: C_1  and  C_2
REMARK    2  A    between atoms: C_5  and  N_9
REMARK    3  A    between atoms: C_7  and  C_8
REMARK    4  A    between atoms: C_11  and  C_21
REMARK    5  A    between atoms: C_16  and  O_20
REMARK                            x       y       z     vdW  Elec       q    Type
REMARK                         _______ _______ _______ _____ _____    ______ ____
ROOT
ATOM      1  N   UNL     1       0.055  -4.143  -0.012  0.00  0.00    -0.325 N 
ATOM      2  C   UNL     1      -0.745  -4.806  -0.820  0.00  0.00    +0.212 A 
ATOM      3  C   UNL     1      -0.674  -6.276  -0.929  0.00  0.00    +0.097 A 
ATOM      4  C   UNL     1      -1.821  -6.942  -1.336  0.00  0.00    +0.030 A 
ATOM      5  C   UNL     1      -2.968  -6.169  -1.650  0.00  0.00    +0.018 A 
ATOM      6  C   UNL     1      -4.205  -6.794  -1.871  0.00  0.00    +0.015 A 
ATOM      7  C   UNL     1      -5.311  -6.038  -2.131  0.00  0.00    +0.046 A 
ATOM      8  C   UNL     1      -5.221  -4.648  -2.186  0.00  0.00    +0.120 A 
ATOM      9  C   UNL     1      -4.003  -4.015  -1.990  0.00  0.00    +0.092 A 
ATOM     10  C   UNL     1      -2.869  -4.767  -1.733  0.00  0.00    +0.141 A 
ATOM     11  O   UNL     1      -1.669  -4.161  -1.578  0.00  0.00    -0.438 OA
ATOM     12  H   UNL     1       0.648  -4.625   0.586  0.00  0.00    +0.169 HD
ENDROOT
BRANCH   1  17
ATOM     13  C   UNL     1       0.037   1.501  -0.029  0.00  0.00    +0.044 C 
ATOM     14  C   UNL     1       0.042  -0.006  -0.025  0.00  0.00    -0.047 A 
ATOM     15  C   UNL     1       0.050  -0.698  -1.223  0.00  0.00    +0.005 A 
ATOM     16  C   UNL     1       0.055  -2.077  -1.227  0.00  0.00    +0.026 A 
ATOM     17  C   UNL     1       0.051  -2.776  -0.016  0.00  0.00    +0.042 A 
ATOM     18  C   UNL     1       0.043  -2.070   1.189  0.00  0.00    +0.029 A 
ATOM     19  C   UNL     1       0.044  -0.691   1.178  0.00  0.00    -0.046 A 
ATOM     20  C   UNL     1       0.041   0.072   2.477  0.00  0.00    +0.044 C 
ENDBRANCH   1  17
BRANCH   3  21
ATOM     21  C   UNL     1       0.565  -7.006  -0.618  0.00  0.00    +0.247 C 
ATOM     22  O   UNL     1       1.530  -6.409  -0.179  0.00  0.00    -0.270 OA
ATOM     23  N   UNL     1       0.631  -8.338  -0.819  0.00  0.00    -0.325 N 
ATOM     24  H   UNL     1      -0.111  -8.802  -1.236  0.00  0.00    +0.145 HD
ATOM     25  H   UNL     1       1.420  -8.831  -0.546  0.00  0.00    +0.145 HD
ENDBRANCH   3  21
BRANCH   8  26
ATOM     26  O   UNL     1      -6.332  -3.910  -2.434  0.00  0.00    -0.507 OA
ATOM     27  H   UNL     1      -6.817  -3.651  -1.639  0.00  0.00    +0.292 HD
ENDBRANCH   8  26
TORSDOF 3
