REMARK  Name = ZINC36159513
REMARK  13 active torsions:
REMARK  status: ('A' for Active; 'I' for Inactive)
REMARK    1  A    between atoms: C_1  and  C_2
REMARK    2  A    between atoms: C_7  and  O_8
REMARK    3  A    between atoms: O_8  and  C_9
REMARK    4  A    between atoms: C_9  and  C_10
REMARK    5  A    between atoms: C_10  and  C_12
REMARK    6  A    between atoms: C_10  and  O_33
REMARK    7  A    between atoms: C_12  and  N_13
REMARK    8  A    between atoms: N_13  and  C_14
REMARK    9  A    between atoms: N_13  and  C_29
REMARK   10  A    between atoms: C_14  and  C_15
REMARK   11  A    between atoms: C_29  and  C_30
REMARK   12  A    between atoms: C_30  and  C_31
REMARK   13  A    between atoms: C_30  and  C_32
REMARK                            x       y       z     vdW  Elec       q    Type
REMARK                         _______ _______ _______ _____ _____    ______ ____
ROOT
ATOM      1  N   UNL     1       0.280   0.270   7.093  0.00  0.00    +0.386 N 
ATOM      2  H   UNL     1       0.919   1.031   6.923  0.00  0.00    -0.081 HD
ENDROOT
BRANCH   1   3
ATOM      3  C   UNL     1       0.260  -0.623   5.926  0.00  0.00    -0.043 C 
BRANCH   3   4
ATOM      4  C   UNL     1      -0.011   0.196   4.662  0.00  0.00    +0.135 C 
BRANCH   4   5
ATOM      5  O   UNL     1      -1.351   0.693   4.695  0.00  0.00    -0.390 OA
ATOM      6  H   UNL     1      -2.026   0.002   4.737  0.00  0.00    +0.210 HD
ENDBRANCH   4   5
BRANCH   4   7
ATOM      7  C   UNL     1       0.173  -0.691   3.430  0.00  0.00    +0.258 C 
BRANCH   7   8
ATOM      8  O   UNL     1       0.035   0.100   2.248  0.00  0.00    -0.489 OA
BRANCH   8  15
ATOM      9  C   UNL     1      -0.236   1.646  -0.101  0.00  0.00    +0.047 C 
ATOM     10  C   UNL     1       0.049   0.166  -0.130  0.00  0.00    -0.009 A 
ATOM     11  C   UNL     1       0.195  -0.486  -1.339  0.00  0.00    +0.007 A 
ATOM     12  C   UNL     1       0.456  -1.843  -1.367  0.00  0.00    +0.000 A 
ATOM     13  C   UNL     1       0.573  -2.551  -0.185  0.00  0.00    +0.004 A 
ATOM     14  C   UNL     1       0.428  -1.904   1.027  0.00  0.00    +0.046 A 
ATOM     15  C   UNL     1       0.172  -0.541   1.057  0.00  0.00    +0.124 A 
ENDBRANCH   8  15
ENDBRANCH   7   8
ENDBRANCH   4   7
ENDBRANCH   3   4
ENDBRANCH   1   3
BRANCH   1  16
ATOM     16  C   UNL     1       0.717  -0.482   8.277  0.00  0.00    -0.003 C 
BRANCH  16  17
ATOM     17  C   UNL     1       2.156  -0.897   8.105  0.00  0.00    +0.094 A 
ATOM     18  N   UNL     1       2.729  -1.711   9.028  0.00  0.00    -0.312 N 
ATOM     19  H   UNL     1       2.204  -2.015   9.785  0.00  0.00    +0.170 HD
ATOM     20  C   UNL     1       4.012  -2.105   8.914  0.00  0.00    +0.260 A 
ATOM     21  O   UNL     1       4.513  -2.836   9.750  0.00  0.00    -0.267 OA
ATOM     22  C   UNL     1       4.776  -1.649   7.791  0.00  0.00    +0.075 A 
ATOM     23  C   UNL     1       6.178  -1.949   7.466  0.00  0.00    -0.023 A 
ATOM     24  C   UNL     1       6.674  -1.396   6.346  0.00  0.00    -0.004 A 
ATOM     25  S   UNL     1       5.327  -0.458   5.662  0.00  0.00    -0.073 S 
ATOM     26  C   UNL     1       4.100  -0.813   6.892  0.00  0.00    +0.116 A 
ATOM     27  N   UNL     1       2.827  -0.470   7.069  0.00  0.00    -0.229 NA
ATOM     28  C   UNL     1       8.114  -1.767   6.119  0.00  0.00    +0.043 C 
ATOM     29  C   UNL     1       8.600  -2.295   7.487  0.00  0.00    +0.010 C 
ATOM     30  C   UNL     1       7.282  -2.786   8.118  0.00  0.00    +0.037 C 
ENDBRANCH  16  17
ENDBRANCH   1  16
BRANCH   1  31
ATOM     31  C   UNL     1      -1.069   0.805   7.323  0.00  0.00    -0.075 C 
BRANCH  31  32
ATOM     32  C   UNL     1      -1.036   1.781   8.500  0.00  0.00    -0.034 C 
ATOM     33  C   UNL     1      -0.158   2.982   8.143  0.00  0.00    +0.005 C 
ATOM     34  C   UNL     1      -2.456   2.261   8.805  0.00  0.00    +0.005 C 
ENDBRANCH  31  32
ENDBRANCH   1  31
TORSDOF 10
