REMARK  Name = ZINC04577563
REMARK  12 active torsions:
REMARK  status: ('A' for Active; 'I' for Inactive)
REMARK    1  A    between atoms: C_1  and  C_2
REMARK    2  A    between atoms: C_2  and  C_3
REMARK    3  A    between atoms: C_3  and  C_5
REMARK    4  A    between atoms: C_3  and  C_6
REMARK    5  A    between atoms: C_6  and  C_8
REMARK    6  A    between atoms: C_6  and  N_78
REMARK    7  A    between atoms: N_10  and  C_11
REMARK    8  A    between atoms: C_11  and  C_12
REMARK    9  A    between atoms: C_12  and  C_13
REMARK   10  A    between atoms: C_13  and  C_14
REMARK   11  A    between atoms: C_14  and  C_15
REMARK   12  A    between atoms: C_15  and  C_16
REMARK                            x       y       z     vdW  Elec       q    Type
REMARK                         _______ _______ _______ _____ _____    ______ ____
ROOT
ATOM      1  C   UNL     1       7.388   0.361  -0.067  0.00  0.00    +0.216 C 
ATOM      2  O   UNL     1       7.182  -0.834  -0.071  0.00  0.00    -0.276 OA
ATOM      3  N   UNL     1       8.652   0.828  -0.076  0.00  0.00    -0.297 N 
ATOM      4  C   UNL     1       8.901   2.272  -0.077  0.00  0.00    +0.136 C 
ATOM      5  C   UNL     1      10.091   2.578   0.842  0.00  0.00    +0.179 C 
ATOM      6  O   UNL     1      10.390   3.974   0.784  0.00  0.00    -0.375 OA
ATOM      7  C   UNL     1      10.687   4.557   2.055  0.00  0.00    +0.200 C 
ATOM      8  C   UNL     1      11.709   3.686   2.789  0.00  0.00    +0.257 C 
ATOM      9  O   UNL     1      11.111   3.138   3.966  0.00  0.00    -0.486 OA
ATOM     10  C   UNL     1      11.953   2.653   4.917  0.00  0.00    +0.162 A 
ATOM     11  C   UNL     1      12.472   3.501   5.883  0.00  0.00    +0.049 A 
ATOM     12  C   UNL     1      13.331   3.007   6.847  0.00  0.00    +0.004 A 
ATOM     13  C   UNL     1      13.674   1.668   6.851  0.00  0.00    +0.004 A 
ATOM     14  C   UNL     1      13.159   0.817   5.890  0.00  0.00    +0.049 A 
ATOM     15  C   UNL     1      12.298   1.305   4.921  0.00  0.00    +0.162 A 
ATOM     16  O   UNL     1      11.790   0.469   3.976  0.00  0.00    -0.486 OA
ATOM     17  C   UNL     1      11.182  -0.739   4.438  0.00  0.00    +0.257 C 
ATOM     18  C   UNL     1      10.647  -1.530   3.244  0.00  0.00    +0.200 C 
ATOM     19  O   UNL     1      10.664  -0.705   2.077  0.00  0.00    -0.375 OA
ATOM     20  C   UNL     1       9.674  -1.053   1.107  0.00  0.00    +0.179 C 
ATOM     21  C   UNL     1       9.779  -0.108  -0.092  0.00  0.00    +0.136 C 
ENDROOT
BRANCH   1  22
ATOM     22  C   UNL     1       6.229   1.325  -0.050  0.00  0.00    +0.096 C 
BRANCH  22  23
ATOM     23  C   UNL     1       4.915   0.542  -0.042  0.00  0.00    +0.009 C 
BRANCH  23  24
ATOM     24  C   UNL     1       3.738   1.520  -0.025  0.00  0.00    +0.002 C 
BRANCH  24  25
ATOM     25  C   UNL     1       2.424   0.737  -0.017  0.00  0.00    +0.019 C 
BRANCH  25  26
ATOM     26  C   UNL     1       1.248   1.716  -0.001  0.00  0.00    +0.104 C 
BRANCH  26  29
ATOM     27  C   UNL     1      -1.187   1.624   0.017  0.00  0.00    +0.199 C 
ATOM     28  O   UNL     1      -1.204   2.837   0.023  0.00  0.00    -0.278 OA
ATOM     29  N   UNL     1      -0.011   0.966   0.007  0.00  0.00    -0.317 N 
ATOM     30  H   UNL     1       0.002  -0.004   0.002  0.00  0.00    +0.149 HD
BRANCH  27  31
ATOM     31  C   UNL     1      -2.482   0.853   0.018  0.00  0.00    +0.016 C 
BRANCH  31  34
ATOM     32  H   UNL     1      -4.438   1.211  -0.514  0.00  0.00    -0.089 HD
ATOM     33  H   UNL     1      -3.672   2.527   0.156  0.00  0.00    -0.089 HD
ATOM     34  N   UNL     1      -3.562   1.729  -0.468  0.00  0.00    +0.386 N 
ATOM     35  H   UNL     1      -3.324   2.069  -1.407  0.00  0.00    -0.089 HD
ENDBRANCH  31  34
BRANCH  31  36
ATOM     36  C   UNL     1      -2.785   0.369   1.438  0.00  0.00    -0.020 C 
ATOM     37  C   UNL     1      -1.651  -0.538   1.921  0.00  0.00    +0.006 C 
BRANCH  36  39
ATOM     38  C   UNL     1      -4.467  -0.791   2.877  0.00  0.00    +0.004 C 
ATOM     39  C   UNL     1      -4.100  -0.414   1.440  0.00  0.00    -0.001 C 
ENDBRANCH  36  39
ENDBRANCH  31  36
ENDBRANCH  27  31
ENDBRANCH  26  29
ENDBRANCH  25  26
ENDBRANCH  24  25
ENDBRANCH  23  24
ENDBRANCH  22  23
ENDBRANCH   1  22
TORSDOF 10
