REMARK  Name = ZINC03851015
REMARK  9 active torsions:
REMARK  status: ('A' for Active; 'I' for Inactive)
REMARK    1  A    between atoms: C_1  and  C_2
REMARK    2  A    between atoms: C_2  and  O_3
REMARK    3  A    between atoms: O_3  and  C_4
REMARK    4  A    between atoms: C_7  and  C_10
REMARK    5  A    between atoms: N_12  and  C_13
REMARK    6  A    between atoms: C_13  and  C_14
REMARK    7  A    between atoms: C_14  and  N_15
REMARK    8  A    between atoms: C_17  and  S_24
REMARK    9  A    between atoms: S_24  and  C_25
REMARK                            x       y       z     vdW  Elec       q    Type
REMARK                         _______ _______ _______ _____ _____    ______ ____
ROOT
ATOM      1  N   UNL     1      -3.801   2.299  -0.089  0.00  0.00    -0.344 N 
ATOM      2  C   UNL     1      -2.584   1.659  -0.102  0.00  0.00    +0.102 A 
ATOM      3  C   UNL     1      -2.769   0.329  -0.010  0.00  0.00    +0.040 A 
ATOM      4  C   UNL     1      -4.217   0.102   0.063  0.00  0.00    +0.014 A 
ATOM      5  C   UNL     1      -4.815   1.374   0.015  0.00  0.00    +0.050 A 
ATOM      6  C   UNL     1      -6.201   1.478   0.070  0.00  0.00    +0.026 A 
ATOM      7  C   UNL     1      -6.970   0.340   0.176  0.00  0.00    +0.002 A 
ATOM      8  C   UNL     1      -6.374  -0.913   0.228  0.00  0.00    +0.001 A 
ATOM      9  C   UNL     1      -5.014  -1.038   0.175  0.00  0.00    +0.011 A 
ENDROOT
BRANCH   1  10
ATOM     10  C   UNL     1      -3.990   3.750  -0.173  0.00  0.00    +0.140 C 
BRANCH  10  11
ATOM     11  C   UNL     1      -4.116   4.330   1.237  0.00  0.00    +0.126 C 
BRANCH  11  14
ATOM     12  C   UNL     1      -4.441   6.509   2.279  0.00  0.00    +0.244 C 
ATOM     13  O   UNL     1      -4.407   5.962   3.365  0.00  0.00    -0.270 OA
ATOM     14  N   UNL     1      -4.305   5.780   1.153  0.00  0.00    -0.310 N 
ATOM     15  H   UNL     1      -4.336   6.275   0.171  0.00  0.00    +0.149 HD
BRANCH  12  19
ATOM     16  C   UNL     1      -4.988  10.713   2.036  0.00  0.00    +0.121 A 
ATOM     17  C   UNL     1      -4.950  10.090   3.277  0.00  0.00    +0.046 A 
ATOM     18  C   UNL     1      -4.773   8.727   3.361  0.00  0.00    +0.016 A 
ATOM     19  C   UNL     1      -4.632   7.970   2.195  0.00  0.00    +0.037 A 
ATOM     20  C   UNL     1      -4.665   8.601   0.948  0.00  0.00    +0.016 A 
ATOM     21  C   UNL     1      -4.848   9.964   0.873  0.00  0.00    +0.046 A 
BRANCH  16  22
ATOM     22  O   UNL     1      -5.163  12.056   1.958  0.00  0.00    -0.492 OA
BRANCH  22  24
ATOM     23  C   UNL     1      -5.396  14.144   0.763  0.00  0.00    +0.048 C 
ATOM     24  C   UNL     1      -5.192  12.632   0.650  0.00  0.00    +0.225 C 
ENDBRANCH  22  24
ENDBRANCH  16  22
ENDBRANCH  12  19
ENDBRANCH  11  14
ENDBRANCH  10  11
ENDBRANCH   1  10
BRANCH   3  25
ATOM     25  S   UNL     1      -1.512  -0.906   0.012  0.00  0.00    -0.055 S 
BRANCH  25  26
ATOM     26  C   UNL     1      -1.519  -1.320   1.724  0.00  0.00    +0.127 C 
ATOM     27  N   UNL     1      -2.267  -0.647   2.555  0.00  0.00    -0.382 N 
ATOM     28  N   UNL     1      -0.735  -2.352   2.186  0.00  0.00    -0.339 N 
ATOM     29  H   UNL     1      -2.272  -0.906   3.624  0.00  0.00    +0.158 HD
ATOM     30  H   UNL     1      -0.739  -2.611   3.255  0.00  0.00    +0.144 HD
ATOM     31  H   UNL     1      -0.103  -2.919   1.486  0.00  0.00    +0.144 HD
ATOM     32  H   UNL     1      -2.894   0.178   2.186  0.00  0.00    +0.158 HD
ENDBRANCH  25  26
ENDBRANCH   3  25
TORSDOF 8
