REMARK  Name = ZINC44118138
REMARK  9 active torsions:
REMARK  status: ('A' for Active; 'I' for Inactive)
REMARK    1  A    between atoms: C_1  and  N_2
REMARK    2  A    between atoms: N_2  and  C_3
REMARK    3  A    between atoms: N_2  and  C_4
REMARK    4  A    between atoms: C_4  and  C_6
REMARK    5  A    between atoms: C_4  and  C_26
REMARK    6  A    between atoms: C_6  and  N_7
REMARK    7  A    between atoms: N_10  and  C_11
REMARK    8  A    between atoms: C_14  and  N_17
REMARK    9  A    between atoms: C_18  and  C_20
REMARK                            x       y       z     vdW  Elec       q    Type
REMARK                         _______ _______ _______ _____ _____    ______ ____
ROOT
ATOM      1  N   UNL     1      -0.494  -1.814   0.405  0.00  0.00    -0.300 N 
ATOM      2  C   UNL     1      -0.283  -3.144   0.449  0.00  0.00    +0.304 C 
ATOM      3  O   UNL     1      -0.726  -3.859  -0.428  0.00  0.00    -0.253 OA
ATOM      4  N   UNL     1       0.419  -3.682   1.467  0.00  0.00    -0.269 N 
ATOM      5  H   UNL     1      -0.140  -1.243   1.105  0.00  0.00    +0.150 HD
ATOM      6  H   UNL     1       0.702  -3.125   2.208  0.00  0.00    +0.156 HD
ENDROOT
BRANCH   4   7
ATOM      7  C   UNL     1       0.739  -5.046   1.453  0.00  0.00    +0.035 A 
ATOM      8  C   UNL     1       0.775  -5.763   2.641  0.00  0.00    +0.025 A 
ATOM      9  C   UNL     1       1.091  -7.107   2.628  0.00  0.00    +0.025 A 
ATOM     10  C   UNL     1       1.373  -7.741   1.425  0.00  0.00    +0.034 A 
ATOM     11  C   UNL     1       1.337  -7.024   0.237  0.00  0.00    +0.025 A 
ATOM     12  C   UNL     1       1.016  -5.682   0.250  0.00  0.00    +0.025 A 
BRANCH  10  13
ATOM     13  N   UNL     1       1.694  -9.105   1.411  0.00  0.00    -0.283 N 
ATOM     14  C   UNL     1       1.109  -9.944   2.289  0.00  0.00    +0.246 C 
ATOM     15  O   UNL     1       0.231  -9.540   3.022  0.00  0.00    -0.273 OA
ATOM     16  H   UNL     1       2.338  -9.445   0.770  0.00  0.00    +0.155 HD
BRANCH  14  17
ATOM     17  C   UNL     1       1.546 -11.384   2.360  0.00  0.00    +0.204 C 
ATOM     18  C   UNL     1       1.203 -12.102   1.037  0.00  0.00    +0.043 C 
ATOM     19  C   UNL     1       0.731 -13.496   1.531  0.00  0.00    +0.031 C 
ATOM     20  C   UNL     1       0.043 -13.118   2.867  0.00  0.00    +0.161 C 
ATOM     21  O   UNL     1       0.843 -12.054   3.413  0.00  0.00    -0.367 OA
ENDBRANCH  14  17
ENDBRANCH  10  13
ENDBRANCH   4   7
BRANCH   1  22
ATOM     22  C   UNL     1      -1.256  -1.229  -0.701  0.00  0.00    +0.095 C 
BRANCH  22  23
ATOM     23  C   UNL     1      -1.456   0.266  -0.448  0.00  0.00    -0.014 C 
BRANCH  23  24
ATOM     24  C   UNL     1      -2.233   0.461   0.829  0.00  0.00    -0.022 A 
ATOM     25  C   UNL     1      -1.778   0.785   2.064  0.00  0.00    +0.009 A 
ATOM     26  C   UNL     1      -2.684   0.913   3.100  0.00  0.00    +0.008 A 
ATOM     27  C   UNL     1      -4.001   0.709   2.851  0.00  0.00    +0.045 A 
ATOM     28  S   UNL     1      -3.992   0.331   1.106  0.00  0.00    -0.103 S 
ENDBRANCH  23  24
BRANCH  23  30
ATOM     29  C   UNL     1      -2.300   2.311  -1.377  0.00  0.00    -0.096 C 
ATOM     30  N   UNL     1      -2.200   0.857  -1.568  0.00  0.00    +0.382 N 
ATOM     31  C   UNL     1      -1.496   0.576  -2.826  0.00  0.00    -0.096 C 
ATOM     32  H   UNL     1      -3.126   0.459  -1.604  0.00  0.00    -0.082 HD
ENDBRANCH  23  30
ENDBRANCH  22  23
ENDBRANCH   1  22
TORSDOF 7
