REMARK  Name = ZINC08964475
REMARK  8 active torsions:
REMARK  status: ('A' for Active; 'I' for Inactive)
REMARK    1  A    between atoms: C_1  and  C_2
REMARK    2  A    between atoms: C_4  and  O_11
REMARK    3  A    between atoms: C_7  and  N_8
REMARK    4  A    between atoms: O_11  and  C_12
REMARK    5  A    between atoms: C_12  and  C_13
REMARK    6  A    between atoms: C_15  and  C_21
REMARK    7  A    between atoms: C_18  and  O_19
REMARK    8  A    between atoms: O_19  and  C_20
REMARK                            x       y       z     vdW  Elec       q    Type
REMARK                         _______ _______ _______ _____ _____    ______ ____
ROOT
ATOM      1  C   UNL     1       2.319  -2.075   1.217  0.00  0.00    +0.031 A 
ATOM      2  C   UNL     1       1.895  -1.130   0.303  0.00  0.00    +0.013 A 
ATOM      3  C   UNL     1       1.605   0.156   0.721  0.00  0.00    -0.055 A 
ATOM      4  C   UNL     1       1.743   0.500   2.053  0.00  0.00    +0.006 A 
ATOM      5  C   UNL     1       2.161  -0.443   2.972  0.00  0.00    +0.046 A 
ATOM      6  C   UNL     1       2.453  -1.734   2.555  0.00  0.00    +0.126 A 
ENDROOT
BRANCH   3   7
ATOM      7  C   UNL     1       1.143   1.185  -0.278  0.00  0.00    +0.007 C 
ATOM      8  C   UNL     1      -0.359   1.325  -0.205  0.00  0.00    +0.010 A 
ATOM      9  C   UNL     1      -0.989   2.522  -0.225  0.00  0.00    -0.022 A 
ATOM     10  C   UNL     1      -2.408   2.259  -0.136  0.00  0.00    +0.003 A 
ATOM     11  C   UNL     1      -3.530   3.093  -0.114  0.00  0.00    +0.010 A 
ATOM     12  C   UNL     1      -4.756   2.482  -0.019  0.00  0.00    +0.001 A 
ATOM     13  C   UNL     1      -4.889   1.105   0.050  0.00  0.00    +0.002 A 
ATOM     14  C   UNL     1      -3.797   0.256   0.029  0.00  0.00    +0.026 A 
ATOM     15  C   UNL     1      -2.539   0.847  -0.071  0.00  0.00    +0.047 A 
ATOM     16  N   UNL     1      -1.280   0.318  -0.110  0.00  0.00    -0.359 N 
ATOM     17  H   UNL     1      -1.071  -0.628  -0.079  0.00  0.00    +0.166 HD
ATOM     18  C   UNL     1      -0.266   3.841  -0.326  0.00  0.00    +0.018 C 
ATOM     19  C   UNL     1       1.170   3.561  -0.789  0.00  0.00    -0.076 C 
ATOM     20  N   UNL     1       1.759   2.492   0.043  0.00  0.00    +0.387 N 
ATOM     21  H   UNL     1       2.769   2.442  -0.135  0.00  0.00    -0.084 HD
ATOM     22  H   UNL     1       1.597   2.707   1.034  0.00  0.00    -0.084 HD
ENDBRANCH   3   7
BRANCH   6  23
ATOM     23  O   UNL     1       2.870  -2.662   3.456  0.00  0.00    -0.495 OA
ATOM     24  C   UNL     1       2.985  -2.240   4.816  0.00  0.00    +0.277 C 
ENDBRANCH   6  23
BRANCH   1  25
ATOM     25  C   UNL     1       2.636  -3.476   0.761  0.00  0.00    +0.268 C 
BRANCH  25  26
ATOM     26  O   UNL     1       2.423  -3.578  -0.648  0.00  0.00    -0.487 OA
BRANCH  26  30
ATOM     27  C   UNL     1       2.523  -6.368  -4.651  0.00  0.00    +0.046 C 
ATOM     28  C   UNL     1       2.726  -6.183  -3.170  0.00  0.00    -0.017 A 
ATOM     29  C   UNL     1       2.478  -4.955  -2.587  0.00  0.00    +0.051 A 
ATOM     30  C   UNL     1       2.665  -4.785  -1.223  0.00  0.00    +0.121 A 
ATOM     31  C   UNL     1       3.104  -5.849  -0.448  0.00  0.00    +0.048 A 
ATOM     32  C   UNL     1       3.345  -7.076  -1.034  0.00  0.00    +0.036 A 
ATOM     33  C   UNL     1       3.158  -7.243  -2.394  0.00  0.00    +0.129 A 
BRANCH  33  34
ATOM     34  N   UNL     1       3.422  -8.557  -3.020  0.00  0.00    +0.057 N 
ATOM     35  O   UNL     1       3.148  -9.583  -2.422  0.00  0.00    -0.126 OA
ATOM     36  O   UNL     1       3.913  -8.614  -4.133  0.00  0.00    -0.126 OA
ENDBRANCH  33  34
ENDBRANCH  26  30
ENDBRANCH  25  26
ENDBRANCH   1  25
TORSDOF 6
