REMARK  Name = ZINC50660122
REMARK  7 active torsions:
REMARK  status: ('A' for Active; 'I' for Inactive)
REMARK    1  A    between atoms: C_1  and  N_2
REMARK    2  A    between atoms: C_5  and  C_8
REMARK    3  A    between atoms: C_8  and  N_9
REMARK    4  A    between atoms: N_9  and  S_10
REMARK    5  A    between atoms: S_10  and  C_13
REMARK    6  A    between atoms: C_15  and  N_22
REMARK    7  A    between atoms: C_18  and  N_19
REMARK                            x       y       z     vdW  Elec       q    Type
REMARK                         _______ _______ _______ _____ _____    ______ ____
ROOT
ATOM      1  S   UNL     1       4.328  -4.402   1.460  0.00  0.00    +0.061 S 
ATOM      2  O   UNL     1       4.561  -5.679   0.883  0.00  0.00    -0.153 OA
ATOM      3  O   UNL     1       5.133  -3.270   1.157  0.00  0.00    -0.153 OA
ENDROOT
BRANCH   1   4
ATOM      4  C   UNL     1       4.402  -4.617   3.208  0.00  0.00    +0.137 A 
ATOM      5  C   UNL     1       5.204  -3.792   3.971  0.00  0.00    +0.053 A 
ATOM      6  C   UNL     1       5.261  -3.963   5.348  0.00  0.00    +0.027 A 
ATOM      7  C   UNL     1       4.510  -4.963   5.953  0.00  0.00    +0.025 A 
ATOM      8  C   UNL     1       3.710  -5.784   5.184  0.00  0.00    +0.036 A 
ATOM      9  C   UNL     1       3.652  -5.609   3.813  0.00  0.00    +0.152 A 
BRANCH   9  10
ATOM     10  N   UNL     1       2.789  -6.487   2.992  0.00  0.00    +0.058 N 
ATOM     11  O   UNL     1       2.233  -7.434   3.499  0.00  0.00    -0.126 OA
ATOM     12  O   UNL     1       2.639  -6.258   1.814  0.00  0.00    -0.126 OA
ENDBRANCH   9  10
BRANCH   6  13
ATOM     13  N   UNL     1       6.072  -3.131   6.124  0.00  0.00    -0.358 N 
ATOM     14  H   UNL     1       6.596  -2.433   5.700  0.00  0.00    +0.142 HD
ATOM     15  H   UNL     1       6.111  -3.251   7.086  0.00  0.00    +0.142 HD
ENDBRANCH   6  13
ENDBRANCH   1   4
BRANCH   1  16
ATOM     16  N   UNL     1       2.770  -3.989   1.083  0.00  0.00    -0.190 NA
ATOM     17  H   UNL     1       2.236  -4.572   0.520  0.00  0.00    +0.148 HD
BRANCH  16  18
ATOM     18  C   UNL     1       2.196  -2.744   1.600  0.00  0.00    +0.107 C 
BRANCH  18  23
ATOM     19  C   UNL     1      -0.667   0.882   0.262  0.00  0.00    -0.096 C 
ATOM     20  N   UNL     1      -0.437  -0.564   0.134  0.00  0.00    +0.378 N 
ATOM     21  C   UNL     1       0.420  -0.841  -1.039  0.00  0.00    -0.079 C 
ATOM     22  C   UNL     1       1.325  -2.031  -0.667  0.00  0.00    -0.016 C 
ATOM     23  C   UNL     1       0.948  -2.383   0.791  0.00  0.00    -0.014 C 
ATOM     24  C   UNL     1       0.314  -1.069   1.312  0.00  0.00    -0.075 C 
ATOM     25  H   UNL     1      -1.316  -1.050   0.047  0.00  0.00    -0.082 HD
ENDBRANCH  18  23
ENDBRANCH  16  18
ENDBRANCH   1  16
TORSDOF 6
