REMARK  Name = ZINC01936361
REMARK  7 active torsions:
REMARK  status: ('A' for Active; 'I' for Inactive)
REMARK    1  A    between atoms: C_4  and  C_7
REMARK    2  A    between atoms: C_7  and  C_9
REMARK    3  A    between atoms: C_14  and  N_15
REMARK    4  A    between atoms: C_16  and  C_18
REMARK    5  A    between atoms: C_18  and  O_19
REMARK    6  A    between atoms: O_19  and  C_20
REMARK    7  A    between atoms: C_20  and  C_22
REMARK                            x       y       z     vdW  Elec       q    Type
REMARK                         _______ _______ _______ _____ _____    ______ ____
ROOT
ATOM      1  C   UNL     1      -1.311   6.141   0.097  0.00  0.00    +0.045 A 
ATOM      2  C   UNL     1      -2.563   5.527   0.192  0.00  0.00    +0.033 A 
ATOM      3  C   UNL     1      -3.704   6.298   0.247  0.00  0.00    +0.042 A 
ATOM      4  C   UNL     1      -3.617   7.681   0.210  0.00  0.00    +0.022 A 
ATOM      5  C   UNL     1      -2.388   8.302   0.116  0.00  0.00    +0.025 A 
ATOM      6  C   UNL     1      -1.227   7.542   0.064  0.00  0.00    +0.044 A 
ATOM      7 CL   UNL     1      -5.258   5.533   0.366  0.00  0.00    -0.084 Cl
ENDROOT
BRANCH   6   8
ATOM      8  N   UNL     1       0.015   8.167  -0.024  0.00  0.00    -0.282 N 
ATOM      9  C   UNL     1       0.110   9.405  -0.549  0.00  0.00    +0.255 C 
ATOM     10  O   UNL     1      -0.865   9.932  -1.040  0.00  0.00    -0.272 OA
ATOM     11  H   UNL     1       0.811   7.711   0.291  0.00  0.00    +0.155 HD
BRANCH   9  12
ATOM     12  C   UNL     1       1.429  10.134  -0.524  0.00  0.00    +0.328 C 
BRANCH  12  13
ATOM     13  O   UNL     1       1.273  11.437  -1.144  0.00  0.00    -0.452 OA
BRANCH  13  14
ATOM     14  C   UNL     1       2.367  12.221  -1.203  0.00  0.00    +0.341 C 
ATOM     15  O   UNL     1       3.423  11.827  -0.749  0.00  0.00    -0.245 OA
BRANCH  14  16
ATOM     16  C   UNL     1       2.284  13.560  -1.820  0.00  0.00    +0.073 A 
ATOM     17  C   UNL     1       1.073  14.015  -2.349  0.00  0.00    +0.016 A 
ATOM     18  C   UNL     1       1.001  15.268  -2.919  0.00  0.00    +0.001 A 
ATOM     19  C   UNL     1       2.127  16.072  -2.979  0.00  0.00    +0.001 A 
ATOM     20  C   UNL     1       3.330  15.627  -2.462  0.00  0.00    +0.016 A 
ATOM     21  C   UNL     1       3.416  14.376  -1.883  0.00  0.00    +0.032 A 
ATOM     22 BR   UNL     1       5.062  13.769  -1.179  0.00  0.00    -0.049 Br
ENDBRANCH  14  16
ENDBRANCH  13  14
ENDBRANCH  12  13
ENDBRANCH   9  12
ENDBRANCH   6   8
BRANCH   1  23
ATOM     23  C   UNL     1      -0.086   5.324   0.037  0.00  0.00    +0.195 C 
ATOM     24  O   UNL     1       0.294   4.724   1.025  0.00  0.00    -0.287 OA
BRANCH  23  28
ATOM     25  C   UNL     1       2.117   5.060  -3.585  0.00  0.00    +0.000 A 
ATOM     26  C   UNL     1       0.915   5.745  -3.558  0.00  0.00    +0.001 A 
ATOM     27  C   UNL     1       0.192   5.830  -2.387  0.00  0.00    +0.012 A 
ATOM     28  C   UNL     1       0.680   5.231  -1.223  0.00  0.00    +0.022 A 
ATOM     29  C   UNL     1       1.897   4.546  -1.256  0.00  0.00    +0.012 A 
ATOM     30  C   UNL     1       2.607   4.464  -2.436  0.00  0.00    +0.001 A 
ENDBRANCH  23  28
ENDBRANCH   1  23
TORSDOF 7
