REMARK  Name = ZINC13622082
REMARK  14 active torsions:
REMARK  status: ('A' for Active; 'I' for Inactive)
REMARK    1  A    between atoms: C_1  and  C_2
REMARK    2  A    between atoms: C_2  and  N_3
REMARK    3  A    between atoms: N_3  and  C_4
REMARK    4  A    between atoms: N_3  and  C_6
REMARK    5  A    between atoms: C_4  and  C_5
REMARK    6  A    between atoms: C_6  and  C_7
REMARK    7  A    between atoms: C_7  and  N_8
REMARK    8  A    between atoms: C_9  and  C_11
REMARK    9  A    between atoms: C_14  and  N_17
REMARK   10  A    between atoms: N_17  and  C_18
REMARK   11  A    between atoms: C_18  and  N_20
REMARK   12  A    between atoms: C_21  and  C_23
REMARK   13  A    between atoms: C_23  and  C_24
REMARK   14  A    between atoms: C_24  and  C_25
REMARK                            x       y       z     vdW  Elec       q    Type
REMARK                         _______ _______ _______ _____ _____    ______ ____
ROOT
ATOM      1  C   UNL     1      -2.110   1.739  -1.761  0.00  0.00    +0.037 A 
ATOM      2  C   UNL     1      -2.401   0.406  -1.458  0.00  0.00    +0.015 A 
ATOM      3  C   UNL     1      -3.605  -0.139  -1.841  0.00  0.00    +0.024 A 
ATOM      4  C   UNL     1      -4.528   0.632  -2.541  0.00  0.00    +0.033 A 
ATOM      5  C   UNL     1      -4.239   1.958  -2.850  0.00  0.00    +0.024 A 
ATOM      6  C   UNL     1      -3.039   2.511  -2.464  0.00  0.00    +0.015 A 
ENDROOT
BRANCH   1   8
ATOM      7  N   UNL     1       0.072   1.583  -0.667  0.00  0.00    -0.313 N 
ATOM      8  C   UNL     1      -0.823   2.328  -1.345  0.00  0.00    +0.244 C 
ATOM      9  O   UNL     1      -0.570   3.487  -1.614  0.00  0.00    -0.270 OA
ATOM     10  H   UNL     1      -0.159   0.536  -0.420  0.00  0.00    +0.149 HD
BRANCH   7  11
ATOM     11  C   UNL     1       1.353   2.166  -0.260  0.00  0.00    +0.086 C 
BRANCH  11  12
ATOM     12  C   UNL     1       2.179   1.114   0.482  0.00  0.00    -0.060 C 
BRANCH  12  13
ATOM     13  N   UNL     1       3.463   1.699   0.891  0.00  0.00    +0.380 N 
ATOM     14  H   UNL     1       3.925   2.155   0.003  0.00  0.00    -0.082 HD
BRANCH  13  16
ATOM     15  C   UNL     1       2.635   2.157   3.150  0.00  0.00    -0.017 C 
ATOM     16  C   UNL     1       3.265   2.757   1.891  0.00  0.00    -0.082 C 
ENDBRANCH  13  16
BRANCH  13  17
ATOM     17  C   UNL     1       4.377   0.664   1.393  0.00  0.00    -0.082 C 
ATOM     18  C   UNL     1       5.802   1.220   1.439  0.00  0.00    -0.017 C 
ENDBRANCH  13  17
ENDBRANCH  12  13
ENDBRANCH  11  12
ENDBRANCH   7  11
ENDBRANCH   1   8
BRANCH   4  19
ATOM     19  N   UNL     1      -5.744   0.076  -2.933  0.00  0.00    -0.297 N 
ATOM     20  H   UNL     1      -6.296  -0.581  -2.245  0.00  0.00    +0.154 HD
BRANCH  19  21
ATOM     21  C   UNL     1      -6.244   0.342  -4.156  0.00  0.00    +0.141 C 
ATOM     22  S   UNL     1      -5.320   1.245  -5.280  0.00  0.00    -0.018 S 
BRANCH  21  23
ATOM     23  N   UNL     1      -7.471  -0.101  -4.494  0.00  0.00    -0.268 N 
ATOM     24  C   UNL     1      -7.971   0.166  -5.717  0.00  0.00    +0.218 C 
ATOM     25  O   UNL     1      -7.317   0.805  -6.513  0.00  0.00    -0.275 OA
ATOM     26  H   UNL     1      -8.064  -0.681  -3.772  0.00  0.00    +0.156 HD
BRANCH  24  27
ATOM     27  C   UNL     1      -9.343  -0.330  -6.095  0.00  0.00    +0.096 C 
BRANCH  27  28
ATOM     28  C   UNL     1      -9.667   0.106  -7.525  0.00  0.00    +0.013 C 
BRANCH  28  29
ATOM     29  C   UNL     1     -11.060  -0.398  -7.908  0.00  0.00    -0.011 C 
ATOM     30  C   UNL     1     -11.058  -1.927  -7.942  0.00  0.00    +0.003 C 
ATOM     31  C   UNL     1     -12.451  -2.431  -8.326  0.00  0.00    +0.000 C 
ATOM     32  C   UNL     1     -12.826  -1.890  -9.707  0.00  0.00    +0.000 C 
ATOM     33  C   UNL     1     -12.828  -0.361  -9.673  0.00  0.00    +0.000 C 
ATOM     34  C   UNL     1     -11.435   0.143  -9.290  0.00  0.00    +0.003 C 
ENDBRANCH  28  29
ENDBRANCH  27  28
ENDBRANCH  24  27
ENDBRANCH  21  23
ENDBRANCH  19  21
ENDBRANCH   4  19
TORSDOF 12
