REMARK  Name = ZINC50563033
REMARK  6 active torsions:
REMARK  status: ('A' for Active; 'I' for Inactive)
REMARK    1  A    between atoms: C_1  and  C_2
REMARK    2  A    between atoms: N_7  and  C_11
REMARK    3  A    between atoms: C_8  and  C_10
REMARK    4  A    between atoms: C_11  and  C_12
REMARK    5  A    between atoms: N_14  and  C_15
REMARK    6  A    between atoms: C_16  and  N_23
REMARK                            x       y       z     vdW  Elec       q    Type
REMARK                         _______ _______ _______ _____ _____    ______ ____
ROOT
ATOM      1  C   UNL     1       2.795  -4.137   2.743  0.00  0.00    +0.201 C 
ATOM      2  O   UNL     1       3.554  -4.888   2.166  0.00  0.00    -0.278 OA
ATOM      3  N   UNL     1       1.849  -4.634   3.563  0.00  0.00    -0.284 N 
ATOM      4  H   UNL     1       1.290  -4.033   4.080  0.00  0.00    +0.155 HD
ENDROOT
BRANCH   3   5
ATOM      5  C   UNL     1       1.672  -6.021   3.670  0.00  0.00    +0.073 A 
ATOM      6  C   UNL     1       2.380  -6.745   4.630  0.00  0.00    +0.049 A 
ATOM      7  C   UNL     1       2.200  -8.116   4.731  0.00  0.00    +0.044 A 
ATOM      8  C   UNL     1       1.321  -8.764   3.881  0.00  0.00    +0.044 A 
ATOM      9  C   UNL     1       0.619  -8.046   2.929  0.00  0.00    +0.042 A 
ATOM     10  C   UNL     1       0.788  -6.677   2.825  0.00  0.00    +0.065 A 
ATOM     11 CL   UNL     1      -0.100  -5.780   1.633  0.00  0.00    -0.082 Cl
ATOM     12 CL   UNL     1       1.099 -10.481   4.010  0.00  0.00    -0.083 Cl
BRANCH   6  13
ATOM     13  N   UNL     1       3.268  -6.088   5.488  0.00  0.00    -0.356 N 
ATOM     14  H   UNL     1       3.393  -5.129   5.416  0.00  0.00    +0.142 HD
ATOM     15  H   UNL     1       3.760  -6.593   6.155  0.00  0.00    +0.142 HD
ENDBRANCH   6  13
ENDBRANCH   3   5
BRANCH   1  16
ATOM     16  C   UNL     1       2.911  -2.648   2.541  0.00  0.00    +0.019 C 
BRANCH  16  22
ATOM     17  C   UNL     1       5.162   0.863  -0.023  0.00  0.00    +0.006 C 
ATOM     18  C   UNL     1       5.131  -0.636   0.281  0.00  0.00    -0.028 C 
ATOM     19  C   UNL     1       6.487  -1.072   0.843  0.00  0.00    -0.000 C 
ATOM     20  C   UNL     1       6.421  -2.555   1.217  0.00  0.00    -0.018 C 
ATOM     21  C   UNL     1       5.282  -2.774   2.215  0.00  0.00    -0.078 C 
ATOM     22  N   UNL     1       4.010  -2.364   1.609  0.00  0.00    +0.387 N 
ATOM     23  C   UNL     1       4.039  -0.926   1.313  0.00  0.00    -0.068 C 
ATOM     24  C   UNL     1       2.683  -0.493   0.754  0.00  0.00    -0.013 C 
ATOM     25  H   UNL     1       3.865  -2.879   0.754  0.00  0.00    -0.081 HD
ENDBRANCH  16  22
ENDBRANCH   1  16
TORSDOF 4
