REMARK  Name = ZINC43312079
REMARK  6 active torsions:
REMARK  status: ('A' for Active; 'I' for Inactive)
REMARK    1  A    between atoms: N_3  and  C_6
REMARK    2  A    between atoms: C_6  and  C_7
REMARK    3  A    between atoms: C_7  and  N_8
REMARK    4  A    between atoms: N_11  and  N_12
REMARK    5  A    between atoms: C_13  and  C_15
REMARK    6  A    between atoms: N_17  and  C_18
REMARK                            x       y       z     vdW  Elec       q    Type
REMARK                         _______ _______ _______ _____ _____    ______ ____
ROOT
ATOM      1  N   UNL     1       5.509   0.604   1.395  0.00  0.00    -0.297 N 
ATOM      2  C   UNL     1       6.194   0.588   2.556  0.00  0.00    +0.316 C 
ATOM      3  O   UNL     1       5.596   0.591   3.615  0.00  0.00    -0.251 OA
ATOM      4  N   UNL     1       7.542   0.570   2.543  0.00  0.00    -0.218 N 
ATOM      5  H   UNL     1       5.986   0.602   0.551  0.00  0.00    +0.150 HD
ATOM      6  H   UNL     1       8.034   0.559   3.378  0.00  0.00    +0.174 HD
ENDROOT
BRANCH   4   7
ATOM      7  N   UNL     1       8.230   0.567   1.323  0.00  0.00    -0.225 N 
ATOM      8  C   UNL     1       9.578   0.549   1.310  0.00  0.00    +0.315 C 
ATOM      9  O   UNL     1      10.195   0.535   2.355  0.00  0.00    -0.264 OA
ATOM     10  H   UNL     1       7.737   0.578   0.488  0.00  0.00    +0.173 HD
BRANCH   8  11
ATOM     11  C   UNL     1      10.313   0.545   0.009  0.00  0.00    +0.301 C 
ATOM     12  O   UNL     1       9.696   0.559  -1.036  0.00  0.00    -0.265 OA
ATOM     13  N   UNL     1      11.660   0.527  -0.004  0.00  0.00    -0.305 N 
ATOM     14  H   UNL     1      12.153   0.516   0.831  0.00  0.00    +0.149 HD
BRANCH  13  15
ATOM     15  C   UNL     1      12.381   0.524  -1.280  0.00  0.00    +0.073 C 
ATOM     16  C   UNL     1      13.571  -0.428  -1.417  0.00  0.00    +0.024 C 
ATOM     17  C   UNL     1      13.807   1.078  -1.288  0.00  0.00    +0.024 C 
ENDBRANCH  13  15
ENDBRANCH   8  11
ENDBRANCH   4   7
BRANCH   1  18
ATOM     18  C   UNL     1       4.044   0.624   1.409  0.00  0.00    +0.127 C 
BRANCH  18  19
ATOM     19  C   UNL     1       3.521   0.638  -0.028  0.00  0.00    +0.141 C 
BRANCH  19  22
ATOM     20  C   UNL     1      -0.016   1.337   0.009  0.00  0.00    +0.101 A 
ATOM     21  C   UNL     1       1.259   1.771  -0.000  0.00  0.00    +0.104 A 
ATOM     22  N   UNL     1       2.056   0.658  -0.014  0.00  0.00    -0.337 N 
ATOM     23  C   UNL     1       1.240  -0.418  -0.012  0.00  0.00    +0.173 A 
ATOM     24  N   UNL     1       0.002  -0.004   0.002  0.00  0.00    -0.352 N 
ATOM     25  H   UNL     1      -0.781  -0.576   0.007  0.00  0.00    +0.166 HD
ENDBRANCH  19  22
ENDBRANCH  18  19
ENDBRANCH   1  18
TORSDOF 6
