REMARK  Name = ZINC08708057
REMARK  6 active torsions:
REMARK  status: ('A' for Active; 'I' for Inactive)
REMARK    1  A    between atoms: C_8  and  C_29
REMARK    2  A    between atoms: C_11  and  C_12
REMARK    3  A    between atoms: C_11  and  N_57
REMARK    4  A    between atoms: N_14  and  C_15
REMARK    5  A    between atoms: C_19  and  S_21
REMARK    6  A    between atoms: S_21  and  N_24
REMARK                            x       y       z     vdW  Elec       q    Type
REMARK                         _______ _______ _______ _____ _____    ______ ____
ROOT
ATOM      1  C   UNL     1       0.361   1.457  -1.190  0.00  0.00    +0.201 C 
ATOM      2  O   UNL     1       0.333   0.270  -1.437  0.00  0.00    -0.278 OA
ATOM      3  N   UNL     1      -0.776   2.180  -1.226  0.00  0.00    -0.287 N 
ATOM      4  H   UNL     1      -0.766   3.113  -0.961  0.00  0.00    +0.155 HD
ENDROOT
BRANCH   3   5
ATOM      5  C   UNL     1      -1.970   1.585  -1.646  0.00  0.00    +0.035 A 
ATOM      6  C   UNL     1      -2.232   0.257  -1.337  0.00  0.00    +0.023 A 
ATOM      7  C   UNL     1      -3.412  -0.328  -1.753  0.00  0.00    +0.004 A 
ATOM      8  C   UNL     1      -4.333   0.408  -2.476  0.00  0.00    +0.028 A 
ATOM      9  C   UNL     1      -4.075   1.731  -2.785  0.00  0.00    +0.107 A 
ATOM     10  C   UNL     1      -2.899   2.323  -2.368  0.00  0.00    +0.051 A 
BRANCH   9  11
ATOM     11  S   UNL     1      -5.252   2.664  -3.707  0.00  0.00    +0.061 S 
ATOM     12  O   UNL     1      -4.533   3.718  -4.334  0.00  0.00    -0.153 OA
ATOM     13  O   UNL     1      -6.027   1.728  -4.442  0.00  0.00    -0.153 OA
BRANCH  11  14
ATOM     14  N   UNL     1      -6.276   3.374  -2.616  0.00  0.00    -0.177 NA
ATOM     15  C   UNL     1      -7.526   2.790  -2.109  0.00  0.00    +0.109 C 
ATOM     16  C   UNL     1      -8.152   3.815  -1.141  0.00  0.00    +0.018 C 
ATOM     17  C   UNL     1      -7.514   5.154  -1.597  0.00  0.00    +0.018 C 
ATOM     18  C   UNL     1      -6.089   4.699  -1.998  0.00  0.00    +0.109 C 
ENDBRANCH  11  14
ENDBRANCH   9  11
ENDBRANCH   3   5
BRANCH   1  19
ATOM     19  C   UNL     1       1.668   2.125  -0.849  0.00  0.00    +0.020 C 
BRANCH  19  29
ATOM     20  C   UNL     1       6.434  -1.892  -2.417  0.00  0.00    +0.000 A 
ATOM     21  C   UNL     1       5.617  -1.720  -3.518  0.00  0.00    +0.000 A 
ATOM     22  C   UNL     1       4.550  -0.846  -3.453  0.00  0.00    +0.002 A 
ATOM     23  C   UNL     1       4.292  -0.141  -2.286  0.00  0.00    -0.061 A 
ATOM     24  C   UNL     1       5.106  -0.316  -1.188  0.00  0.00    -0.047 A 
ATOM     25  C   UNL     1       6.179  -1.191  -1.255  0.00  0.00    +0.004 A 
ATOM     26  C   UNL     1       4.859   0.420   0.104  0.00  0.00    +0.029 C 
ATOM     27  C   UNL     1       3.927   1.608  -0.141  0.00  0.00    +0.024 C 
ATOM     28  C   UNL     1       3.118   0.803  -2.264  0.00  0.00    -0.041 C 
ATOM     29  N   UNL     1       2.744   1.110  -0.873  0.00  0.00    +0.396 N 
ATOM     30  H   UNL     1       2.405   0.253  -0.420  0.00  0.00    -0.080 HD
BRANCH  27  31
ATOM     31  C   UNL     1       3.492   2.191   1.179  0.00  0.00    +0.197 C 
ATOM     32  O   UNL     1       2.543   1.718   1.767  0.00  0.00    -0.278 OA
ATOM     33  N   UNL     1       4.158   3.238   1.705  0.00  0.00    -0.331 N 
ATOM     34  H   UNL     1       4.917   3.616   1.235  0.00  0.00    +0.145 HD
ATOM     35  H   UNL     1       3.878   3.613   2.555  0.00  0.00    +0.145 HD
ENDBRANCH  27  31
ENDBRANCH  19  29
ENDBRANCH   1  19
TORSDOF 6
