REMARK  Name = ZINC12329191
REMARK  8 active torsions:
REMARK  status: ('A' for Active; 'I' for Inactive)
REMARK    1  A    between atoms: C_1  and  C_2
REMARK    2  A    between atoms: C_3  and  C_14
REMARK    3  A    between atoms: C_6  and  O_12
REMARK    4  A    between atoms: O_12  and  C_13
REMARK    5  A    between atoms: C_14  and  C_16
REMARK    6  A    between atoms: C_14  and  O_33
REMARK    7  A    between atoms: C_16  and  N_61
REMARK    8  A    between atoms: C_23  and  O_32
REMARK                            x       y       z     vdW  Elec       q    Type
REMARK                         _______ _______ _______ _____ _____    ______ ____
ROOT
ATOM      1  C   UNL     1      -0.327   1.678   4.508  0.00  0.00    -0.075 C 
ATOM      2  C   UNL     1      -0.336   2.118   5.974  0.00  0.00    +0.029 C 
ATOM      3  C   UNL     1      -1.679   2.775   6.297  0.00  0.00    +0.110 C 
ATOM      4  C   UNL     1      -2.812   1.792   5.993  0.00  0.00    +0.029 C 
ATOM      5  C   UNL     1      -2.730   1.364   4.526  0.00  0.00    -0.075 C 
ATOM      6  C   UNL     1      -1.719   3.158   7.780  0.00  0.00    +0.084 C 
ATOM      7  C   UNL     1      -0.516   4.057   8.078  0.00  0.00    +0.152 C 
ATOM      8  C   UNL     1      -0.424   5.144   7.037  0.00  0.00    +0.023 A 
ATOM      9  C   UNL     1       0.339   6.267   7.311  0.00  0.00    +0.010 A 
ATOM     10  C   UNL     1       0.449   7.279   6.379  0.00  0.00    +0.001 A 
ATOM     11  C   UNL     1      -0.203   7.174   5.164  0.00  0.00    +0.004 A 
ATOM     12  C   UNL     1      -0.965   6.058   4.885  0.00  0.00    +0.046 A 
ATOM     13  C   UNL     1      -1.079   5.037   5.823  0.00  0.00    +0.127 A 
ATOM     14  O   UNL     1      -1.842   3.956   5.514  0.00  0.00    -0.485 OA
ATOM     15  N   UNL     1      -1.424   0.711   4.290  0.00  0.00    +0.382 N 
ATOM     16  H   UNL     1      -1.317  -0.068   4.949  0.00  0.00    -0.082 HD
ENDROOT
BRANCH   7  17
ATOM     17  O   UNL     1      -0.674   4.649   9.370  0.00  0.00    -0.387 OA
ATOM     18  H   UNL     1       0.055   5.231   9.627  0.00  0.00    +0.210 HD
ENDBRANCH   7  17
BRANCH  15  19
ATOM     19  C   UNL     1      -1.365   0.184   2.911  0.00  0.00    -0.042 C 
BRANCH  19  20
ATOM     20  C   UNL     1      -2.358  -0.973   2.784  0.00  0.00    +0.130 C 
BRANCH  20  23
ATOM     21  C   UNL     1      -0.098  -2.785   1.668  0.00  0.00    +0.063 C 
ATOM     22  C   UNL     1      -1.313  -2.330   0.900  0.00  0.00    +0.019 A 
ATOM     23  C   UNL     1      -2.286  -1.546   1.391  0.00  0.00    +0.007 A 
ATOM     24  C   UNL     1      -3.264  -1.353   0.318  0.00  0.00    +0.009 A 
ATOM     25  C   UNL     1      -4.468  -0.652   0.218  0.00  0.00    +0.056 A 
ATOM     26  C   UNL     1      -5.172  -0.671  -0.969  0.00  0.00    +0.121 A 
ATOM     27  C   UNL     1      -4.686  -1.385  -2.062  0.00  0.00    +0.047 A 
ATOM     28  C   UNL     1      -3.501  -2.080  -1.974  0.00  0.00    +0.030 A 
ATOM     29  C   UNL     1      -2.776  -2.073  -0.787  0.00  0.00    +0.047 A 
ATOM     30  N   UNL     1      -1.585  -2.651  -0.401  0.00  0.00    -0.358 N 
ATOM     31  H   UNL     1      -1.025  -3.204  -0.968  0.00  0.00    +0.166 HD
BRANCH  26  32
ATOM     32  O   UNL     1      -6.344   0.010  -1.072  0.00  0.00    -0.495 OA
ATOM     33  C   UNL     1      -7.022  -0.051  -2.328  0.00  0.00    +0.277 C 
ENDBRANCH  26  32
ENDBRANCH  20  23
BRANCH  20  34
ATOM     34  O   UNL     1      -2.030  -1.988   3.734  0.00  0.00    -0.389 OA
ATOM     35  H   UNL     1      -1.144  -2.359   3.624  0.00  0.00    +0.210 HD
ENDBRANCH  20  34
ENDBRANCH  19  20
ENDBRANCH  15  19
TORSDOF 6
