REMARK  Name = ZINC44560518
REMARK  7 active torsions:
REMARK  status: ('A' for Active; 'I' for Inactive)
REMARK    1  A    between atoms: C_1  and  C_2
REMARK    2  A    between atoms: C_2  and  C_3
REMARK    3  A    between atoms: C_2  and  C_10
REMARK    4  A    between atoms: C_2  and  N_13
REMARK    5  A    between atoms: N_13  and  C_14
REMARK    6  A    between atoms: C_14  and  C_15
REMARK    7  A    between atoms: N_20  and  C_22
REMARK                            x       y       z     vdW  Elec       q    Type
REMARK                         _______ _______ _______ _____ _____    ______ ____
ROOT
ATOM      1  C   UNL     1      -0.093   1.475   0.301  0.00  0.00    +0.006 C 
ATOM      2  C   UNL     1      -0.004  -0.015  -0.035  0.00  0.00    +0.058 C 
ENDROOT
BRANCH   2   3
ATOM      3  C   UNL     1       0.724  -0.737   1.070  0.00  0.00    -0.048 A 
ATOM      4  C   UNL     1       1.896  -1.416   0.796  0.00  0.00    +0.004 A 
ATOM      5  C   UNL     1       2.564  -2.078   1.809  0.00  0.00    +0.015 A 
ATOM      6  C   UNL     1       2.059  -2.060   3.097  0.00  0.00    +0.018 A 
ATOM      7  C   UNL     1       0.886  -1.380   3.370  0.00  0.00    +0.015 A 
ATOM      8  C   UNL     1       0.222  -0.714   2.358  0.00  0.00    +0.004 A 
ATOM      9 BR   UNL     1       2.973  -2.966   4.484  0.00  0.00    -0.050 Br
ENDBRANCH   2   3
BRANCH   2  10
ATOM     10  C   UNL     1      -1.393  -0.582  -0.175  0.00  0.00    +0.349 C 
ATOM     11  O   UNL     1      -1.705  -1.187  -1.187  0.00  0.00    -0.248 OA
ATOM     12  O   UNL     1      -2.205  -0.436   0.722  0.00  0.00    -0.248 OA
ENDBRANCH   2  10
BRANCH   2  13
ATOM     13  N   UNL     1       0.726  -0.189  -1.298  0.00  0.00    +0.393 N 
ATOM     14  H   UNL     1       1.683   0.107  -1.177  0.00  0.00    -0.084 HD
ATOM     15  H   UNL     1       0.707  -1.162  -1.566  0.00  0.00    -0.084 HD
BRANCH  13  16
ATOM     16  C   UNL     1       0.091   0.620  -2.346  0.00  0.00    -0.079 C 
BRANCH  16  17
ATOM     17  C   UNL     1       0.764   0.333  -3.690  0.00  0.00    -0.045 C 
ATOM     18  C   UNL     1       2.220   0.804  -3.644  0.00  0.00    -0.002 C 
ATOM     19  C   UNL     1       2.862   0.583  -5.017  0.00  0.00    -0.018 C 
ATOM     20  C   UNL     1       2.046   1.324  -6.079  0.00  0.00    -0.079 C 
ATOM     21  N   UNL     1       0.671   0.810  -6.092  0.00  0.00    +0.378 N 
ATOM     22  C   UNL     1       0.026   1.082  -4.802  0.00  0.00    -0.078 C 
ATOM     23  C   UNL     1      -0.086   1.469  -7.164  0.00  0.00    -0.096 C 
ATOM     24  H   UNL     1       0.686  -0.185  -6.255  0.00  0.00    -0.082 HD
ENDBRANCH  16  17
ENDBRANCH  13  16
ENDBRANCH   2  13
TORSDOF 5
