REMARK  Name = ZINC20292916
REMARK  8 active torsions:
REMARK  status: ('A' for Active; 'I' for Inactive)
REMARK    1  A    between atoms: C_1  and  C_2
REMARK    2  A    between atoms: C_16  and  O_17
REMARK    3  A    between atoms: C_24  and  O_25
REMARK    4  A    between atoms: N_26  and  C_27
REMARK    5  A    between atoms: C_27  and  C_28
REMARK    6  A    between atoms: C_28  and  C_29
REMARK    7  A    between atoms: C_29  and  N_30
REMARK    8  A    between atoms: N_33  and  C_36
REMARK                            x       y       z     vdW  Elec       q    Type
REMARK                         _______ _______ _______ _____ _____    ______ ____
ROOT
ATOM      1  C   UNL     1      -3.862   6.122  -0.003  0.00  0.00    +0.044 C 
ATOM      2  C   UNL     1      -2.528   5.421   0.000  0.00  0.00    -0.047 A 
ATOM      3  C   UNL     1      -1.360   6.162   0.011  0.00  0.00    +0.005 A 
ATOM      4  C   UNL     1      -0.134   5.523   0.014  0.00  0.00    +0.032 A 
ATOM      5  C   UNL     1      -0.075   4.138   0.006  0.00  0.00    +0.107 A 
ATOM      6  C   UNL     1      -1.252   3.390  -0.005  0.00  0.00    +0.154 A 
ATOM      7  C   UNL     1      -2.477   4.039  -0.008  0.00  0.00    +0.051 A 
ATOM      8  O   UNL     1      -1.203   2.034  -0.017  0.00  0.00    -0.452 OA
ATOM      9  C   UNL     1      -0.017   1.376  -0.009  0.00  0.00    +0.156 A 
ATOM     10  C   UNL     1       0.002  -0.004  -0.016  0.00  0.00    +0.074 A 
ATOM     11  C   UNL     1       1.212  -0.697  -0.014  0.00  0.00    +0.050 A 
ATOM     12  C   UNL     1       2.424   0.006  -0.004  0.00  0.00    +0.053 A 
ATOM     13  C   UNL     1       2.411   1.421   0.004  0.00  0.00    +0.059 A 
ATOM     14  C   UNL     1       1.191   2.099   0.002  0.00  0.00    +0.118 A 
ATOM     15  N   UNL     1       1.162   3.485   0.009  0.00  0.00    -0.240 NA
ATOM     16  C   UNL     1       3.676   2.168   0.016  0.00  0.00    +0.135 A 
ATOM     17  C   UNL     1       4.961   1.439   0.018  0.00  0.00    +0.028 A 
ATOM     18  C   UNL     1       6.166   2.138   0.028  0.00  0.00    +0.012 A 
ATOM     19  C   UNL     1       7.363   1.447   0.029  0.00  0.00    +0.001 A 
ATOM     20  C   UNL     1       7.374   0.063   0.021  0.00  0.00    +0.001 A 
ATOM     21  C   UNL     1       6.188  -0.647   0.011  0.00  0.00    +0.012 A 
ATOM     22  C   UNL     1       4.972   0.033   0.010  0.00  0.00    +0.028 A 
ATOM     23  C   UNL     1       3.699  -0.717  -0.002  0.00  0.00    +0.134 A 
ATOM     24  N   UNL     1       1.216  -2.083  -0.021  0.00  0.00    -0.384 N 
ATOM     25  H   UNL     1       2.165  -2.630  -0.117  0.00  0.00    +0.160 HD
ENDROOT
BRANCH  16  26
ATOM     26  O   UNL     1       3.666   3.385   0.022  0.00  0.00    -0.505 OA
ATOM     27  H   UNL     1       4.614   3.942   0.031  0.00  0.00    +0.292 HD
ENDBRANCH  16  26
BRANCH  23  28
ATOM     28  O   UNL     1       3.709  -1.934  -0.009  0.00  0.00    -0.505 OA
ATOM     29  H   UNL     1       4.667  -2.476  -0.008  0.00  0.00    +0.292 HD
ENDBRANCH  23  28
BRANCH  24  30
ATOM     30  C   UNL     1      -0.045  -2.819   0.098  0.00  0.00    +0.114 C 
BRANCH  30  31
ATOM     31  C   UNL     1       0.237  -4.323   0.063  0.00  0.00    +0.036 C 
BRANCH  31  32
ATOM     32  C   UNL     1      -1.079  -5.092   0.188  0.00  0.00    +0.086 C 
BRANCH  32  33
ATOM     33  N   UNL     1      -0.808  -6.535   0.154  0.00  0.00    -0.306 NA
ATOM     34  C   UNL     1      -0.291  -6.944  -1.160  0.00  0.00    +0.066 C 
ATOM     35  C   UNL     1       0.052  -8.435  -1.129  0.00  0.00    -0.064 C 
ATOM     36  N   UNL     1      -1.149  -9.204  -0.777  0.00  0.00    +0.379 N 
ATOM     37  C   UNL     1      -1.665  -8.796   0.537  0.00  0.00    -0.064 C 
ATOM     38  C   UNL     1      -2.009  -7.305   0.506  0.00  0.00    +0.066 C 
ATOM     39  C   UNL     1      -0.878 -10.648  -0.810  0.00  0.00    -0.096 C 
ATOM     40  H   UNL     1      -1.923  -8.989  -1.528  0.00  0.00    -0.082 HD
ENDBRANCH  32  33
ENDBRANCH  31  32
ENDBRANCH  30  31
ENDBRANCH  24  30
TORSDOF 6
