REMARK  Name = ZINC04245686
REMARK  11 active torsions:
REMARK  status: ('A' for Active; 'I' for Inactive)
REMARK    1  A    between atoms: C_1  and  C_2
REMARK    2  A    between atoms: C_2  and  C_3
REMARK    3  A    between atoms: C_2  and  C_4
REMARK    4  A    between atoms: C_4  and  C_5
REMARK    5  A    between atoms: C_15  and  O_47
REMARK    6  A    between atoms: C_19  and  C_21
REMARK    7  A    between atoms: C_19  and  N_25
REMARK    8  A    between atoms: C_21  and  C_23
REMARK    9  A    between atoms: C_21  and  C_24
REMARK   10  A    between atoms: C_26  and  C_28
REMARK   11  A    between atoms: C_46  and  N_83
REMARK                            x       y       z     vdW  Elec       q    Type
REMARK                         _______ _______ _______ _____ _____    ______ ____
ROOT
ATOM      1  C   UNL     1      -4.322   3.101   0.746  0.00  0.00    +0.167 C 
ATOM      2  C   UNL     1      -3.151   2.569   1.527  0.00  0.00    +0.237 C 
ATOM      3  O   UNL     1      -3.248   2.430   2.728  0.00  0.00    -0.274 OA
ATOM      4  N   UNL     1      -2.002   2.246   0.918  0.00  0.00    -0.290 N 
ATOM      5  C   UNL     1      -0.875   1.512   1.531  0.00  0.00    +0.108 C 
ATOM      6  C   UNL     1      -0.133   0.797   0.386  0.00  0.00    +0.021 C 
ATOM      7  C   UNL     1      -0.889   1.203  -0.902  0.00  0.00    +0.031 C 
ATOM      8  C   UNL     1      -1.614   2.500  -0.476  0.00  0.00    +0.156 C 
ATOM      9  C   UNL     1      -2.818   2.753  -1.360  0.00  0.00    +0.269 C 
ATOM     10  N   UNL     1      -3.893   3.416  -0.619  0.00  0.00    -0.233 N 
ATOM     11  C   UNL     1      -4.418   4.387  -1.401  0.00  0.00    +0.271 C 
ATOM     12  O   UNL     1      -5.316   5.144  -1.100  0.00  0.00    -0.270 OA
ATOM     13  C   UNL     1      -3.677   4.355  -2.721  0.00  0.00    +0.220 C 
ATOM     14  O   UNL     1      -2.470   3.613  -2.456  0.00  0.00    -0.298 OA
ENDROOT
BRANCH  13  15
ATOM     15  N   UNL     1      -4.481   3.674  -3.739  0.00  0.00    -0.279 N 
ATOM     16  C   UNL     1      -5.662   4.195  -4.125  0.00  0.00    +0.220 C 
ATOM     17  O   UNL     1      -6.060   5.228  -3.629  0.00  0.00    -0.275 OA
ATOM     18  H   UNL     1      -4.162   2.848  -4.135  0.00  0.00    +0.152 HD
BRANCH  16  19
ATOM     19  C   UNL     1      -6.489   3.494  -5.172  0.00  0.00    +0.081 C 
ATOM     20  C   UNL     1      -7.763   4.300  -5.449  0.00  0.00    -0.061 C 
ATOM     21  C   UNL     1      -7.773   3.670  -7.803  0.00  0.00    -0.033 C 
ATOM     22  C   UNL     1      -8.416   2.663  -8.768  0.00  0.00    +0.026 C 
ATOM     23  C   UNL     1      -7.595   2.584 -10.028  0.00  0.00    -0.023 A 
ATOM     24  C   UNL     1      -7.839   2.249 -11.291  0.00  0.00    +0.087 A 
ATOM     25  N   UNL     1      -6.682   2.349 -12.047  0.00  0.00    -0.360 N 
ATOM     26  H   UNL     1      -6.622   2.152 -12.995  0.00  0.00    +0.165 HD
ATOM     27  C   UNL     1      -5.641   2.762 -11.272  0.00  0.00    +0.047 A 
ATOM     28  C   UNL     1      -6.178   2.927  -9.992  0.00  0.00    +0.010 A 
ATOM     29  C   UNL     1      -5.466   3.377  -8.854  0.00  0.00    -0.014 A 
ATOM     30  C   UNL     1      -4.131   3.622  -9.051  0.00  0.00    +0.009 A 
ATOM     31  C   UNL     1      -3.573   3.453 -10.316  0.00  0.00    +0.003 A 
ATOM     32  C   UNL     1      -4.283   3.034 -11.435  0.00  0.00    +0.026 A 
ATOM     33  C   UNL     1      -6.290   3.474  -7.634  0.00  0.00    -0.056 C 
ATOM     34  C   UNL     1      -5.704   3.392  -6.452  0.00  0.00    -0.014 C 
ATOM     35  C   UNL     1      -9.838   4.227  -6.689  0.00  0.00    -0.095 C 
ATOM     36  N   UNL     1      -8.514   3.610  -6.526  0.00  0.00    +0.383 N 
ATOM     37  H   UNL     1      -8.636   2.626  -6.263  0.00  0.00    -0.081 HD
ENDBRANCH  16  19
ENDBRANCH  13  15
BRANCH  13  38
ATOM     38  C   UNL     1      -3.338   5.776  -3.176  0.00  0.00    +0.043 C 
ATOM     39  C   UNL     1      -2.639   5.722  -4.536  0.00  0.00    +0.012 C 
ATOM     40  C   UNL     1      -2.410   6.432  -2.151  0.00  0.00    +0.012 C 
ENDBRANCH  13  38
BRANCH   9  41
ATOM     41  O   UNL     1      -3.310   1.510  -1.865  0.00  0.00    -0.348 OA
ATOM     42  H   UNL     1      -4.082   1.597  -2.440  0.00  0.00    +0.214 HD
ENDBRANCH   9  41
BRANCH   1  43
ATOM     43  C   UNL     1      -5.428   2.045   0.702  0.00  0.00    +0.035 C 
BRANCH  43  45
ATOM     44  C   UNL     1      -7.724   1.540  -0.146  0.00  0.00    +0.007 C 
ATOM     45  C   UNL     1      -6.671   2.635   0.032  0.00  0.00    -0.015 C 
ATOM     46  C   UNL     1      -7.241   3.752   0.909  0.00  0.00    +0.007 C 
ENDBRANCH  43  45
ENDBRANCH   1  43
TORSDOF 6
