REMARK  Name = ZINC39631735
REMARK  14 active torsions:
REMARK  status: ('A' for Active; 'I' for Inactive)
REMARK    1  A    between atoms: C_1  and  C_2
REMARK    2  A    between atoms: C_2  and  S_3
REMARK    3  A    between atoms: S_3  and  C_4
REMARK    4  A    between atoms: C_5  and  C_10
REMARK    5  A    between atoms: C_14  and  C_23
REMARK    6  A    between atoms: N_25  and  C_26
REMARK    7  A    between atoms: C_26  and  C_28
REMARK    8  A    between atoms: C_26  and  C_29
REMARK    9  A    between atoms: C_29  and  C_30
REMARK   10  A    between atoms: C_30  and  C_31
REMARK   11  A    between atoms: C_31  and  C_32
REMARK   12  A    between atoms: C_32  and  C_33
REMARK   13  A    between atoms: C_32  and  C_34
REMARK   14  A    between atoms: C_32  and  O_35
REMARK                            x       y       z     vdW  Elec       q    Type
REMARK                         _______ _______ _______ _____ _____    ______ ____
ROOT
ATOM      1  C   UNL     1      -3.823  -2.772   0.099  0.00  0.00    +0.249 C 
ATOM      2  O   UNL     1      -3.918  -1.560   0.124  0.00  0.00    -0.270 OA
ATOM      3  N   UNL     1      -4.926  -3.531  -0.059  0.00  0.00    -0.296 N 
ATOM      4  C   UNL     1      -5.026  -5.009  -0.009  0.00  0.00    +0.121 C 
ATOM      5  C   UNL     1      -6.352  -5.285   0.734  0.00  0.00    +0.100 C 
ATOM      6  C   UNL     1      -7.192  -4.014   0.523  0.00  0.00    -0.004 C 
ATOM      7  C   UNL     1      -6.313  -3.076  -0.316  0.00  0.00    +0.115 C 
ATOM      8  C   UNL     1      -8.477  -4.349  -0.228  0.00  0.00    -0.010 C 
ATOM      9  C   UNL     1      -9.322  -3.080  -0.375  0.00  0.00    -0.082 C 
ATOM     10  N   UNL     1      -9.635  -2.542   0.955  0.00  0.00    +0.379 N 
ATOM     11  C   UNL     1      -8.399  -2.137   1.634  0.00  0.00    -0.082 C 
ATOM     12  C   UNL     1      -7.515  -3.365   1.866  0.00  0.00    -0.010 C 
ATOM     13  H   UNL     1     -10.242  -1.742   0.858  0.00  0.00    -0.086 HD
ATOM     14  H   UNL     1     -10.101  -3.251   1.502  0.00  0.00    -0.086 HD
ENDROOT
BRANCH   1  16
ATOM     15  C   UNL     1      -1.526  -2.855   1.087  0.00  0.00    +0.109 A 
ATOM     16  C   UNL     1      -2.503  -3.411   0.242  0.00  0.00    +0.069 A 
ATOM     17  C   UNL     1      -2.198  -4.583  -0.461  0.00  0.00    +0.017 A 
ATOM     18  C   UNL     1      -0.945  -5.144  -0.292  0.00  0.00    +0.020 A 
ATOM     19  C   UNL     1      -0.036  -4.538   0.558  0.00  0.00    +0.112 A 
ATOM     20  N   UNL     1      -0.339  -3.432   1.208  0.00  0.00    -0.248 NA
BRANCH  15  21
ATOM     21  S   UNL     1      -1.879  -1.381   1.984  0.00  0.00    -0.105 S 
BRANCH  21  23
ATOM     22  C   UNL     1      -0.524   0.220   3.740  0.00  0.00    +0.015 C 
ATOM     23  C   UNL     1      -0.352  -1.052   2.906  0.00  0.00    +0.072 C 
ENDBRANCH  21  23
ENDBRANCH  15  21
ENDBRANCH   1  16
BRANCH   5  24
ATOM     24  C   UNL     1      -7.048  -6.482   0.139  0.00  0.00    +0.218 C 
ATOM     25  O   UNL     1      -6.925  -6.729  -1.042  0.00  0.00    -0.275 OA
ATOM     26  N   UNL     1      -7.806  -7.278   0.918  0.00  0.00    -0.312 N 
ATOM     27  H   UNL     1      -7.904  -7.080   1.863  0.00  0.00    +0.149 HD
BRANCH  26  28
ATOM     28  C   UNL     1      -8.482  -8.441   0.340  0.00  0.00    +0.070 C 
ATOM     29  C   UNL     1      -7.520  -9.630   0.314  0.00  0.00    +0.028 C 
BRANCH  28  30
ATOM     30  C   UNL     1      -9.706  -8.793   1.187  0.00  0.00    +0.022 C 
BRANCH  30  31
ATOM     31  C   UNL     1     -10.725  -7.654   1.111  0.00  0.00    +0.005 C 
BRANCH  31  32
ATOM     32  C   UNL     1     -11.948  -8.006   1.959  0.00  0.00    +0.034 C 
BRANCH  32  33
ATOM     33  C   UNL     1     -12.967  -6.867   1.883  0.00  0.00    +0.061 C 
ATOM     34  C   UNL     1     -13.395  -6.662   0.429  0.00  0.00    +0.041 C 
ATOM     35  C   UNL     1     -14.191  -7.219   2.731  0.00  0.00    +0.041 C 
BRANCH  33  36
ATOM     36  O   UNL     1     -12.374  -5.665   2.379  0.00  0.00    -0.389 OA
ATOM     37  H   UNL     1     -12.078  -5.722   3.297  0.00  0.00    +0.210 HD
ENDBRANCH  33  36
ENDBRANCH  32  33
ENDBRANCH  31  32
ENDBRANCH  30  31
ENDBRANCH  28  30
ENDBRANCH  26  28
ENDBRANCH   5  24
TORSDOF 10
