REMARK  Name = ZINC65712747
REMARK  9 active torsions:
REMARK  status: ('A' for Active; 'I' for Inactive)
REMARK    1  A    between atoms: C_1  and  C_2
REMARK    2  A    between atoms: C_4  and  C_27
REMARK    3  A    between atoms: C_7  and  N_8
REMARK    4  A    between atoms: C_9  and  C_11
REMARK    5  A    between atoms: N_13  and  C_14
REMARK    6  A    between atoms: C_14  and  C_15
REMARK    7  A    between atoms: C_21  and  C_26
REMARK    8  A    between atoms: C_22  and  C_25
REMARK    9  A    between atoms: N_29  and  C_30
REMARK                            x       y       z     vdW  Elec       q    Type
REMARK                         _______ _______ _______ _____ _____    ______ ____
ROOT
ATOM      1  C   UNL     1      -0.168   0.056   4.866  0.00  0.00    +0.300 C 
ATOM      2  O   UNL     1      -0.185   1.269   4.866  0.00  0.00    -0.265 OA
ATOM      3  N   UNL     1      -0.249  -0.620   6.029  0.00  0.00    -0.303 N 
ATOM      4  H   UNL     1      -0.236  -1.590   6.029  0.00  0.00    +0.149 HD
ENDROOT
BRANCH   1   6
ATOM      5  N   UNL     1       0.025  -0.013   2.412  0.00  0.00    -0.278 N 
ATOM      6  C   UNL     1      -0.057  -0.689   3.576  0.00  0.00    +0.303 C 
ATOM      7  O   UNL     1      -0.040  -1.903   3.575  0.00  0.00    -0.265 OA
ATOM      8  H   UNL     1       0.078   0.955   2.417  0.00  0.00    +0.155 HD
BRANCH   5  15
ATOM      9  C   UNL     1      -1.270   1.182   0.184  0.00  0.00    +0.045 C 
ATOM     10  C   UNL     1      -0.589  -0.159   0.086  0.00  0.00    -0.029 A 
ATOM     11  C   UNL     1      -0.579  -0.839  -1.111  0.00  0.00    +0.018 A 
ATOM     12  C   UNL     1       0.053  -2.082  -1.202  0.00  0.00    +0.037 A 
ATOM     13  C   UNL     1       0.672  -2.631  -0.075  0.00  0.00    +0.015 A 
ATOM     14  C   UNL     1       0.658  -1.947   1.119  0.00  0.00    +0.024 A 
ATOM     15  C   UNL     1       0.033  -0.706   1.204  0.00  0.00    +0.037 A 
BRANCH  12  16
ATOM     16  C   UNL     1       0.066  -2.813  -2.483  0.00  0.00    +0.244 C 
ATOM     17  O   UNL     1      -0.473  -2.334  -3.462  0.00  0.00    -0.270 OA
ATOM     18  N   UNL     1       0.675  -4.012  -2.569  0.00  0.00    -0.314 N 
ATOM     19  C   UNL     1       0.688  -4.739  -3.841  0.00  0.00    +0.128 C 
ATOM     20  H   UNL     1       1.106  -4.394  -1.788  0.00  0.00    +0.149 HD
ENDBRANCH  12  16
ENDBRANCH   5  15
ENDBRANCH   1   6
BRANCH   3  21
ATOM     21  C   UNL     1      -0.358   0.111   7.294  0.00  0.00    +0.140 C 
BRANCH  21  22
ATOM     22  C   UNL     1      -0.434  -0.870   8.436  0.00  0.00    -0.030 A 
ATOM     23  C   UNL     1      -1.670  -1.339   8.860  0.00  0.00    +0.007 A 
ATOM     24  C   UNL     1      -1.761  -2.236   9.902  0.00  0.00    +0.026 A 
ATOM     25  C   UNL     1      -0.605  -2.678  10.537  0.00  0.00    +0.047 A 
ATOM     26  C   UNL     1       0.645  -2.200  10.103  0.00  0.00    +0.003 A 
ATOM     27  C   UNL     1       0.715  -1.295   9.041  0.00  0.00    +0.015 A 
ATOM     28  C   UNL     1       1.644  -2.844  10.959  0.00  0.00    -0.022 A 
ATOM     29  C   UNL     1       0.977  -3.632  11.816  0.00  0.00    +0.017 A 
ATOM     30  N   UNL     1      -0.368  -3.546  11.579  0.00  0.00    -0.358 N 
ATOM     31  H   UNL     1      -1.053  -4.025  12.071  0.00  0.00    +0.166 HD
ATOM     32  C   UNL     1       1.614  -4.486  12.882  0.00  0.00    +0.063 C 
ATOM     33  C   UNL     1       3.138  -2.657  10.890  0.00  0.00    +0.046 C 
ENDBRANCH  21  22
ENDBRANCH   3  21
TORSDOF 5
