REMARK  Name = ZINC38739758
REMARK  9 active torsions:
REMARK  status: ('A' for Active; 'I' for Inactive)
REMARK    1  A    between atoms: C_1  and  C_2
REMARK    2  A    between atoms: C_2  and  O_3
REMARK    3  A    between atoms: O_3  and  C_4
REMARK    4  A    between atoms: C_4  and  C_6
REMARK    5  A    between atoms: C_6  and  C_8
REMARK    6  A    between atoms: C_6  and  N_16
REMARK    7  A    between atoms: C_8  and  C_9
REMARK    8  A    between atoms: C_17  and  C_19
REMARK    9  A    between atoms: C_25  and  C_27
REMARK                            x       y       z     vdW  Elec       q    Type
REMARK                         _______ _______ _______ _____ _____    ______ ____
ROOT
ATOM      1  C   UNL     1       0.326  -6.302  -2.739  0.00  0.00    +0.087 C 
ATOM      2  C   UNL     1       1.474  -6.871  -3.574  0.00  0.00    +0.013 C 
ATOM      3  C   UNL     1       1.525  -6.155  -4.925  0.00  0.00    +0.001 C 
ATOM      4  C   UNL     1       0.203  -6.365  -5.665  0.00  0.00    +0.001 C 
ATOM      5  C   UNL     1      -0.945  -5.796  -4.830  0.00  0.00    +0.013 C 
ATOM      6  C   UNL     1      -0.997  -6.512  -3.479  0.00  0.00    +0.087 C 
ENDROOT
BRANCH   6   7
ATOM      7  C   UNL     1      -2.128  -5.951  -2.655  0.00  0.00    +0.219 C 
ATOM      8  O   UNL     1      -2.564  -4.846  -2.898  0.00  0.00    -0.275 OA
ATOM      9  N   UNL     1      -2.654  -6.678  -1.650  0.00  0.00    -0.298 N 
ATOM     10  C   UNL     1      -2.063  -7.969  -1.271  0.00  0.00    +0.126 C 
ATOM     11  C   UNL     1      -1.723  -7.932   0.224  0.00  0.00    +0.125 C 
ATOM     12  N   UNL     1      -2.898  -7.447   0.962  0.00  0.00    -0.314 N 
ATOM     13  C   UNL     1      -3.489  -6.156   0.583  0.00  0.00    +0.125 C 
ATOM     14  C   UNL     1      -3.826  -6.191  -0.909  0.00  0.00    +0.126 C 
ATOM     15  C   UNL     1      -3.441  -8.197   1.999  0.00  0.00    +0.099 A 
ATOM     16  C   UNL     1      -2.788  -9.346   2.434  0.00  0.00    +0.042 A 
ATOM     17  C   UNL     1      -3.340 -10.082   3.467  0.00  0.00    +0.005 A 
ATOM     18  C   UNL     1      -4.530  -9.643   4.032  0.00  0.00    +0.018 A 
ATOM     19  C   UNL     1      -5.123  -8.493   3.551  0.00  0.00    +0.084 A 
ATOM     20  N   UNL     1      -4.571  -7.807   2.568  0.00  0.00    -0.350 N 
ATOM     21  H   UNL     1      -5.007  -7.001   2.251  0.00  0.00    +0.166 HD
ENDBRANCH   6   7
BRANCH   1  23
ATOM     22  N   UNL     1       1.657  -4.402  -1.880  0.00  0.00    -0.302 N 
ATOM     23  C   UNL     1       0.548  -4.828  -2.517  0.00  0.00    +0.217 C 
ATOM     24  O   UNL     1      -0.270  -4.025  -2.913  0.00  0.00    -0.275 OA
ATOM     25  H   UNL     1       2.312  -5.044  -1.564  0.00  0.00    +0.150 HD
BRANCH  22  26
ATOM     26  C   UNL     1       1.874  -2.969  -1.665  0.00  0.00    +0.186 C 
BRANCH  26  27
ATOM     27  C   UNL     1       1.161  -2.537  -0.410  0.00  0.00    +0.328 C 
ATOM     28  O   UNL     1       0.536  -3.342   0.239  0.00  0.00    -0.249 OA
BRANCH  27  29
ATOM     29  O   UNL     1       1.220  -1.256  -0.012  0.00  0.00    -0.464 OA
BRANCH  29  31
ATOM     30  C   UNL     1       0.703   0.575   1.478  0.00  0.00    +0.048 C 
ATOM     31  C   UNL     1       0.521  -0.916   1.187  0.00  0.00    +0.229 C 
ENDBRANCH  29  31
ENDBRANCH  27  29
ENDBRANCH  26  27
BRANCH  26  32
ATOM     32  C   UNL     1       3.372  -2.696  -1.521  0.00  0.00    +0.069 C 
BRANCH  32  33
ATOM     33  C   UNL     1       4.068  -3.014  -2.820  0.00  0.00    -0.045 A 
ATOM     34  C   UNL     1       4.552  -4.288  -3.050  0.00  0.00    +0.005 A 
ATOM     35  C   UNL     1       5.190  -4.580  -4.241  0.00  0.00    +0.020 A 
ATOM     36  C   UNL     1       5.344  -3.597  -5.202  0.00  0.00    +0.041 A 
ATOM     37  C   UNL     1       4.859  -2.322  -4.971  0.00  0.00    +0.020 A 
ATOM     38  C   UNL     1       4.216  -2.033  -3.782  0.00  0.00    +0.005 A 
ATOM     39 CL   UNL     1       6.146  -3.963  -6.698  0.00  0.00    -0.084 Cl
ENDBRANCH  32  33
ENDBRANCH  26  32
ENDBRANCH  22  26
ENDBRANCH   1  23
TORSDOF 8
