REMARK  Name = ZINC44960802
REMARK  10 active torsions:
REMARK  status: ('A' for Active; 'I' for Inactive)
REMARK    1  A    between atoms: C_3  and  C_15
REMARK    2  A    between atoms: C_4  and  O_7
REMARK    3  A    between atoms: O_7  and  C_8
REMARK    4  A    between atoms: C_20  and  C_23
REMARK    5  A    between atoms: C_23  and  C_24
REMARK    6  A    between atoms: C_24  and  C_25
REMARK    7  A    between atoms: C_25  and  C_26
REMARK    8  A    between atoms: N_29  and  C_32
REMARK    9  A    between atoms: C_32  and  C_33
REMARK   10  A    between atoms: C_33  and  O_34
REMARK                            x       y       z     vdW  Elec       q    Type
REMARK                         _______ _______ _______ _____ _____    ______ ____
ROOT
ATOM      1  C   UNL     1       3.692   2.038  -0.012  0.00  0.00    +0.252 C 
ATOM      2  O   UNL     1       2.618   1.478  -0.119  0.00  0.00    -0.270 OA
ATOM      3  N   UNL     1       3.742   3.378   0.125  0.00  0.00    -0.297 N 
ATOM      4  C   UNL     1       2.515   4.183   0.060  0.00  0.00    +0.108 C 
ATOM      5  C   UNL     1       2.701   5.282  -0.991  0.00  0.00    +0.022 C 
ATOM      6  C   UNL     1       3.964   6.084  -0.666  0.00  0.00    -0.008 C 
ATOM      7  C   UNL     1       5.183   5.160  -0.712  0.00  0.00    +0.022 C 
ATOM      8  C   UNL     1       5.024   4.060   0.348  0.00  0.00    +0.108 C 
ENDROOT
BRANCH   1  11
ATOM      9  C   UNL     1       7.019   0.595   0.948  0.00  0.00    +0.021 A 
ATOM     10  C   UNL     1       5.864   1.355   1.014  0.00  0.00    +0.020 A 
ATOM     11  C   UNL     1       4.940   1.251  -0.032  0.00  0.00    +0.099 A 
ATOM     12  C   UNL     1       5.221   0.385  -1.099  0.00  0.00    +0.233 A 
ATOM     13  N   UNL     1       6.341  -0.319  -1.113  0.00  0.00    -0.220 NA
ATOM     14  C   UNL     1       7.225  -0.236  -0.138  0.00  0.00    +0.114 A 
BRANCH  12  15
ATOM     15  O   UNL     1       4.341   0.269  -2.122  0.00  0.00    -0.437 OA
BRANCH  15  16
ATOM     16  C   UNL     1       4.599  -0.656  -3.084  0.00  0.00    +0.130 A 
ATOM     17  C   UNL     1       4.389  -2.003  -2.827  0.00  0.00    +0.048 A 
ATOM     18  C   UNL     1       4.651  -2.941  -3.806  0.00  0.00    +0.023 A 
ATOM     19  C   UNL     1       5.124  -2.539  -5.042  0.00  0.00    +0.041 A 
ATOM     20  C   UNL     1       5.334  -1.196  -5.301  0.00  0.00    +0.023 A 
ATOM     21  C   UNL     1       5.067  -0.254  -4.326  0.00  0.00    +0.048 A 
ATOM     22 CL   UNL     1       5.454  -3.720  -6.271  0.00  0.00    -0.084 Cl
ENDBRANCH  15  16
ENDBRANCH  12  15
ENDBRANCH   1  11
BRANCH   6  23
ATOM     23  C   UNL     1       4.134   7.204  -1.695  0.00  0.00    +0.003 C 
BRANCH  23  24
ATOM     24  C   UNL     1       5.324   8.082  -1.300  0.00  0.00    +0.001 C 
BRANCH  24  25
ATOM     25  C   UNL     1       5.495   9.202  -2.329  0.00  0.00    +0.003 C 
BRANCH  25  26
ATOM     26  C   UNL     1       6.684  10.079  -1.934  0.00  0.00    -0.014 C 
ATOM     27  C   UNL     1       6.377  10.796  -0.616  0.00  0.00    -0.015 C 
ATOM     28  C   UNL     1       7.537  11.732  -0.268  0.00  0.00    -0.078 C 
ATOM     29  N   UNL     1       7.707  12.723  -1.337  0.00  0.00    +0.381 N 
ATOM     30  C   UNL     1       8.073  12.048  -2.589  0.00  0.00    -0.078 C 
ATOM     31  C   UNL     1       6.934  11.124  -3.026  0.00  0.00    -0.015 C 
ATOM     32  H   UNL     1       6.843  13.227  -1.468  0.00  0.00    -0.082 HD
BRANCH  29  33
ATOM     33  C   UNL     1       8.770  13.666  -0.964  0.00  0.00    -0.051 C 
BRANCH  33  34
ATOM     34  C   UNL     1       8.864  14.771  -2.017  0.00  0.00    +0.137 C 
BRANCH  34  35
ATOM     35  O   UNL     1       7.659  15.539  -2.012  0.00  0.00    -0.397 OA
ATOM     36  H   UNL     1       7.649  16.259  -2.657  0.00  0.00    +0.209 HD
ENDBRANCH  34  35
ENDBRANCH  33  34
ENDBRANCH  29  33
ENDBRANCH  25  26
ENDBRANCH  24  25
ENDBRANCH  23  24
ENDBRANCH   6  23
TORSDOF 10
