REMARK  Name = ZINC10156498
REMARK  7 active torsions:
REMARK  status: ('A' for Active; 'I' for Inactive)
REMARK    1  A    between atoms: C_1  and  C_2
REMARK    2  A    between atoms: C_5  and  N_9
REMARK    3  A    between atoms: C_7  and  C_8
REMARK    4  A    between atoms: C_18  and  C_20
REMARK    5  A    between atoms: C_20  and  S_21
REMARK    6  A    between atoms: S_21  and  C_22
REMARK    7  A    between atoms: N_26  and  C_27
REMARK                            x       y       z     vdW  Elec       q    Type
REMARK                         _______ _______ _______ _____ _____    ______ ____
ROOT
ATOM      1  N   UNL     1      -1.816   0.653   0.263  0.00  0.00    -0.328 N 
ATOM      2  C   UNL     1      -1.028   1.678   0.736  0.00  0.00    +0.180 C 
ATOM      3  N   UNL     1       0.078   1.396   1.512  0.00  0.00    -0.298 N 
ATOM      4  C   UNL     1       0.887   2.416   1.951  0.00  0.00    +0.211 A 
ATOM      5  N   UNL     1       1.974   2.125   2.715  0.00  0.00    -0.293 N 
ATOM      6  H   UNL     1       2.174   1.204   2.946  0.00  0.00    +0.172 HD
ATOM      7  C   UNL     1       2.777   3.121   3.146  0.00  0.00    +0.253 A 
ATOM      8  O   UNL     1       3.759   2.877   3.828  0.00  0.00    -0.268 OA
ATOM      9  C   UNL     1       2.456   4.446   2.798  0.00  0.00    +0.094 A 
ATOM     10  C   UNL     1       1.349   4.677   2.034  0.00  0.00    +0.060 A 
ATOM     11  N   UNL     1       0.593   3.659   1.629  0.00  0.00    -0.218 NA
ATOM     12  H   UNL     1      -2.641   0.853  -0.206  0.00  0.00    +0.169 HD
ATOM     13  H   UNL     1      -2.121   3.217  -0.026  0.00  0.00    +0.159 HD
ATOM     14  H   UNL     1       0.287   0.477   1.743  0.00  0.00    +0.172 HD
ATOM     15  N   UNL     1      -1.273   2.953   0.477  0.00  0.00    -0.371 N 
ATOM     16  H   UNL     1      -0.611   3.675   0.782  0.00  0.00    +0.159 HD
ENDROOT
BRANCH   1  21
ATOM     17  C   UNL     1      -0.240  -4.738   1.060  0.00  0.00    +0.044 C 
ATOM     18  C   UNL     1      -0.659  -3.305   0.848  0.00  0.00    -0.047 A 
ATOM     19  C   UNL     1       0.301  -2.322   0.694  0.00  0.00    +0.005 A 
ATOM     20  C   UNL     1      -0.080  -1.009   0.495  0.00  0.00    +0.026 A 
ATOM     21  C   UNL     1      -1.428  -0.676   0.460  0.00  0.00    +0.042 A 
ATOM     22  C   UNL     1      -2.389  -1.666   0.616  0.00  0.00    +0.029 A 
ATOM     23  C   UNL     1      -2.002  -2.978   0.809  0.00  0.00    -0.046 A 
ATOM     24  C   UNL     1      -3.044  -4.053   0.978  0.00  0.00    +0.044 C 
ENDBRANCH   1  21
BRANCH  10  25
ATOM     25  C   UNL     1       0.983   6.087   1.647  0.00  0.00    +0.133 C 
BRANCH  25  26
ATOM     26  S   UNL     1       1.400   6.362  -0.093  0.00  0.00    -0.078 S 
BRANCH  26  27
ATOM     27  C   UNL     1       0.882   8.037  -0.270  0.00  0.00    +0.214 A 
ATOM     28  N   UNL     1       0.351   8.795   0.666  0.00  0.00    -0.101 NA
ATOM     29  N   UNL     1       0.089   9.964   0.203  0.00  0.00    -0.022 NA
ATOM     30  N   UNL     1       0.426  10.042  -1.038  0.00  0.00    -0.038 NA
ATOM     31  N   UNL     1       0.961   8.791  -1.395  0.00  0.00    -0.187 N 
BRANCH  31  32
ATOM     32  C   UNL     1       1.466   8.406  -2.645  0.00  0.00    +0.070 A 
ATOM     33  C   UNL     1       2.546   7.537  -2.721  0.00  0.00    +0.028 A 
ATOM     34  C   UNL     1       3.038   7.155  -3.954  0.00  0.00    +0.002 A 
ATOM     35  C   UNL     1       2.463   7.646  -5.111  0.00  0.00    +0.000 A 
ATOM     36  C   UNL     1       1.390   8.515  -5.039  0.00  0.00    +0.002 A 
ATOM     37  C   UNL     1       0.890   8.897  -3.809  0.00  0.00    +0.028 A 
ENDBRANCH  31  32
ENDBRANCH  26  27
ENDBRANCH  25  26
ENDBRANCH  10  25
TORSDOF 5
