REMARK  Name = ZINC64960079
REMARK  4 active torsions:
REMARK  status: ('A' for Active; 'I' for Inactive)
REMARK    1  A    between atoms: C_1  and  C_2
REMARK    2  A    between atoms: C_5  and  N_9
REMARK    3  A    between atoms: C_6  and  C_8
REMARK    4  A    between atoms: C_10  and  C_12
REMARK                            x       y       z     vdW  Elec       q    Type
REMARK                         _______ _______ _______ _____ _____    ______ ____
ROOT
ATOM      1  C   UNL     1      -0.134  -6.343  -1.187  0.00  0.00    +0.247 C 
ATOM      2  N   UNL     1       0.227  -6.856  -2.506  0.00  0.00    -0.319 N 
ATOM      3  C   UNL     1      -0.567  -6.684  -3.638  0.00  0.00    +0.055 A 
ATOM      4  C   UNL     1       0.026  -6.781  -4.896  0.00  0.00    +0.026 A 
ATOM      5  C   UNL     1      -0.735  -6.633  -6.036  0.00  0.00    +0.022 A 
ATOM      6  C   UNL     1      -2.094  -6.387  -5.941  0.00  0.00    +0.043 A 
ATOM      7  C   UNL     1      -2.688  -6.281  -4.695  0.00  0.00    +0.050 A 
ATOM      8  C   UNL     1      -1.927  -6.421  -3.553  0.00  0.00    +0.127 A 
ATOM      9  S   UNL     1      -2.684  -6.247  -1.965  0.00  0.00    +0.062 S 
ATOM     10  O   UNL     1      -2.877  -4.856  -1.748  0.00  0.00    -0.153 OA
ATOM     11  O   UNL     1      -3.746  -7.189  -1.905  0.00  0.00    -0.153 OA
ATOM     12  N   UNL     1      -1.519  -6.753  -0.879  0.00  0.00    -0.161 NA
ATOM     13 CL   UNL     1      -3.049  -6.210  -7.379  0.00  0.00    -0.083 Cl
ATOM     14  H   UNL     1       1.062  -7.341  -2.599  0.00  0.00    +0.148 HD
ATOM     15  H   UNL     1      -1.736  -7.284  -0.097  0.00  0.00    +0.151 HD
ENDROOT
BRANCH   1  17
ATOM     16  N   UNL     1      -0.067  -4.162  -0.021  0.00  0.00    -0.283 N 
ATOM     17  C   UNL     1      -0.040  -4.839  -1.187  0.00  0.00    +0.254 C 
ATOM     18  O   UNL     1       0.059  -4.237  -2.235  0.00  0.00    -0.272 OA
ATOM     19  H   UNL     1      -0.085  -4.645   0.820  0.00  0.00    +0.155 HD
BRANCH  16  24
ATOM     20  C   UNL     1      -0.077   1.511  -0.036  0.00  0.00    +0.044 C 
ATOM     21  C   UNL     1      -0.074   0.004  -0.032  0.00  0.00    -0.050 A 
ATOM     22  C   UNL     1       0.619  -0.687  -1.009  0.00  0.00    +0.005 A 
ATOM     23  C   UNL     1       0.623  -2.068  -1.009  0.00  0.00    +0.024 A 
ATOM     24  C   UNL     1      -0.069  -2.763  -0.025  0.00  0.00    +0.036 A 
ATOM     25  C   UNL     1      -0.763  -2.066   0.955  0.00  0.00    -0.029 A 
ATOM     26  C   UNL     1      -0.760  -0.684   0.951  0.00  0.00    +0.008 A 
ATOM     27  C   UNL     1      -1.516  -2.815   2.024  0.00  0.00    +0.045 C 
ENDBRANCH  16  24
ENDBRANCH   1  17
TORSDOF 2
