REMARK  Name = ZINC27667419
REMARK  12 active torsions:
REMARK  status: ('A' for Active; 'I' for Inactive)
REMARK    1  A    between atoms: C_1  and  C_2
REMARK    2  A    between atoms: C_2  and  C_30
REMARK    3  A    between atoms: N_5  and  C_9
REMARK    4  A    between atoms: C_9  and  C_10
REMARK    5  A    between atoms: N_12  and  C_13
REMARK    6  A    between atoms: C_13  and  C_14
REMARK    7  A    between atoms: C_14  and  C_16
REMARK    8  A    between atoms: C_14  and  N_24
REMARK    9  A    between atoms: C_19  and  O_22
REMARK   10  A    between atoms: O_22  and  C_23
REMARK   11  A    between atoms: C_33  and  O_36
REMARK   12  A    between atoms: O_36  and  C_37
REMARK                            x       y       z     vdW  Elec       q    Type
REMARK                         _______ _______ _______ _____ _____    ______ ____
ROOT
ATOM      1  C   UNL     1       2.018  -7.533   2.232  0.00  0.00    +0.231 C 
ATOM      2  O   UNL     1       1.766  -7.854   1.089  0.00  0.00    -0.274 OA
ATOM      3  N   UNL     1       2.626  -8.407   3.058  0.00  0.00    -0.315 N 
ATOM      4  H   UNL     1       2.854  -8.117   4.094  0.00  0.00    +0.149 HD
ENDROOT
BRANCH   1   5
ATOM      5  C   UNL     1       1.650  -6.158   2.727  0.00  0.00    +0.213 C 
BRANCH   5  10
ATOM      6  C   UNL     1       0.840  -4.508  -1.599  0.00  0.00    +0.047 C 
ATOM      7  C   UNL     1       0.606  -4.061  -0.155  0.00  0.00    +0.135 C 
ATOM      8  C   UNL     1       1.668  -4.634   0.763  0.00  0.00    +0.251 C 
ATOM      9  O   UNL     1       2.863  -4.439   0.712  0.00  0.00    -0.272 OA
ATOM     10  N   UNL     1       1.006  -5.406   1.648  0.00  0.00    -0.215 N 
ATOM     11  C   UNL     1      -0.312  -5.400   1.419  0.00  0.00    +0.310 C 
ATOM     12  O   UNL     1      -1.116  -6.022   2.085  0.00  0.00    -0.252 OA
ATOM     13  N   UNL     1      -0.648  -4.630   0.368  0.00  0.00    -0.281 N 
ATOM     14  H   UNL     1      -1.606  -4.383  -0.112  0.00  0.00    +0.152 HD
BRANCH   7  15
ATOM     15  C   UNL     1       0.584  -2.556  -0.065  0.00  0.00    -0.015 A 
ATOM     16  C   UNL     1      -0.614  -1.876  -0.184  0.00  0.00    +0.010 A 
ATOM     17  C   UNL     1      -0.637  -0.497  -0.102  0.00  0.00    +0.046 A 
ATOM     18  C   UNL     1       0.543   0.205   0.100  0.00  0.00    +0.120 A 
ATOM     19  C   UNL     1       1.744  -0.480   0.214  0.00  0.00    +0.046 A 
ATOM     20  C   UNL     1       1.761  -1.859   0.137  0.00  0.00    +0.010 A 
BRANCH  18  21
ATOM     21  O   UNL     1       0.523   1.561   0.181  0.00  0.00    -0.495 OA
ATOM     22  C   UNL     1       1.775   2.217   0.391  0.00  0.00    +0.277 C 
ENDBRANCH  18  21
ENDBRANCH   7  15
ENDBRANCH   5  10
ENDBRANCH   1   5
BRANCH   3  23
ATOM     23  C   UNL     1       2.983  -9.744   2.576  0.00  0.00    +0.093 C 
BRANCH  23  24
ATOM     24  C   UNL     1       3.780 -10.479   3.655  0.00  0.00    -0.020 C 
BRANCH  24  25
ATOM     25  N   UNL     1       4.075 -11.845   3.202  0.00  0.00    +0.385 N 
ATOM     26  C   UNL     1       2.840 -12.572   2.882  0.00  0.00    -0.078 C 
ATOM     27  C   UNL     1       3.189 -13.933   2.278  0.00  0.00    -0.019 C 
ATOM     28  C   UNL     1       4.029 -14.731   3.280  0.00  0.00    -0.004 C 
ATOM     29  C   UNL     1       5.285 -13.930   3.632  0.00  0.00    -0.019 C 
ATOM     30  C   UNL     1       4.875 -12.569   4.198  0.00  0.00    -0.078 C 
ATOM     31  H   UNL     1       4.671 -11.775   2.280  0.00  0.00    -0.081 HD
ENDBRANCH  24  25
BRANCH  24  32
ATOM     32  C   UNL     1       5.071  -9.745   3.914  0.00  0.00    -0.059 A 
ATOM     33  C   UNL     1       6.144  -9.917   3.059  0.00  0.00    +0.005 A 
ATOM     34  C   UNL     1       7.327  -9.241   3.291  0.00  0.00    +0.046 A 
ATOM     35  C   UNL     1       7.441  -8.399   4.388  0.00  0.00    +0.120 A 
ATOM     36  C   UNL     1       6.364  -8.234   5.246  0.00  0.00    +0.046 A 
ATOM     37  C   UNL     1       5.181  -8.907   5.007  0.00  0.00    +0.005 A 
BRANCH  35  38
ATOM     38  O   UNL     1       8.605  -7.739   4.621  0.00  0.00    -0.495 OA
ATOM     39  C   UNL     1       9.671  -7.957   3.695  0.00  0.00    +0.277 C 
ENDBRANCH  35  38
ENDBRANCH  24  32
ENDBRANCH  23  24
ENDBRANCH   3  23
TORSDOF 9
