REMARK  Name = ZINC01594245
REMARK  16 active torsions:
REMARK  status: ('A' for Active; 'I' for Inactive)
REMARK    1  A    between atoms: C_1  and  C_2
REMARK    2  A    between atoms: C_2  and  C_3
REMARK    3  A    between atoms: C_3  and  C_21
REMARK    4  A    between atoms: C_4  and  C_5
REMARK    5  A    between atoms: C_4  and  C_7
REMARK    6  A    between atoms: C_5  and  C_6
REMARK    7  A    between atoms: C_10  and  O_20
REMARK    8  A    between atoms: C_11  and  C_13
REMARK    9  A    between atoms: C_13  and  N_59
REMARK   10  A    between atoms: C_14  and  C_15
REMARK   11  A    between atoms: C_14  and  N_59
REMARK   12  A    between atoms: C_15  and  O_16
REMARK   13  A    between atoms: C_17  and  C_18
REMARK   14  A    between atoms: C_17  and  N_59
REMARK   15  A    between atoms: C_18  and  O_19
REMARK   16  A    between atoms: C_24  and  O_27
REMARK                            x       y       z     vdW  Elec       q    Type
REMARK                         _______ _______ _______ _____ _____    ______ ____
ROOT
ATOM      1  C   UNL     1       2.096   2.885  -0.197  0.00  0.00    -0.021 A 
ATOM      2  C   UNL     1       1.343   4.056  -0.318  0.00  0.00    +0.012 A 
ATOM      3  C   UNL     1       0.040   3.991  -0.761  0.00  0.00    +0.046 A 
ATOM      4  C   UNL     1      -0.525   2.764  -1.087  0.00  0.00    +0.118 A 
ATOM      5  C   UNL     1       0.221   1.599  -0.974  0.00  0.00    -0.022 A 
ATOM      6  C   UNL     1       1.524   1.653  -0.526  0.00  0.00    +0.013 A 
ENDROOT
BRANCH   1   8
ATOM      7  C   UNL     1       3.751   3.277   1.553  0.00  0.00    -0.037 C 
ATOM      8  C   UNL     1       3.490   2.948   0.277  0.00  0.00    -0.037 C 
BRANCH   7   9
ATOM      9  C   UNL     1       5.145   3.461   1.996  0.00  0.00    -0.021 A 
ATOM     10  C   UNL     1       5.995   2.357   2.109  0.00  0.00    +0.012 A 
ATOM     11  C   UNL     1       7.299   2.534   2.519  0.00  0.00    +0.046 A 
ATOM     12  C   UNL     1       7.765   3.805   2.830  0.00  0.00    +0.117 A 
ATOM     13  C   UNL     1       6.922   4.904   2.724  0.00  0.00    +0.046 A 
ATOM     14  C   UNL     1       5.618   4.738   2.310  0.00  0.00    +0.012 A 
BRANCH  12  15
ATOM     15  O   UNL     1       9.050   3.974   3.238  0.00  0.00    -0.507 OA
ATOM     16  H   UNL     1       9.170   3.910   4.196  0.00  0.00    +0.292 HD
ENDBRANCH  12  15
ENDBRANCH   7   9
BRANCH   7  18
ATOM     17  C   UNL     1       2.399   2.156   3.303  0.00  0.00    +0.009 C 
ATOM     18  C   UNL     1       2.619   3.459   2.531  0.00  0.00    +0.032 C 
ENDBRANCH   7  18
BRANCH   8  19
ATOM     19  C   UNL     1       4.623   2.645  -0.670  0.00  0.00    +0.032 C 
ATOM     20  C   UNL     1       4.981   3.906  -1.458  0.00  0.00    +0.009 C 
ENDBRANCH   8  19
ENDBRANCH   1   8
BRANCH   4  21
ATOM     21  O   UNL     1      -1.810   2.705  -1.525  0.00  0.00    -0.507 OA
ATOM     22  H   UNL     1      -1.903   2.782  -2.484  0.00  0.00    +0.292 HD
ENDBRANCH   4  21
BRANCH   5  23
ATOM     23  C   UNL     1      -0.396   0.272  -1.335  0.00  0.00    -0.039 C 
BRANCH  23  24
ATOM     24  N   UNL     1      -1.092  -0.265  -0.147  0.00  0.00    +0.385 N 
ATOM     25  H   UNL     1      -0.509  -0.104   0.683  0.00  0.00    -0.081 HD
BRANCH  24  26
ATOM     26  C   UNL     1      -2.387   0.424   0.035  0.00  0.00    -0.050 C 
BRANCH  26  27
ATOM     27  C   UNL     1      -3.244   0.296  -1.226  0.00  0.00    +0.137 C 
BRANCH  27  28
ATOM     28  O   UNL     1      -3.672  -1.059  -1.375  0.00  0.00    -0.397 OA
ATOM     29  H   UNL     1      -4.222  -1.214  -2.156  0.00  0.00    +0.209 HD
ENDBRANCH  27  28
ENDBRANCH  26  27
ENDBRANCH  24  26
BRANCH  24  30
ATOM     30  C   UNL     1      -1.311  -1.718  -0.304  0.00  0.00    -0.050 C 
BRANCH  30  31
ATOM     31  C   UNL     1      -1.730  -2.302   1.047  0.00  0.00    +0.137 C 
BRANCH  31  32
ATOM     32  O   UNL     1      -3.047  -1.851   1.373  0.00  0.00    -0.397 OA
ATOM     33  H   UNL     1      -3.348  -2.120   2.252  0.00  0.00    +0.209 HD
ENDBRANCH  31  32
ENDBRANCH  30  31
ENDBRANCH  24  30
ENDBRANCH  23  24
ENDBRANCH   5  23
TORSDOF 14
