REMARK  Name = ZINC26655606
REMARK  7 active torsions:
REMARK  status: ('A' for Active; 'I' for Inactive)
REMARK    1  A    between atoms: N_10  and  C_13
REMARK    2  A    between atoms: C_16  and  S_19
REMARK    3  A    between atoms: S_19  and  N_22
REMARK    4  A    between atoms: N_22  and  C_23
REMARK    5  A    between atoms: N_22  and  C_30
REMARK    6  A    between atoms: C_23  and  C_24
REMARK    7  A    between atoms: C_30  and  C_31
REMARK                            x       y       z     vdW  Elec       q    Type
REMARK                         _______ _______ _______ _____ _____    ______ ____
ROOT
ATOM      1  C   UNL     1      -3.094   5.963  -0.500  0.00  0.00    +0.030 A 
ATOM      2  C   UNL     1      -3.683   5.262   0.545  0.00  0.00    +0.025 A 
ATOM      3  C   UNL     1      -2.943   4.342   1.260  0.00  0.00    +0.030 A 
ATOM      4  C   UNL     1      -1.617   4.118   0.939  0.00  0.00    +0.106 A 
ATOM      5  C   UNL     1      -1.026   4.818  -0.097  0.00  0.00    +0.030 A 
ATOM      6  C   UNL     1      -1.761   5.736  -0.820  0.00  0.00    +0.025 A 
ENDROOT
BRANCH   1  16
ATOM      7  C   UNL     1      -7.710   9.431  -5.623  0.00  0.00    +0.005 A 
ATOM      8  C   UNL     1      -7.230  10.732  -5.697  0.00  0.00    +0.018 A 
ATOM      9  C   UNL     1      -6.049  11.054  -5.059  0.00  0.00    +0.084 A 
ATOM     10  N   UNL     1      -5.378  10.144  -4.378  0.00  0.00    -0.350 N 
ATOM     11  C   UNL     1      -5.800   8.893  -4.289  0.00  0.00    +0.099 A 
ATOM     12  C   UNL     1      -6.982   8.498  -4.907  0.00  0.00    +0.042 A 
ATOM     13  N   UNL     1      -5.058   7.966  -3.566  0.00  0.00    -0.314 N 
ATOM     14  C   UNL     1      -3.852   8.585  -2.998  0.00  0.00    +0.125 C 
ATOM     15  C   UNL     1      -3.024   7.517  -2.279  0.00  0.00    +0.124 C 
ATOM     16  N   UNL     1      -3.840   6.895  -1.226  0.00  0.00    -0.327 N 
ATOM     17  C   UNL     1      -5.045   6.276  -1.794  0.00  0.00    +0.124 C 
ATOM     18  C   UNL     1      -5.873   7.344  -2.513  0.00  0.00    +0.125 C 
ATOM     19  H   UNL     1      -4.443  10.419  -3.868  0.00  0.00    +0.166 HD
ENDBRANCH   1  16
BRANCH   4  20
ATOM     20  S   UNL     1      -0.676   2.943   1.854  0.00  0.00    +0.061 S 
ATOM     21  O   UNL     1      -1.303   2.822   3.124  0.00  0.00    -0.153 OA
ATOM     22  O   UNL     1       0.688   3.313   1.710  0.00  0.00    -0.153 OA
BRANCH  20  23
ATOM     23  N   UNL     1      -0.852   1.479   1.099  0.00  0.00    -0.170 NA
BRANCH  23  24
ATOM     24  C   UNL     1      -1.944   0.582   1.485  0.00  0.00    +0.166 C 
BRANCH  24  25
ATOM     25  C   UNL     1      -1.448  -0.395   2.520  0.00  0.00    +0.074 A 
ATOM     26  C   UNL     1      -1.562  -0.259   3.855  0.00  0.00    +0.108 A 
ATOM     27  N   UNL     1      -0.984  -1.365   4.417  0.00  0.00    -0.351 N 
ATOM     28  H   UNL     1      -0.958  -1.476   5.511  0.00  0.00    +0.166 HD
ATOM     29  C   UNL     1      -0.537  -2.139   3.405  0.00  0.00    +0.196 A 
ATOM     30  N   UNL     1      -0.823  -1.555   2.273  0.00  0.00    -0.240 NA
ENDBRANCH  24  25
ENDBRANCH  23  24
BRANCH  23  31
ATOM     31  C   UNL     1       0.084   1.082   0.045  0.00  0.00    +0.113 C 
BRANCH  31  32
ATOM     32  C   UNL     1      -0.476   1.496  -1.317  0.00  0.00    +0.005 C 
ATOM     33  C   UNL     1      -1.756   0.708  -1.604  0.00  0.00    +0.005 C 
ATOM     34  C   UNL     1      -2.316   1.123  -2.966  0.00  0.00    +0.000 C 
ATOM     35  C   UNL     1      -1.281   0.828  -4.054  0.00  0.00    +0.000 C 
ATOM     36  C   UNL     1      -0.002   1.616  -3.768  0.00  0.00    +0.000 C 
ATOM     37  C   UNL     1       0.559   1.202  -2.406  0.00  0.00    +0.005 C 
ENDBRANCH  31  32
ENDBRANCH  23  31
ENDBRANCH  20  23
ENDBRANCH   4  20
TORSDOF 7
