REMARK  Name = ZINC25337703
REMARK  7 active torsions:
REMARK  status: ('A' for Active; 'I' for Inactive)
REMARK    1  A    between atoms: C_1  and  S_2
REMARK    2  A    between atoms: S_2  and  C_5
REMARK    3  A    between atoms: C_9  and  S_11
REMARK    4  A    between atoms: S_11  and  N_14
REMARK    5  A    between atoms: N_14  and  C_15
REMARK    6  A    between atoms: C_15  and  C_16
REMARK    7  A    between atoms: C_16  and  N_17
REMARK                            x       y       z     vdW  Elec       q    Type
REMARK                         _______ _______ _______ _____ _____    ______ ____
ROOT
ATOM      1  N   UNL     1      -0.773  -0.750   8.379  0.00  0.00    +0.383 N 
ATOM      2  C   UNL     1       0.502  -0.130   7.996  0.00  0.00    -0.060 C 
ATOM      3  C   UNL     1       1.135   0.529   9.224  0.00  0.00    +0.088 C 
ATOM      4  N   UNL     1       1.339  -0.483  10.269  0.00  0.00    -0.319 N 
ATOM      5  C   UNL     1       0.063  -1.104  10.652  0.00  0.00    +0.088 C 
ATOM      6  C   UNL     1      -0.570  -1.762   9.425  0.00  0.00    -0.060 C 
ATOM      7  C   UNL     1       1.980   0.065  11.377  0.00  0.00    +0.120 A 
ATOM      8  C   UNL     1       3.218   0.706  11.216  0.00  0.00    +0.069 A 
ATOM      9  C   UNL     1       3.831   1.248  12.328  0.00  0.00    -0.022 A 
ATOM     10  C   UNL     1       3.202   1.129  13.563  0.00  0.00    +0.023 A 
ATOM     11  C   UNL     1       1.986   0.483  13.646  0.00  0.00    +0.084 A 
ATOM     12  N   UNL     1       1.413  -0.018  12.567  0.00  0.00    -0.348 N 
ATOM     13  C   UNL     1       5.151   1.966  12.248  0.00  0.00    +0.038 C 
ATOM     14  C   UNL     1       5.830   1.644  10.914  0.00  0.00    +0.023 C 
ATOM     15  C   UNL     1       4.789   1.810   9.800  0.00  0.00    +0.102 C 
ATOM     16  N   UNL     1       3.778   0.758   9.939  0.00  0.00    -0.341 N 
ATOM     17  H   UNL     1       3.534   0.113   9.082  0.00  0.00    +0.146 HD
ATOM     18  H   UNL     1       0.438  -0.516  12.678  0.00  0.00    +0.167 HD
ATOM     19  H   UNL     1      -1.424   0.036   8.789  0.00  0.00    -0.082 HD
ENDROOT
BRANCH   1  20
ATOM     20  C   UNL     1      -1.450  -1.329   7.210  0.00  0.00    -0.062 C 
BRANCH  20  21
ATOM     21  C   UNL     1      -1.866  -0.208   6.255  0.00  0.00    +0.087 C 
BRANCH  21  22
ATOM     22  N   UNL     1      -2.540  -0.785   5.090  0.00  0.00    -0.192 NA
ATOM     23  H   UNL     1      -2.331  -1.823   4.791  0.00  0.00    +0.148 HD
BRANCH  22  24
ATOM     24  S   UNL     1      -3.422   0.185   4.078  0.00  0.00    +0.058 S 
ATOM     25  O   UNL     1      -4.274   0.965   4.905  0.00  0.00    -0.153 OA
ATOM     26  O   UNL     1      -3.921  -0.652   3.045  0.00  0.00    -0.153 OA
BRANCH  24  31
ATOM     27  C   UNL     1      -0.798   1.847   1.530  0.00  0.00    +0.090 A 
ATOM     28  C   UNL     1      -0.521   3.062   2.129  0.00  0.00    +0.027 A 
ATOM     29  C   UNL     1      -1.137   3.402   3.318  0.00  0.00    +0.004 A 
ATOM     30  C   UNL     1      -2.022   2.523   3.915  0.00  0.00    +0.028 A 
ATOM     31  C   UNL     1      -2.295   1.306   3.318  0.00  0.00    +0.107 A 
ATOM     32  C   UNL     1      -1.682   0.969   2.126  0.00  0.00    +0.055 A 
BRANCH  27  34
ATOM     33  C   UNL     1      -1.135   2.034  -1.279  0.00  0.00    +0.200 C 
ATOM     34  S   UNL     1      -0.017   1.417   0.010  0.00  0.00    -0.006 S 
ATOM     35  O   UNL     1       0.002  -0.004   0.002  0.00  0.00    -0.170 OA
ATOM     36  O   UNL     1       1.195   2.158   0.002  0.00  0.00    -0.170 OA
ENDBRANCH  27  34
ENDBRANCH  24  31
ENDBRANCH  22  24
ENDBRANCH  21  22
ENDBRANCH  20  21
ENDBRANCH   1  20
TORSDOF 6
