REMARK  Name = ZINC13433926
REMARK  4 active torsions:
REMARK  status: ('A' for Active; 'I' for Inactive)
REMARK    1  A    between atoms: C_9  and  C_12
REMARK    2  A    between atoms: C_14  and  C_16
REMARK    3  A    between atoms: N_19  and  S_22
REMARK    4  A    between atoms: S_22  and  C_25
REMARK                            x       y       z     vdW  Elec       q    Type
REMARK                         _______ _______ _______ _____ _____    ______ ____
ROOT
ATOM      1  C   UNL     1       4.106  -0.931  -4.459  0.00  0.00    +0.078 C 
ATOM      2  C   UNL     1       4.992   0.228  -3.997  0.00  0.00    +0.030 C 
ATOM      3  C   UNL     1       5.741  -0.183  -2.725  0.00  0.00    +0.110 C 
ATOM      4  N   UNL     1       4.764  -0.633  -1.725  0.00  0.00    -0.177 NA
ATOM      5  C   UNL     1       3.807  -1.685  -2.094  0.00  0.00    +0.110 C 
ATOM      6  C   UNL     1       3.076  -1.253  -3.374  0.00  0.00    +0.030 C 
ENDROOT
BRANCH   1  17
ATOM      7  C   UNL     1       2.003   0.537  -9.531  0.00  0.00    +0.002 A 
ATOM      8  C   UNL     1       1.456  -0.440 -10.342  0.00  0.00    +0.004 A 
ATOM      9  C   UNL     1       1.455  -1.761  -9.937  0.00  0.00    +0.047 A 
ATOM     10  C   UNL     1       2.003  -2.113  -8.713  0.00  0.00    +0.143 A 
ATOM     11  C   UNL     1       2.551  -1.127  -7.897  0.00  0.00    +0.078 A 
ATOM     12  C   UNL     1       2.551   0.196  -8.308  0.00  0.00    +0.027 A 
ATOM     13  N   UNL     1       3.105  -1.479  -6.654  0.00  0.00    -0.264 N 
ATOM     14  C   UNL     1       3.366  -2.906  -6.401  0.00  0.00    +0.170 C 
ATOM     15  C   UNL     1       2.156  -3.696  -6.931  0.00  0.00    +0.303 C 
ATOM     16  O   UNL     1       2.002  -3.416  -8.325  0.00  0.00    -0.474 OA
ATOM     17  C   UNL     1       3.393  -0.542  -5.729  0.00  0.00    +0.223 C 
ATOM     18  O   UNL     1       3.078   0.614  -5.918  0.00  0.00    -0.275 OA
BRANCH  15  19
ATOM     19  C   UNL     1       2.392  -5.171  -6.736  0.00  0.00    +0.397 C 
ATOM     20  O   UNL     1       2.515  -5.896  -7.695  0.00  0.00    -0.242 OA
ATOM     21  O   UNL     1       2.465  -5.681  -5.496  0.00  0.00    -0.242 OA
ENDBRANCH  15  19
ENDBRANCH   1  17
BRANCH   4  22
ATOM     22  S   UNL     1       4.745   0.029  -0.207  0.00  0.00    +0.061 S 
ATOM     23  O   UNL     1       6.048   0.544   0.028  0.00  0.00    -0.153 OA
ATOM     24  O   UNL     1       4.139  -0.931   0.648  0.00  0.00    -0.153 OA
BRANCH  22  25
ATOM     25  C   UNL     1       3.658   1.415  -0.257  0.00  0.00    +0.109 A 
ATOM     26  C   UNL     1       2.314   1.248   0.022  0.00  0.00    +0.032 A 
ATOM     27  C   UNL     1       1.458   2.333  -0.018  0.00  0.00    +0.051 A 
ATOM     28  C   UNL     1       1.945   3.591  -0.337  0.00  0.00    +0.162 A 
ATOM     29  C   UNL     1       3.296   3.759  -0.614  0.00  0.00    +0.164 A 
ATOM     30  C   UNL     1       4.149   2.667  -0.575  0.00  0.00    +0.078 A 
ATOM     31  O   UNL     1       3.796   4.987  -0.922  0.00  0.00    -0.485 OA
ATOM     32  C   UNL     1       2.851   5.987  -1.317  0.00  0.00    +0.270 C 
ATOM     33  C   UNL     1       1.676   5.954  -0.331  0.00  0.00    +0.270 C 
ATOM     34  O   UNL     1       1.088   4.648  -0.379  0.00  0.00    -0.485 OA
ENDBRANCH  22  25
ENDBRANCH   4  22
TORSDOF 4
