REMARK  Name = ZINC63619372
REMARK  9 active torsions:
REMARK  status: ('A' for Active; 'I' for Inactive)
REMARK    1  A    between atoms: C_1  and  C_2
REMARK    2  A    between atoms: C_5  and  C_9
REMARK    3  A    between atoms: C_7  and  C_8
REMARK    4  A    between atoms: N_13  and  C_14
REMARK    5  A    between atoms: C_14  and  C_15
REMARK    6  A    between atoms: C_15  and  C_17
REMARK    7  A    between atoms: C_18  and  N_27
REMARK    8  A    between atoms: N_19  and  C_26
REMARK    9  A    between atoms: N_22  and  C_25
REMARK                            x       y       z     vdW  Elec       q    Type
REMARK                         _______ _______ _______ _____ _____    ______ ____
ROOT
ATOM      1  C   UNL     1       0.518  -3.473  -2.725  0.00  0.00    +0.003 C 
ENDROOT
BRANCH   1   6
ATOM      2  C   UNL     1      -1.236  -4.100  -1.202  0.00  0.00    -0.037 C 
ATOM      3  C   UNL     1      -2.703  -4.221  -1.665  0.00  0.00    -0.013 C 
ATOM      4  C   UNL     1      -2.625  -5.271  -2.804  0.00  0.00    -0.020 C 
ATOM      5  C   UNL     1      -1.260  -4.929  -3.451  0.00  0.00    -0.077 C 
ATOM      6  N   UNL     1      -0.387  -4.556  -2.317  0.00  0.00    +0.389 N 
ATOM      7  H   UNL     1       0.153  -5.357  -2.027  0.00  0.00    -0.080 HD
BRANCH   2  12
ATOM      8  C   UNL     1      -0.019   1.405   0.066  0.00  0.00    +0.044 C 
ATOM      9  C   UNL     1      -0.337  -0.030  -0.264  0.00  0.00    -0.048 A 
ATOM     10  C   UNL     1       0.004  -1.035   0.622  0.00  0.00    +0.004 A 
ATOM     11  C   UNL     1      -0.287  -2.352   0.319  0.00  0.00    +0.002 A 
ATOM     12  C   UNL     1      -0.919  -2.664  -0.871  0.00  0.00    -0.061 A 
ATOM     13  C   UNL     1      -1.261  -1.659  -1.756  0.00  0.00    +0.005 A 
ATOM     14  C   UNL     1      -0.973  -0.342  -1.451  0.00  0.00    -0.047 A 
ATOM     15  C   UNL     1      -1.350   0.754  -2.414  0.00  0.00    +0.044 C 
ENDBRANCH   2  12
ENDBRANCH   1   6
BRANCH   1  16
ATOM     16  C   UNL     1       1.517  -4.002  -3.721  0.00  0.00    +0.155 C 
ATOM     17  O   UNL     1       1.479  -5.168  -4.059  0.00  0.00    -0.294 OA
BRANCH  16  18
ATOM     18  C   UNL     1       2.497  -3.142  -4.262  0.00  0.00    +0.118 A 
ATOM     19  C   UNL     1       3.515  -3.636  -5.096  0.00  0.00    +0.116 A 
ATOM     20  N   UNL     1       4.441  -2.765  -5.596  0.00  0.00    -0.284 N 
ATOM     21  C   UNL     1       4.394  -1.456  -5.305  0.00  0.00    +0.333 A 
ATOM     22  O   UNL     1       5.242  -0.722  -5.775  0.00  0.00    -0.246 OA
ATOM     23  N   UNL     1       3.446  -0.927  -4.515  0.00  0.00    -0.263 N 
ATOM     24  C   UNL     1       2.482  -1.702  -3.977  0.00  0.00    +0.269 A 
ATOM     25  O   UNL     1       1.621  -1.218  -3.265  0.00  0.00    -0.267 OA
ATOM     26  C   UNL     1       3.455   0.512  -4.239  0.00  0.00    +0.157 C 
ATOM     27  C   UNL     1       5.506  -3.270  -6.465  0.00  0.00    +0.155 C 
BRANCH  19  28
ATOM     28  N   UNL     1       3.578  -4.961  -5.400  0.00  0.00    -0.344 N 
ATOM     29  H   UNL     1       3.218  -5.618  -4.783  0.00  0.00    +0.144 HD
ATOM     30  H   UNL     1       3.982  -5.249  -6.233  0.00  0.00    +0.144 HD
ENDBRANCH  19  28
ENDBRANCH  16  18
ENDBRANCH   1  16
TORSDOF 5
