REMARK  Name = ZINC59577930
REMARK  13 active torsions:
REMARK  status: ('A' for Active; 'I' for Inactive)
REMARK    1  A    between atoms: C_1  and  C_2
REMARK    2  A    between atoms: C_4  and  C_15
REMARK    3  A    between atoms: C_6  and  C_14
REMARK    4  A    between atoms: C_7  and  O_8
REMARK    5  A    between atoms: O_8  and  C_9
REMARK    6  A    between atoms: C_9  and  C_10
REMARK    7  A    between atoms: C_15  and  N_16
REMARK    8  A    between atoms: N_16  and  C_17
REMARK    9  A    between atoms: N_16  and  C_18
REMARK   10  A    between atoms: C_18  and  C_19
REMARK   11  A    between atoms: N_21  and  C_22
REMARK   12  A    between atoms: C_26  and  S_28
REMARK   13  A    between atoms: S_28  and  N_31
REMARK                            x       y       z     vdW  Elec       q    Type
REMARK                         _______ _______ _______ _____ _____    ______ ____
ROOT
ATOM      1  N   UNL     1       1.414  -3.042  -2.948  0.00  0.00    +0.386 N 
ATOM      2  C   UNL     1       2.096  -3.925  -1.993  0.00  0.00    -0.095 C 
ATOM      3  H   UNL     1       1.895  -2.156  -2.989  0.00  0.00    -0.081 HD
ENDROOT
BRANCH   1   4
ATOM      4  C   UNL     1       0.028  -2.826  -2.512  0.00  0.00    -0.043 C 
BRANCH   4   8
ATOM      5  C   UNL     1      -0.040   1.498   0.003  0.00  0.00    +0.047 C 
ATOM      6  C   UNL     1      -0.010  -0.008  -0.001  0.00  0.00    -0.008 A 
ATOM      7  C   UNL     1      -0.005  -0.696  -1.199  0.00  0.00    +0.008 A 
ATOM      8  C   UNL     1       0.023  -2.078  -1.204  0.00  0.00    -0.063 A 
ATOM      9  C   UNL     1       0.045  -2.776  -0.010  0.00  0.00    +0.008 A 
ATOM     10  C   UNL     1       0.041  -2.093   1.190  0.00  0.00    -0.008 A 
ATOM     11  C   UNL     1       0.019  -0.706   1.198  0.00  0.00    +0.127 A 
ATOM     12  C   UNL     1       0.065  -2.853   2.491  0.00  0.00    +0.047 C 
BRANCH  11  13
ATOM     13  O   UNL     1       0.020  -0.031   2.378  0.00  0.00    -0.483 OA
BRANCH  13  14
ATOM     14  C   UNL     1      -1.252   0.266   2.957  0.00  0.00    +0.342 C 
BRANCH  14  15
ATOM     15  C   UNL     1      -1.050   1.023   4.271  0.00  0.00    +0.424 C 
ATOM     16  F   UNL     1      -0.362   2.215   4.022  0.00  0.00    -0.167 F 
ATOM     17  F   UNL     1      -2.296   1.313   4.838  0.00  0.00    -0.167 F 
ATOM     18  F   UNL     1      -0.309   0.232   5.155  0.00  0.00    -0.167 F 
ENDBRANCH  14  15
ENDBRANCH  13  14
ENDBRANCH  11  13
ENDBRANCH   4   8
ENDBRANCH   1   4
BRANCH   1  19
ATOM     19  C   UNL     1       1.417  -3.663  -4.279  0.00  0.00    +0.019 C 
BRANCH  19  20
ATOM     20  C   UNL     1       2.835  -3.772  -4.779  0.00  0.00    +0.201 C 
ATOM     21  O   UNL     1       3.752  -3.371  -4.093  0.00  0.00    -0.278 OA
ATOM     22  N   UNL     1       3.084  -4.315  -5.987  0.00  0.00    -0.287 N 
ATOM     23  H   UNL     1       2.359  -4.696  -6.506  0.00  0.00    +0.155 HD
BRANCH  22  24
ATOM     24  C   UNL     1       4.389  -4.328  -6.492  0.00  0.00    +0.035 A 
ATOM     25  C   UNL     1       4.609  -4.167  -7.854  0.00  0.00    +0.023 A 
ATOM     26  C   UNL     1       5.898  -4.181  -8.350  0.00  0.00    +0.004 A 
ATOM     27  C   UNL     1       6.968  -4.355  -7.492  0.00  0.00    +0.028 A 
ATOM     28  C   UNL     1       6.753  -4.516  -6.136  0.00  0.00    +0.107 A 
ATOM     29  C   UNL     1       5.466  -4.496  -5.633  0.00  0.00    +0.051 A 
BRANCH  28  30
ATOM     30  S   UNL     1       8.120  -4.737  -5.048  0.00  0.00    +0.056 S 
ATOM     31  O   UNL     1       7.621  -5.410  -3.900  0.00  0.00    -0.153 OA
ATOM     32  O   UNL     1       9.184  -5.257  -5.833  0.00  0.00    -0.153 OA
BRANCH  30  33
ATOM     33  N   UNL     1       8.595  -3.232  -4.545  0.00  0.00    -0.204 NA
ATOM     34  H   UNL     1       8.996  -3.118  -3.669  0.00  0.00    +0.144 HD
ATOM     35  H   UNL     1       8.470  -2.466  -5.125  0.00  0.00    +0.144 HD
ENDBRANCH  30  33
ENDBRANCH  28  30
ENDBRANCH  22  24
ENDBRANCH  19  20
ENDBRANCH   1  19
TORSDOF 10
