REMARK  Name = ZINC35780629
REMARK  10 active torsions:
REMARK  status: ('A' for Active; 'I' for Inactive)
REMARK    1  A    between atoms: C_1  and  C_2
REMARK    2  A    between atoms: C_2  and  C_3
REMARK    3  A    between atoms: C_3  and  C_5
REMARK    4  A    between atoms: C_3  and  N_6
REMARK    5  A    between atoms: N_6  and  C_7
REMARK    6  A    between atoms: C_7  and  C_8
REMARK    7  A    between atoms: C_9  and  C_20
REMARK    8  A    between atoms: C_12  and  N_13
REMARK    9  A    between atoms: N_16  and  C_19
REMARK   10  A    between atoms: N_29  and  C_30
REMARK                            x       y       z     vdW  Elec       q    Type
REMARK                         _______ _______ _______ _____ _____    ______ ____
ROOT
ATOM      1  C   UNL     1       3.057   2.218  -2.636  0.00  0.00    +0.059 A 
ATOM      2  C   UNL     1       2.014   3.135  -2.880  0.00  0.00    +0.120 A 
ATOM      3  N   UNL     1       2.403   4.314  -2.451  0.00  0.00    -0.076 NA
ATOM      4  O   UNL     1       3.709   4.178  -1.922  0.00  0.00    -0.339 OA
ATOM      5  C   UNL     1       4.077   2.891  -2.045  0.00  0.00    +0.225 A 
ENDROOT
BRANCH   5   6
ATOM      6  N   UNL     1       5.283   2.348  -1.642  0.00  0.00    -0.303 N 
ATOM      7  C   UNL     1       6.316   1.986  -2.625  0.00  0.00    +0.089 C 
ATOM      8  C   UNL     1       7.645   2.608  -2.185  0.00  0.00    -0.060 C 
ATOM      9  N   UNL     1       7.946   2.194  -0.809  0.00  0.00    +0.380 N 
ATOM     10  C   UNL     1       6.935   2.733   0.108  0.00  0.00    -0.060 C 
ATOM     11  C   UNL     1       5.572   2.122  -0.217  0.00  0.00    +0.089 C 
ATOM     12  C   UNL     1       9.271   2.700  -0.426  0.00  0.00    -0.096 C 
ATOM     13  H   UNL     1       7.945   1.186  -0.754  0.00  0.00    -0.082 HD
ENDBRANCH   5   6
BRANCH   2  14
ATOM     14  C   UNL     1       0.706   2.823  -3.509  0.00  0.00    +0.004 A 
ATOM     15  C   UNL     1       0.648   1.981  -4.618  0.00  0.00    +0.013 A 
ATOM     16  C   UNL     1      -0.570   1.694  -5.200  0.00  0.00    +0.039 A 
ATOM     17  C   UNL     1      -1.733   2.240  -4.684  0.00  0.00    +0.123 A 
ATOM     18  C   UNL     1      -1.680   3.078  -3.581  0.00  0.00    +0.039 A 
ATOM     19  C   UNL     1      -0.467   3.366  -2.989  0.00  0.00    +0.013 A 
ATOM     20  F   UNL     1      -2.923   1.956  -5.257  0.00  0.00    -0.205 F 
ENDBRANCH   2  14
BRANCH   1  21
ATOM     21  C   UNL     1       3.041   0.748  -2.969  0.00  0.00    +0.152 C 
BRANCH  21  22
ATOM     22  N   UNL     1       2.552  -0.009  -1.814  0.00  0.00    -0.278 N 
ATOM     23  C   UNL     1       3.427  -0.605  -0.980  0.00  0.00    +0.307 C 
ATOM     24  O   UNL     1       4.622  -0.448  -1.138  0.00  0.00    -0.252 OA
ATOM     25  N   UNL     1       2.977  -1.377   0.030  0.00  0.00    -0.269 N 
ATOM     26  H   UNL     1       2.026  -1.542   0.127  0.00  0.00    +0.156 HD
BRANCH  25  27
ATOM     27  C   UNL     1       3.881  -1.939   0.937  0.00  0.00    +0.036 A 
ATOM     28  C   UNL     1       5.138  -1.373   1.109  0.00  0.00    +0.023 A 
ATOM     29  C   UNL     1       6.029  -1.929   2.006  0.00  0.00    +0.003 A 
ATOM     30  C   UNL     1       5.671  -3.050   2.733  0.00  0.00    +0.020 A 
ATOM     31  C   UNL     1       4.420  -3.617   2.564  0.00  0.00    +0.043 A 
ATOM     32  C   UNL     1       3.522  -3.061   1.672  0.00  0.00    +0.043 A 
ATOM     33 CL   UNL     1       3.976  -5.025   3.478  0.00  0.00    -0.083 Cl
ENDBRANCH  25  27
BRANCH  22  34
ATOM     34  C   UNL     1       1.113  -0.117  -1.565  0.00  0.00    +0.075 C 
ATOM     35  C   UNL     1       0.675  -1.574  -1.727  0.00  0.00    +0.028 C 
BRANCH  34  37
ATOM     36  C   UNL     1       1.274   1.798   0.032  0.00  0.00    +0.006 C 
ATOM     37  C   UNL     1       0.804   0.352  -0.141  0.00  0.00    +0.019 C 
ENDBRANCH  34  37
ENDBRANCH  22  34
ENDBRANCH  21  22
ENDBRANCH   1  21
TORSDOF 7
