REMARK  Name = ZINC66697819
REMARK  9 active torsions:
REMARK  status: ('A' for Active; 'I' for Inactive)
REMARK    1  A    between atoms: C_1  and  C_2
REMARK    2  A    between atoms: C_2  and  C_3
REMARK    3  A    between atoms: C_3  and  C_4
REMARK    4  A    between atoms: C_4  and  N_5
REMARK    5  A    between atoms: C_10  and  C_12
REMARK    6  A    between atoms: C_12  and  N_13
REMARK    7  A    between atoms: N_16  and  C_17
REMARK    8  A    between atoms: C_17  and  C_18
REMARK    9  A    between atoms: C_18  and  C_19
REMARK                            x       y       z     vdW  Elec       q    Type
REMARK                         _______ _______ _______ _____ _____    ______ ____
ROOT
ATOM      1  N   UNL     1      -0.925  -3.784   1.520  0.00  0.00    -0.301 N 
ATOM      2  C   UNL     1      -0.112  -4.077   2.555  0.00  0.00    +0.300 C 
ATOM      3  O   UNL     1      -0.441  -4.920   3.366  0.00  0.00    -0.253 OA
ATOM      4  N   UNL     1       1.065  -3.435   2.690  0.00  0.00    -0.299 N 
ATOM      5  H   UNL     1      -0.662  -3.111   0.873  0.00  0.00    +0.150 HD
ATOM      6  H   UNL     1       1.328  -2.762   2.042  0.00  0.00    +0.150 HD
ENDROOT
BRANCH   1   7
ATOM      7  C   UNL     1      -2.204  -4.482   1.374  0.00  0.00    +0.090 C 
BRANCH   7  13
ATOM      8  N   UNL     1      -1.940  -4.282  -1.051  0.00  0.00    +0.383 N 
ATOM      9  C   UNL     1      -2.596  -3.950  -2.322  0.00  0.00    -0.078 C 
ATOM     10  C   UNL     1      -2.953  -2.462  -2.342  0.00  0.00    -0.019 C 
ATOM     11  C   UNL     1      -3.902  -2.155  -1.180  0.00  0.00    -0.003 C 
ATOM     12  C   UNL     1      -3.237  -2.574   0.134  0.00  0.00    -0.014 C 
ATOM     13  C   UNL     1      -2.869  -4.058   0.063  0.00  0.00    -0.051 C 
ATOM     14  H   UNL     1      -1.126  -3.697  -0.932  0.00  0.00    -0.081 HD
BRANCH   8  15
ATOM     15  C   UNL     1      -1.529  -5.692  -1.068  0.00  0.00    -0.078 C 
BRANCH  15  16
ATOM     16  C   UNL     1      -0.458  -5.899  -2.141  0.00  0.00    -0.019 C 
BRANCH  16  18
ATOM     17  C   UNL     1       1.041  -7.574  -3.231  0.00  0.00    +0.004 C 
ATOM     18  C   UNL     1      -0.030  -7.368  -2.158  0.00  0.00    -0.005 C 
ENDBRANCH  16  18
ENDBRANCH  15  16
ENDBRANCH   8  15
ENDBRANCH   7  13
ENDBRANCH   1   7
BRANCH   4  19
ATOM     19  C   UNL     1       1.949  -3.753   3.814  0.00  0.00    +0.107 C 
BRANCH  19  20
ATOM     20  C   UNL     1       3.209  -2.890   3.733  0.00  0.00    +0.036 C 
BRANCH  20  21
ATOM     21  C   UNL     1       4.132  -3.222   4.907  0.00  0.00    +0.108 C 
ATOM     22  C   UNL     1       5.351  -2.329   4.893  0.00  0.00    -0.014 A 
ATOM     23  C   UNL     1       5.513  -0.965   4.988  0.00  0.00    +0.006 A 
ATOM     24  C   UNL     1       6.783  -0.416   4.943  0.00  0.00    +0.000 A 
ATOM     25  C   UNL     1       7.884  -1.241   4.802  0.00  0.00    +0.002 A 
ATOM     26  C   UNL     1       7.724  -2.607   4.706  0.00  0.00    +0.023 A 
ATOM     27  C   UNL     1       6.449  -3.168   4.751  0.00  0.00    +0.037 A 
ATOM     28  N   UNL     1       6.033  -4.497   4.675  0.00  0.00    -0.285 N 
ATOM     29  C   UNL     1       4.695  -4.620   4.760  0.00  0.00    +0.225 C 
ATOM     30  O   UNL     1       4.059  -5.653   4.726  0.00  0.00    -0.275 OA
ATOM     31  H   UNL     1       6.639  -5.248   4.574  0.00  0.00    +0.155 HD
ENDBRANCH  20  21
ENDBRANCH  19  20
ENDBRANCH   4  19
TORSDOF 8
