REMARK  Name = ZINC63161759
REMARK  9 active torsions:
REMARK  status: ('A' for Active; 'I' for Inactive)
REMARK    1  A    between atoms: C_1  and  C_2
REMARK    2  A    between atoms: C_4  and  C_28
REMARK    3  A    between atoms: N_6  and  C_8
REMARK    4  A    between atoms: C_8  and  C_9
REMARK    5  A    between atoms: C_9  and  C_10
REMARK    6  A    between atoms: C_10  and  C_11
REMARK    7  A    between atoms: C_11  and  N_12
REMARK    8  A    between atoms: N_15  and  C_16
REMARK    9  A    between atoms: C_18  and  C_24
REMARK                            x       y       z     vdW  Elec       q    Type
REMARK                         _______ _______ _______ _____ _____    ______ ____
ROOT
ATOM      1  N   UNL     1       6.022  -2.425   4.497  0.00  0.00    -0.299 N 
ATOM      2  C   UNL     1       7.341  -2.167   4.590  0.00  0.00    +0.304 C 
ATOM      3  O   UNL     1       7.869  -1.405   3.803  0.00  0.00    -0.253 OA
ATOM      4  N   UNL     1       8.076  -2.753   5.556  0.00  0.00    -0.265 N 
ATOM      5  H   UNL     1       5.601  -3.033   5.125  0.00  0.00    +0.150 HD
ATOM      6  H   UNL     1       7.643  -3.302   6.229  0.00  0.00    +0.157 HD
ENDROOT
BRANCH   4   7
ATOM      7  C   UNL     1       9.466  -2.569   5.589  0.00  0.00    +0.100 A 
ATOM      8  C   UNL     1      10.066  -2.026   6.691  0.00  0.00    +0.042 A 
ATOM      9  C   UNL     1      11.458  -1.854   6.698  0.00  0.00    +0.073 A 
ATOM     10  C   UNL     1      12.191  -2.222   5.623  0.00  0.00    +0.098 A 
ATOM     11  N   UNL     1      11.596  -2.762   4.526  0.00  0.00    -0.327 N 
ATOM     12  H   UNL     1      12.138  -3.020   3.764  0.00  0.00    +0.168 HD
ATOM     13  C   UNL     1      10.262  -2.947   4.487  0.00  0.00    +0.270 A 
ATOM     14  O   UNL     1       9.743  -3.438   3.497  0.00  0.00    -0.266 OA
BRANCH   9  15
ATOM     15  C   UNL     1      12.137  -1.257   7.904  0.00  0.00    +0.419 C 
ATOM     16  F   UNL     1      13.515  -1.186   7.675  0.00  0.00    -0.166 F 
ATOM     17  F   UNL     1      11.635   0.029   8.132  0.00  0.00    -0.166 F 
ATOM     18  F   UNL     1      11.890  -2.059   9.023  0.00  0.00    -0.166 F 
ENDBRANCH   9  15
ENDBRANCH   4   7
BRANCH   1  19
ATOM     19  C   UNL     1       5.223  -1.788   3.447  0.00  0.00    +0.105 C 
BRANCH  19  20
ATOM     20  C   UNL     1       3.768  -2.248   3.563  0.00  0.00    +0.017 C 
BRANCH  20  21
ATOM     21  C   UNL     1       2.934  -1.582   2.466  0.00  0.00    -0.017 C 
BRANCH  21  22
ATOM     22  C   UNL     1       1.480  -2.042   2.582  0.00  0.00    -0.079 C 
BRANCH  22  28
ATOM     23  C   UNL     1      -0.136   2.239   0.841  0.00  0.00    +0.005 C 
ATOM     24  C   UNL     1      -0.110   0.727   0.609  0.00  0.00    -0.031 C 
ATOM     25  C   UNL     1      -1.544   0.190   0.574  0.00  0.00    +0.003 C 
ATOM     26  C   UNL     1      -1.506  -1.333   0.421  0.00  0.00    -0.031 C 
ATOM     27  C   UNL     1      -0.689  -1.935   1.567  0.00  0.00    -0.076 C 
ATOM     28  N   UNL     1       0.679  -1.403   1.530  0.00  0.00    +0.380 N 
ATOM     29  C   UNL     1       0.655   0.048   1.748  0.00  0.00    -0.076 C 
ATOM     30  C   UNL     1      -0.855  -1.695  -0.916  0.00  0.00    +0.005 C 
ATOM     31  H   UNL     1       1.091  -1.600   0.630  0.00  0.00    -0.082 HD
ENDBRANCH  22  28
ENDBRANCH  21  22
ENDBRANCH  20  21
ENDBRANCH  19  20
ENDBRANCH   1  19
TORSDOF 7
