REMARK  Name = ZINC25217799
REMARK  9 active torsions:
REMARK  status: ('A' for Active; 'I' for Inactive)
REMARK    1  A    between atoms: C_1  and  C_2
REMARK    2  A    between atoms: C_2  and  C_4
REMARK    3  A    between atoms: C_2  and  O_32
REMARK    4  A    between atoms: C_4  and  N_5
REMARK    5  A    between atoms: N_14  and  C_15
REMARK    6  A    between atoms: C_15  and  C_16
REMARK    7  A    between atoms: N_18  and  C_19
REMARK    8  A    between atoms: C_19  and  C_21
REMARK    9  A    between atoms: C_19  and  C_22
REMARK                            x       y       z     vdW  Elec       q    Type
REMARK                         _______ _______ _______ _____ _____    ______ ____
ROOT
ATOM      1  N   UNL     1      -5.190  -3.953  -1.069  0.00  0.00    -0.314 N 
ATOM      2  C   UNL     1      -5.479  -3.265  -2.228  0.00  0.00    +0.175 A 
ATOM      3  N   UNL     1      -6.585  -3.385  -2.920  0.00  0.00    -0.327 N 
ATOM      4  C   UNL     1      -6.536  -2.568  -4.004  0.00  0.00    +0.065 A 
ATOM      5  C   UNL     1      -7.422  -2.311  -5.053  0.00  0.00    +0.028 A 
ATOM      6  C   UNL     1      -7.080  -1.404  -6.031  0.00  0.00    +0.002 A 
ATOM      7  C   UNL     1      -5.861  -0.743  -5.983  0.00  0.00    +0.002 A 
ATOM      8  C   UNL     1      -4.975  -0.986  -4.954  0.00  0.00    +0.028 A 
ATOM      9  C   UNL     1      -5.303  -1.896  -3.960  0.00  0.00    +0.068 A 
ATOM     10  N   UNL     1      -4.655  -2.353  -2.824  0.00  0.00    -0.305 N 
ATOM     11  H   UNL     1      -4.234  -3.785  -0.552  0.00  0.00    +0.149 HD
ATOM     12  H   UNL     1      -7.372  -4.075  -2.582  0.00  0.00    +0.169 HD
ENDROOT
BRANCH   1  13
ATOM     13  C   UNL     1      -6.157  -4.910  -0.525  0.00  0.00    +0.135 C 
BRANCH  13  15
ATOM     14  C   UNL     1      -6.549  -6.618   1.255  0.00  0.00    +0.039 C 
ATOM     15  C   UNL     1      -5.596  -5.531   0.756  0.00  0.00    +0.128 C 
BRANCH  15  16
ATOM     16  O   UNL     1      -5.461  -4.519   1.756  0.00  0.00    -0.391 OA
ATOM     17  H   UNL     1      -4.811  -3.650   1.575  0.00  0.00    +0.210 HD
ENDBRANCH  15  16
ENDBRANCH  13  15
ENDBRANCH   1  13
BRANCH  10  18
ATOM     18  C   UNL     1      -3.331  -1.939  -2.353  0.00  0.00    +0.220 C 
BRANCH  18  19
ATOM     19  C   UNL     1      -3.473  -0.754  -1.433  0.00  0.00    +0.233 C 
ATOM     20  O   UNL     1      -4.572  -0.300  -1.194  0.00  0.00    -0.274 OA
ATOM     21  N   UNL     1      -2.378  -0.200  -0.876  0.00  0.00    -0.307 N 
ATOM     22  H   UNL     1      -1.382  -0.612  -1.093  0.00  0.00    +0.149 HD
BRANCH  21  23
ATOM     23  C   UNL     1      -2.516   0.952   0.019  0.00  0.00    +0.100 C 
ATOM     24  C   UNL     1      -2.811   0.463   1.439  0.00  0.00    +0.033 C 
BRANCH  23  25
ATOM     25  C   UNL     1      -1.235   1.746   0.017  0.00  0.00    -0.027 A 
ATOM     26  C   UNL     1      -0.013   1.076   0.008  0.00  0.00    +0.006 A 
ATOM     27  C   UNL     1       1.163   1.762   0.000  0.00  0.00    +0.009 A 
ATOM     28  C   UNL     1       1.147   3.167   0.008  0.00  0.00    -0.018 A 
ATOM     29  C   UNL     1       2.340   3.910  -0.000  0.00  0.00    +0.008 A 
ATOM     30  C   UNL     1       2.286   5.270   0.007  0.00  0.00    +0.001 A 
ATOM     31  C   UNL     1       1.064   5.940   0.022  0.00  0.00    +0.001 A 
ATOM     32  C   UNL     1      -0.111   5.254   0.030  0.00  0.00    +0.008 A 
ATOM     33  C   UNL     1      -0.096   3.849   0.023  0.00  0.00    -0.018 A 
ATOM     34  C   UNL     1      -1.288   3.106   0.031  0.00  0.00    +0.014 A 
ENDBRANCH  23  25
ENDBRANCH  21  23
ENDBRANCH  18  19
ENDBRANCH  10  18
TORSDOF 7
