REMARK  Name = ZINC42955285
REMARK  13 active torsions:
REMARK  status: ('A' for Active; 'I' for Inactive)
REMARK    1  A    between atoms: C_1  and  C_2
REMARK    2  A    between atoms: C_2  and  C_3
REMARK    3  A    between atoms: C_3  and  C_5
REMARK    4  A    between atoms: C_3  and  N_22
REMARK    5  A    between atoms: C_5  and  C_7
REMARK    6  A    between atoms: C_5  and  N_14
REMARK    7  A    between atoms: N_14  and  C_15
REMARK    8  A    between atoms: N_14  and  C_19
REMARK    9  A    between atoms: C_15  and  C_16
REMARK   10  A    between atoms: C_16  and  C_17
REMARK   11  A    between atoms: C_17  and  O_18
REMARK   12  A    between atoms: C_19  and  C_20
REMARK   13  A    between atoms: C_19  and  C_21
REMARK                            x       y       z     vdW  Elec       q    Type
REMARK                         _______ _______ _______ _____ _____    ______ ____
ROOT
ATOM      1  C   UNL     1       0.979  -2.049  -1.257  0.00  0.00    +0.073 C 
ENDROOT
BRANCH   1   2
ATOM      2  C   UNL     1       1.683  -2.535  -2.497  0.00  0.00    -0.032 A 
ATOM      3  C   UNL     1       3.064  -2.525  -2.556  0.00  0.00    +0.006 A 
ATOM      4  C   UNL     1       3.711  -2.971  -3.693  0.00  0.00    +0.015 A 
ATOM      5  C   UNL     1       2.977  -3.428  -4.772  0.00  0.00    +0.018 A 
ATOM      6  C   UNL     1       1.595  -3.438  -4.713  0.00  0.00    +0.015 A 
ATOM      7  C   UNL     1       0.949  -2.996  -3.573  0.00  0.00    +0.006 A 
ATOM      8 BR   UNL     1       3.861  -4.038  -6.328  0.00  0.00    -0.050 Br
ENDBRANCH   1   2
BRANCH   1   9
ATOM      9  C   UNL     1       1.140  -0.532  -1.140  0.00  0.00    -0.053 C 
BRANCH   9  10
ATOM     10  N   UNL     1       0.467   0.121  -2.271  0.00  0.00    +0.381 N 
ATOM     11  H   UNL     1       0.574   1.121  -2.193  0.00  0.00    -0.090 HD
ATOM     12  H   UNL     1       0.879  -0.196  -3.135  0.00  0.00    -0.090 HD
ATOM     13  H   UNL     1      -0.514  -0.115  -2.259  0.00  0.00    -0.090 HD
ENDBRANCH   9  10
BRANCH   9  15
ATOM     14  C   UNL     1       0.676   1.465   0.288  0.00  0.00    +0.002 C 
ATOM     15  C   UNL     1       0.516  -0.052   0.172  0.00  0.00    -0.018 C 
ENDBRANCH   9  15
ENDBRANCH   1   9
BRANCH   1  16
ATOM     16  N   UNL     1       1.564  -2.696  -0.075  0.00  0.00    -0.295 NA
BRANCH  16  17
ATOM     17  C   UNL     1       0.614  -2.705   1.045  0.00  0.00    +0.051 C 
ATOM     18  C   UNL     1      -0.186  -4.009   1.024  0.00  0.00    +0.024 C 
ATOM     19  C   UNL     1       1.380  -2.598   2.365  0.00  0.00    +0.024 C 
ENDBRANCH  16  17
BRANCH  16  20
ATOM     20  C   UNL     1       2.018  -4.057  -0.391  0.00  0.00    +0.087 C 
BRANCH  20  21
ATOM     21  C   UNL     1       2.819  -4.614   0.787  0.00  0.00    +0.043 C 
BRANCH  21  22
ATOM     22  C   UNL     1       3.415  -5.970   0.404  0.00  0.00    +0.157 C 
BRANCH  22  23
ATOM     23  O   UNL     1       4.163  -6.490   1.505  0.00  0.00    -0.395 OA
ATOM     24  H   UNL     1       4.570  -7.350   1.332  0.00  0.00    +0.209 HD
ENDBRANCH  22  23
ENDBRANCH  21  22
ENDBRANCH  20  21
ENDBRANCH  16  20
ENDBRANCH   1  16
TORSDOF 10
