REMARK  Name = ZINC51036210
REMARK  6 active torsions:
REMARK  status: ('A' for Active; 'I' for Inactive)
REMARK    1  A    between atoms: C_1  and  C_2
REMARK    2  A    between atoms: C_2  and  C_4
REMARK    3  A    between atoms: C_2  and  N_24
REMARK    4  A    between atoms: C_4  and  C_6
REMARK    5  A    between atoms: C_4  and  S_13
REMARK    6  A    between atoms: S_13  and  C_14
REMARK                            x       y       z     vdW  Elec       q    Type
REMARK                         _______ _______ _______ _____ _____    ______ ____
ROOT
ATOM      1  C   UNL     1      -1.270  -0.729  -0.154  0.00  0.00    +0.068 C 
ENDROOT
BRANCH   1   2
ATOM      2  C   UNL     1      -1.922  -0.748   1.205  0.00  0.00    -0.036 A 
ATOM      3  C   UNL     1      -1.233  -1.246   2.295  0.00  0.00    +0.006 A 
ATOM      4  C   UNL     1      -1.830  -1.263   3.541  0.00  0.00    +0.015 A 
ATOM      5  C   UNL     1      -3.117  -0.782   3.698  0.00  0.00    +0.018 A 
ATOM      6  C   UNL     1      -3.806  -0.284   2.607  0.00  0.00    +0.015 A 
ATOM      7  C   UNL     1      -3.207  -0.262   1.362  0.00  0.00    +0.006 A 
ATOM      8 BR   UNL     1      -3.934  -0.806   5.403  0.00  0.00    -0.050 Br
ENDBRANCH   1   2
BRANCH   1  10
ATOM      9  C   UNL     1      -0.828   1.723   0.036  0.00  0.00    -0.013 C 
ATOM     10  C   UNL     1      -0.187   0.351  -0.185  0.00  0.00    -0.060 C 
BRANCH  10  11
ATOM     11  N   UNL     1       0.793   0.092   0.878  0.00  0.00    +0.381 N 
ATOM     12  H   UNL     1       0.356   0.223   1.778  0.00  0.00    -0.090 HD
ATOM     13  H   UNL     1       1.129  -0.857   0.802  0.00  0.00    -0.090 HD
ATOM     14  H   UNL     1       1.568   0.731   0.784  0.00  0.00    -0.090 HD
ENDBRANCH  10  11
ENDBRANCH   1  10
BRANCH   1  15
ATOM     15  S   UNL     1      -0.521  -2.347  -0.488  0.00  0.00    -0.097 S 
BRANCH  15  16
ATOM     16  C   UNL     1       0.060  -2.213  -2.146  0.00  0.00    +0.126 A 
ATOM     17  C   UNL     1       0.702  -3.288  -2.766  0.00  0.00    +0.117 A 
ATOM     18  C   UNL     1       1.147  -3.133  -4.089  0.00  0.00    +0.182 A 
ATOM     19  N   UNL     1       1.723  -4.296  -4.446  0.00  0.00    -0.216 NA
ATOM     20  H   UNL     1       0.876  -4.986  -1.535  0.00  0.00    +0.167 HD
ATOM     21  C   UNL     1       1.665  -5.140  -3.454  0.00  0.00    +0.199 A 
ATOM     22  N   UNL     1       1.046  -4.570  -2.395  0.00  0.00    -0.341 N 
ATOM     23  N   UNL     1       0.938  -1.963  -4.703  0.00  0.00    -0.214 NA
ATOM     24  C   UNL     1       0.328  -0.980  -4.079  0.00  0.00    +0.224 A 
ATOM     25  N   UNL     1      -0.109  -1.089  -2.838  0.00  0.00    -0.227 NA
ENDBRANCH  15  16
ENDBRANCH   1  15
TORSDOF 5
