REMARK  Name = ZINC59187724
REMARK  10 active torsions:
REMARK  status: ('A' for Active; 'I' for Inactive)
REMARK    1  A    between atoms: C_1  and  C_2
REMARK    2  A    between atoms: C_2  and  C_30
REMARK    3  A    between atoms: C_4  and  N_10
REMARK    4  A    between atoms: C_6  and  C_8
REMARK    5  A    between atoms: C_6  and  C_9
REMARK    6  A    between atoms: N_10  and  C_11
REMARK    7  A    between atoms: N_10  and  C_19
REMARK    8  A    between atoms: C_11  and  C_12
REMARK    9  A    between atoms: C_19  and  N_21
REMARK   10  A    between atoms: N_21  and  C_22
REMARK                            x       y       z     vdW  Elec       q    Type
REMARK                         _______ _______ _______ _____ _____    ______ ____
ROOT
ATOM      1  N   UNL     1      -3.624  -0.776   0.994  0.00  0.00    -0.305 N 
ENDROOT
BRANCH   1   5
ATOM      2  C   UNL     1      -0.897   2.191  -0.783  0.00  0.00    -0.010 C 
ATOM      3  C   UNL     1      -0.525   0.714  -0.611  0.00  0.00    -0.072 C 
ATOM      4  C   UNL     1      -1.792  -0.126  -0.488  0.00  0.00    +0.009 C 
ATOM      5  C   UNL     1      -2.425   0.065   0.891  0.00  0.00    +0.073 C 
ATOM      6  C   UNL     1      -1.410  -0.373   1.946  0.00  0.00    +0.009 C 
ATOM      7  C   UNL     1      -0.139   0.464   1.841  0.00  0.00    -0.072 C 
ATOM      8  N   UNL     1       0.399   0.527   0.494  0.00  0.00    +0.386 N 
ATOM      9  C   UNL     1       0.927  -0.200   2.743  0.00  0.00    -0.010 C 
ATOM     10  C   UNL     1      -0.394   1.866   2.405  0.00  0.00    -0.010 C 
ATOM     11  C   UNL     1       0.195   0.275  -1.907  0.00  0.00    -0.010 C 
ATOM     12  H   UNL     1       0.933  -0.331   0.322  0.00  0.00    -0.084 HD
ATOM     13  H   UNL     1       1.095   1.278   0.461  0.00  0.00    -0.084 HD
ENDBRANCH   1   5
BRANCH   1  14
ATOM     14  C   UNL     1      -3.533  -2.106   0.796  0.00  0.00    +0.138 C 
ATOM     15  S   UNL     1      -2.005  -2.829   0.527  0.00  0.00    -0.018 S 
BRANCH  14  16
ATOM     16  N   UNL     1      -4.645  -2.867   0.811  0.00  0.00    -0.296 N 
ATOM     17  H   UNL     1      -4.989  -3.239  -0.017  0.00  0.00    +0.154 HD
BRANCH  16  18
ATOM     18  C   UNL     1      -5.304  -3.121   2.019  0.00  0.00    +0.053 A 
ATOM     19  C   UNL     1      -4.853  -2.534   3.194  0.00  0.00    +0.044 A 
ATOM     20  C   UNL     1      -5.505  -2.787   4.386  0.00  0.00    +0.043 A 
ATOM     21  C   UNL     1      -6.607  -3.625   4.409  0.00  0.00    +0.021 A 
ATOM     22  C   UNL     1      -7.058  -4.211   3.241  0.00  0.00    +0.023 A 
ATOM     23  C   UNL     1      -6.414  -3.957   2.045  0.00  0.00    +0.062 A 
ATOM     24 CL   UNL     1      -6.986  -4.687   0.578  0.00  0.00    -0.082 Cl
ATOM     25 CL   UNL     1      -4.942  -2.054   5.855  0.00  0.00    -0.083 Cl
ENDBRANCH  16  18
ENDBRANCH  14  16
ENDBRANCH   1  14
BRANCH   1  26
ATOM     26  C   UNL     1      -4.920  -0.170   1.311  0.00  0.00    +0.145 C 
BRANCH  26  27
ATOM     27  C   UNL     1      -5.533   0.391   0.054  0.00  0.00    +0.005 A 
ATOM     28  C   UNL     1      -5.391   1.733  -0.245  0.00  0.00    +0.008 A 
ATOM     29  C   UNL     1      -5.954   2.248  -1.397  0.00  0.00    +0.000 A 
ATOM     30  C   UNL     1      -6.659   1.422  -2.252  0.00  0.00    +0.003 A 
ATOM     31  C   UNL     1      -6.802   0.080  -1.956  0.00  0.00    +0.038 A 
ATOM     32  C   UNL     1      -6.234  -0.438  -0.804  0.00  0.00    +0.128 A 
ATOM     33  F   UNL     1      -6.370  -1.751  -0.515  0.00  0.00    -0.205 F 
ENDBRANCH  26  27
ENDBRANCH   1  26
TORSDOF 6
