REMARK  Name = ZINC36604057
REMARK  12 active torsions:
REMARK  status: ('A' for Active; 'I' for Inactive)
REMARK    1  A    between atoms: C_1  and  C_2
REMARK    2  A    between atoms: C_2  and  C_3
REMARK    3  A    between atoms: C_3  and  C_4
REMARK    4  A    between atoms: C_4  and  N_5
REMARK    5  A    between atoms: C_6  and  C_8
REMARK    6  A    between atoms: C_8  and  C_10
REMARK    7  A    between atoms: C_8  and  N_17
REMARK    8  A    between atoms: C_13  and  O_16
REMARK    9  A    between atoms: N_17  and  C_18
REMARK   10  A    between atoms: C_24  and  C_26
REMARK   11  A    between atoms: C_26  and  C_34
REMARK   12  A    between atoms: C_27  and  C_28
REMARK                            x       y       z     vdW  Elec       q    Type
REMARK                         _______ _______ _______ _____ _____    ______ ____
ROOT
ATOM      1  N   UNL     1       3.222  -5.370   4.009  0.00  0.00    -0.251 N 
ATOM      2  C   UNL     1       4.533  -5.592   3.789  0.00  0.00    +0.252 C 
ATOM      3  O   UNL     1       5.258  -4.673   3.457  0.00  0.00    -0.270 OA
ENDROOT
BRANCH   1   4
ATOM      4  C   UNL     1       2.374  -6.439   4.317  0.00  0.00    +0.038 A 
ATOM      5  C   UNL     1       2.587  -7.186   5.468  0.00  0.00    +0.023 A 
ATOM      6  C   UNL     1       1.748  -8.241   5.769  0.00  0.00    +0.002 A 
ATOM      7  C   UNL     1       0.697  -8.553   4.926  0.00  0.00    +0.000 A 
ATOM      8  C   UNL     1       0.483  -7.811   3.779  0.00  0.00    +0.002 A 
ATOM      9  C   UNL     1       1.315  -6.751   3.475  0.00  0.00    +0.023 A 
ENDBRANCH   1   4
BRANCH   2  10
ATOM     10  C   UNL     1       5.088  -6.945   3.949  0.00  0.00    +0.045 C 
ATOM     11  C   UNL     1       6.258  -7.126   4.617  0.00  0.00    +0.021 C 
BRANCH  11  12
ATOM     12  C   UNL     1       6.896  -8.449   4.637  0.00  0.00    -0.024 A 
ATOM     13  C   UNL     1       6.763  -9.311   3.542  0.00  0.00    +0.008 A 
ATOM     14  C   UNL     1       7.365 -10.550   3.568  0.00  0.00    +0.001 A 
ATOM     15  C   UNL     1       8.100 -10.944   4.673  0.00  0.00    +0.000 A 
ATOM     16  C   UNL     1       8.237 -10.098   5.760  0.00  0.00    +0.001 A 
ATOM     17  C   UNL     1       7.646  -8.853   5.748  0.00  0.00    +0.008 A 
ENDBRANCH  11  12
BRANCH  10  18
ATOM     18  C   UNL     1       4.371  -8.111   3.382  0.00  0.00    -0.013 A 
ATOM     19  C   UNL     1       4.176  -8.211   2.005  0.00  0.00    +0.008 A 
ATOM     20  C   UNL     1       3.507  -9.299   1.483  0.00  0.00    +0.001 A 
ATOM     21  C   UNL     1       3.031 -10.290   2.322  0.00  0.00    +0.000 A 
ATOM     22  C   UNL     1       3.221 -10.196   3.690  0.00  0.00    +0.001 A 
ATOM     23  C   UNL     1       3.894  -9.116   4.223  0.00  0.00    +0.008 A 
ENDBRANCH  10  18
ENDBRANCH   2  10
BRANCH   1  24
ATOM     24  C   UNL     1       2.685  -4.010   3.926  0.00  0.00    +0.197 C 
BRANCH  24  25
ATOM     25  C   UNL     1       2.553  -3.609   2.479  0.00  0.00    -0.018 A 
ATOM     26  C   UNL     1       3.314  -4.244   1.515  0.00  0.00    +0.009 A 
ATOM     27  C   UNL     1       3.196  -3.878   0.188  0.00  0.00    +0.046 A 
ATOM     28  C   UNL     1       2.311  -2.873  -0.177  0.00  0.00    +0.117 A 
ATOM     29  C   UNL     1       1.548  -2.238   0.793  0.00  0.00    +0.046 A 
ATOM     30  C   UNL     1       1.667  -2.611   2.117  0.00  0.00    +0.009 A 
BRANCH  28  31
ATOM     31  O   UNL     1       2.193  -2.511  -1.481  0.00  0.00    -0.507 OA
ATOM     32  H   UNL     1       1.521  -3.007  -1.968  0.00  0.00    +0.292 HD
ENDBRANCH  28  31
ENDBRANCH  24  25
BRANCH  24  34
ATOM     33  N   UNL     1       3.327  -1.743   4.679  0.00  0.00    -0.313 N 
ATOM     34  C   UNL     1       3.619  -3.057   4.628  0.00  0.00    +0.238 C 
ATOM     35  O   UNL     1       4.633  -3.474   5.146  0.00  0.00    -0.273 OA
ATOM     36  H   UNL     1       2.516  -1.409   4.265  0.00  0.00    +0.149 HD
BRANCH  33  37
ATOM     37  C   UNL     1       4.234  -0.817   5.362  0.00  0.00    +0.104 C 
BRANCH  37  38
ATOM     38  C   UNL     1       3.674   0.604   5.275  0.00  0.00    +0.018 C 
BRANCH  38  40
ATOM     39  C   UNL     1       4.061   2.991   5.901  0.00  0.00    +0.004 C 
ATOM     40  C   UNL     1       4.621   1.571   5.988  0.00  0.00    -0.002 C 
ENDBRANCH  38  40
ENDBRANCH  37  38
ENDBRANCH  33  37
ENDBRANCH  24  34
ENDBRANCH   1  24
TORSDOF 11
