REMARK  Name = ZINC20176903
REMARK  10 active torsions:
REMARK  status: ('A' for Active; 'I' for Inactive)
REMARK    1  A    between atoms: C_1  and  C_2
REMARK    2  A    between atoms: C_2  and  O_3
REMARK    3  A    between atoms: O_3  and  C_4
REMARK    4  A    between atoms: C_7  and  O_10
REMARK    5  A    between atoms: O_10  and  C_11
REMARK    6  A    between atoms: C_13  and  N_20
REMARK    7  A    between atoms: C_15  and  N_17
REMARK    8  A    between atoms: C_21  and  C_23
REMARK    9  A    between atoms: C_23  and  N_25
REMARK   10  A    between atoms: N_25  and  C_26
REMARK                            x       y       z     vdW  Elec       q    Type
REMARK                         _______ _______ _______ _____ _____    ______ ____
ROOT
ATOM      1  C   UNL     1      -5.115   3.374   0.605  0.00  0.00    +0.132 A 
ATOM      2  C   UNL     1      -3.989   2.572   0.502  0.00  0.00    +0.069 A 
ATOM      3  C   UNL     1      -2.789   2.992   1.060  0.00  0.00    +0.039 A 
ATOM      4  C   UNL     1      -2.717   4.218   1.710  0.00  0.00    +0.056 A 
ATOM      5  C   UNL     1      -3.841   5.016   1.806  0.00  0.00    +0.131 A 
ATOM      6  C   UNL     1      -5.038   4.598   1.256  0.00  0.00    +0.079 A 
ENDROOT
BRANCH   3   7
ATOM      7  N   UNL     1      -1.652   2.184   0.963  0.00  0.00    -0.280 N 
ATOM      8  C   UNL     1      -1.770   0.844   1.033  0.00  0.00    +0.270 C 
ATOM      9  O   UNL     1      -2.869   0.335   1.125  0.00  0.00    -0.268 OA
ATOM     10  H   UNL     1      -0.661   2.643   0.830  0.00  0.00    +0.155 HD
BRANCH   8  11
ATOM     11  C   UNL     1      -0.556  -0.011   0.998  0.00  0.00    +0.139 C 
ATOM     12  S   UNL     1       0.992   0.706   0.868  0.00  0.00    -0.030 S 
BRANCH  11  13
ATOM     13  N   UNL     1      -0.674  -1.352   1.073  0.00  0.00    -0.305 N 
ATOM     14  H   UNL     1      -1.663  -1.810   1.221  0.00  0.00    +0.153 HD
BRANCH  13  15
ATOM     15  C   UNL     1       0.461  -2.160   0.965  0.00  0.00    +0.032 A 
ATOM     16  C   UNL     1       0.425  -3.309   0.184  0.00  0.00    +0.024 A 
ATOM     17  C   UNL     1       1.549  -4.103   0.075  0.00  0.00    +0.017 A 
ATOM     18  C   UNL     1       2.708  -3.761   0.750  0.00  0.00    +0.018 A 
ATOM     19  C   UNL     1       2.745  -2.620   1.532  0.00  0.00    +0.017 A 
ATOM     20  C   UNL     1       1.625  -1.819   1.641  0.00  0.00    +0.024 A 
ATOM     21 BR   UNL     1       4.243  -4.854   0.603  0.00  0.00    -0.050 Br
ENDBRANCH  13  15
ENDBRANCH  11  13
ENDBRANCH   8  11
ENDBRANCH   3   7
BRANCH   5  22
ATOM     22  N   UNL     1      -3.763   6.321   2.499  0.00  0.00    +0.057 N 
ATOM     23  O   UNL     1      -2.708   6.691   2.984  0.00  0.00    -0.126 OA
ATOM     24  O   UNL     1      -4.753   7.026   2.585  0.00  0.00    -0.126 OA
ENDBRANCH   5  22
BRANCH   1  25
ATOM     25  O   UNL     1      -6.293   2.964   0.065  0.00  0.00    -0.456 OA
BRANCH  25  29
ATOM     26  C   UNL     1      -7.465   4.637  -3.522  0.00  0.00    +0.121 A 
ATOM     27  C   UNL     1      -8.321   3.782  -2.843  0.00  0.00    +0.049 A 
ATOM     28  C   UNL     1      -7.928   3.222  -1.643  0.00  0.00    +0.050 A 
ATOM     29  C   UNL     1      -6.679   3.515  -1.117  0.00  0.00    +0.129 A 
ATOM     30  C   UNL     1      -5.825   4.374  -1.793  0.00  0.00    +0.050 A 
ATOM     31  C   UNL     1      -6.215   4.929  -2.996  0.00  0.00    +0.049 A 
BRANCH  26  32
ATOM     32  O   UNL     1      -7.851   5.188  -4.704  0.00  0.00    -0.492 OA
BRANCH  32  34
ATOM     33  C   UNL     1      -7.526   6.578  -6.654  0.00  0.00    +0.048 C 
ATOM     34  C   UNL     1      -6.920   6.059  -5.348  0.00  0.00    +0.225 C 
ENDBRANCH  32  34
ENDBRANCH  26  32
ENDBRANCH  25  29
ENDBRANCH   1  25
TORSDOF 9
