REMARK  Name = ZINC45073842
REMARK  14 active torsions:
REMARK  status: ('A' for Active; 'I' for Inactive)
REMARK    1  A    between atoms: C_1  and  C_2
REMARK    2  A    between atoms: C_2  and  C_3
REMARK    3  A    between atoms: C_2  and  C_4
REMARK    4  A    between atoms: C_2  and  C_5
REMARK    5  A    between atoms: C_5  and  N_6
REMARK    6  A    between atoms: N_6  and  C_7
REMARK    7  A    between atoms: N_6  and  C_8
REMARK    8  A    between atoms: C_8  and  C_9
REMARK    9  A    between atoms: C_9  and  C_11
REMARK   10  A    between atoms: C_9  and  O_22
REMARK   11  A    between atoms: C_11  and  O_12
REMARK   12  A    between atoms: O_12  and  C_13
REMARK   13  A    between atoms: C_16  and  C_19
REMARK   14  A    between atoms: C_19  and  N_21
REMARK                            x       y       z     vdW  Elec       q    Type
REMARK                         _______ _______ _______ _____ _____    ______ ____
ROOT
ATOM      1  C   UNL     1       3.808  -3.746  -3.332  0.00  0.00    +0.258 C 
ENDROOT
BRANCH   1   2
ATOM      2  C   UNL     1       3.432  -2.923  -2.098  0.00  0.00    +0.135 C 
BRANCH   2   3
ATOM      3  O   UNL     1       3.665  -3.697  -0.920  0.00  0.00    -0.390 OA
ATOM      4  H   UNL     1       3.155  -4.518  -0.881  0.00  0.00    +0.210 HD
ENDBRANCH   2   3
BRANCH   2   5
ATOM      5  C   UNL     1       1.953  -2.539  -2.172  0.00  0.00    -0.044 C 
BRANCH   5   6
ATOM      6  N   UNL     1       1.643  -1.577  -1.106  0.00  0.00    +0.380 N 
ATOM      7  C   UNL     1       1.652  -2.265   0.192  0.00  0.00    -0.096 C 
ATOM      8  H   UNL     1       2.336  -0.843  -1.102  0.00  0.00    -0.082 HD
BRANCH   6   9
ATOM      9  C   UNL     1       0.315  -0.995  -1.342  0.00  0.00    -0.073 C 
BRANCH   9  11
ATOM     10  C   UNL     1       1.288   1.189  -0.617  0.00  0.00    +0.009 C 
ATOM     11  C   UNL     1       0.120   0.218  -0.430  0.00  0.00    -0.053 C 
ATOM     12  C   UNL     1       0.068  -0.242   1.028  0.00  0.00    +0.009 C 
ATOM     13  C   UNL     1      -1.190   0.921  -0.790  0.00  0.00    +0.009 C 
ENDBRANCH   9  11
ENDBRANCH   6   9
ENDBRANCH   5   6
ENDBRANCH   2   5
ENDBRANCH   1   2
BRANCH   1  14
ATOM     14  O   UNL     1       5.213  -4.005  -3.321  0.00  0.00    -0.489 OA
BRANCH  14  15
ATOM     15  C   UNL     1       5.713  -4.730  -4.354  0.00  0.00    +0.121 A 
ATOM     16  C   UNL     1       4.866  -5.177  -5.362  0.00  0.00    +0.046 A 
ATOM     17  C   UNL     1       5.370  -5.912  -6.412  0.00  0.00    +0.014 A 
ATOM     18  C   UNL     1       6.735  -6.209  -6.464  0.00  0.00    +0.003 A 
ATOM     19  C   UNL     1       7.583  -5.757  -5.449  0.00  0.00    +0.014 A 
ATOM     20  C   UNL     1       7.072  -5.018  -4.405  0.00  0.00    +0.046 A 
BRANCH  18  21
ATOM     21  C   UNL     1       7.278  -6.996  -7.585  0.00  0.00    +0.077 C 
ATOM     22  S   UNL     1       6.621  -6.815  -9.156  0.00  0.00    -0.035 S 
BRANCH  21  23
ATOM     23  N   UNL     1       8.292  -7.859  -7.375  0.00  0.00    -0.352 N 
ATOM     24  H   UNL     1       8.664  -7.962  -6.485  0.00  0.00    +0.143 HD
ATOM     25  H   UNL     1       8.649  -8.377  -8.113  0.00  0.00    +0.143 HD
ENDBRANCH  21  23
ENDBRANCH  18  21
ENDBRANCH  14  15
ENDBRANCH   1  14
TORSDOF 10
