REMARK  Name = ZINC12608931
REMARK  8 active torsions:
REMARK  status: ('A' for Active; 'I' for Inactive)
REMARK    1  A    between atoms: C_1  and  C_2
REMARK    2  A    between atoms: C_2  and  C_4
REMARK    3  A    between atoms: C_2  and  N_63
REMARK    4  A    between atoms: C_7  and  S_15
REMARK    5  A    between atoms: N_8  and  C_9
REMARK    6  A    between atoms: S_15  and  C_16
REMARK    7  A    between atoms: C_16  and  C_17
REMARK    8  A    between atoms: N_19  and  C_20
REMARK                            x       y       z     vdW  Elec       q    Type
REMARK                         _______ _______ _______ _____ _____    ______ ____
ROOT
ATOM      1  C   UNL     1      -0.708   1.926  -1.222  0.00  0.00    +0.125 A 
ATOM      2  N   UNL     1      -1.878   1.528  -1.636  0.00  0.00    -0.135 NA
ATOM      3  N   UNL     1      -2.209   2.164  -2.703  0.00  0.00    -0.122 NA
ATOM      4  C   UNL     1      -1.260   3.010  -3.033  0.00  0.00    +0.197 A 
ATOM      5  N   UNL     1      -0.273   2.889  -2.093  0.00  0.00    -0.275 N 
ENDROOT
BRANCH   5   6
ATOM      6  C   UNL     1       0.934   3.601  -2.036  0.00  0.00    +0.050 A 
ATOM      7  C   UNL     1       1.178   4.472  -0.983  0.00  0.00    +0.026 A 
ATOM      8  C   UNL     1       2.370   5.167  -0.926  0.00  0.00    +0.002 A 
ATOM      9  C   UNL     1       3.315   5.006  -1.923  0.00  0.00    +0.000 A 
ATOM     10  C   UNL     1       3.071   4.144  -2.976  0.00  0.00    +0.002 A 
ATOM     11  C   UNL     1       1.884   3.441  -3.035  0.00  0.00    +0.026 A 
ENDBRANCH   5   6
BRANCH   1  13
ATOM     12  C   UNL     1      -0.689   1.906   1.258  0.00  0.00    -0.005 C 
ATOM     13  C   UNL     1       0.026   1.424  -0.005  0.00  0.00    -0.002 C 
BRANCH  13  19
ATOM     14  C   UNL     1       0.781  -0.570   1.141  0.00  0.00    -0.078 C 
ATOM     15  C   UNL     1       0.666  -2.095   1.169  0.00  0.00    -0.019 C 
ATOM     16  C   UNL     1       1.252  -2.670  -0.123  0.00  0.00    -0.004 C 
ATOM     17  C   UNL     1       0.510  -2.071  -1.321  0.00  0.00    -0.019 C 
ATOM     18  C   UNL     1       0.629  -0.545  -1.277  0.00  0.00    -0.078 C 
ATOM     19  N   UNL     1       0.026  -0.053  -0.020  0.00  0.00    +0.386 N 
ATOM     20  H   UNL     1      -0.943  -0.387   0.037  0.00  0.00    -0.081 HD
ENDBRANCH  13  19
ENDBRANCH   1  13
BRANCH   4  21
ATOM     21  S   UNL     1      -1.262   4.099  -4.417  0.00  0.00    -0.076 S 
BRANCH  21  22
ATOM     22  C   UNL     1      -2.865   3.680  -5.145  0.00  0.00    +0.173 C 
BRANCH  22  23
ATOM     23  C   UNL     1      -3.090   4.514  -6.380  0.00  0.00    +0.228 C 
ATOM     24  O   UNL     1      -2.248   5.313  -6.734  0.00  0.00    -0.275 OA
ATOM     25  N   UNL     1      -4.226   4.372  -7.092  0.00  0.00    -0.284 N 
ATOM     26  H   UNL     1      -4.933   3.793  -6.767  0.00  0.00    +0.155 HD
BRANCH  25  27
ATOM     27  C   UNL     1      -4.384   5.058  -8.298  0.00  0.00    +0.041 A 
ATOM     28  C   UNL     1      -3.281   5.451  -9.024  0.00  0.00    +0.024 A 
ATOM     29  C   UNL     1      -3.428   6.135 -10.227  0.00  0.00    +0.002 A 
ATOM     30  C   UNL     1      -4.662   6.434 -10.719  0.00  0.00    +0.008 A 
ATOM     31  C   UNL     1      -5.812   6.051 -10.009  0.00  0.00    -0.016 A 
ATOM     32  C   UNL     1      -5.676   5.349  -8.786  0.00  0.00    +0.003 A 
ATOM     33  C   UNL     1      -6.825   4.970  -8.076  0.00  0.00    +0.010 A 
ATOM     34  C   UNL     1      -8.056   5.273  -8.575  0.00  0.00    +0.001 A 
ATOM     35  C   UNL     1      -8.192   5.959  -9.780  0.00  0.00    +0.001 A 
ATOM     36  C   UNL     1      -7.099   6.346 -10.493  0.00  0.00    +0.008 A 
ENDBRANCH  25  27
ENDBRANCH  22  23
ENDBRANCH  21  22
ENDBRANCH   4  21
TORSDOF 7
