REMARK  Name = ZINC63350018
REMARK  14 active torsions:
REMARK  status: ('A' for Active; 'I' for Inactive)
REMARK    1  A    between atoms: C_1  and  C_2
REMARK    2  A    between atoms: C_2  and  C_3
REMARK    3  A    between atoms: C_2  and  C_4
REMARK    4  A    between atoms: C_4  and  C_6
REMARK    5  A    between atoms: C_4  and  N_25
REMARK    6  A    between atoms: N_8  and  C_9
REMARK    7  A    between atoms: C_9  and  C_11
REMARK    8  A    between atoms: C_9  and  C_21
REMARK    9  A    between atoms: C_11  and  C_12
REMARK   10  A    between atoms: C_21  and  O_23
REMARK   11  A    between atoms: O_23  and  C_24
REMARK   12  A    between atoms: C_26  and  O_28
REMARK   13  A    between atoms: O_28  and  C_29
REMARK   14  A    between atoms: C_29  and  C_30
REMARK                            x       y       z     vdW  Elec       q    Type
REMARK                         _______ _______ _______ _____ _____    ______ ____
ROOT
ATOM      1  C   UNL     1      -2.125  -0.137  -1.266  0.00  0.00    +0.234 C 
ATOM      2  O   UNL     1      -3.122   0.552  -1.228  0.00  0.00    -0.274 OA
ATOM      3  N   UNL     1      -1.635  -0.549  -2.452  0.00  0.00    -0.301 N 
ATOM      4  H   UNL     1      -0.837  -1.100  -2.483  0.00  0.00    +0.150 HD
ENDROOT
BRANCH   1   5
ATOM      5  C   UNL     1      -1.433  -0.534   0.013  0.00  0.00    +0.165 C 
BRANCH   5   6
ATOM      6  N   UNL     1      -2.155   0.035   1.154  0.00  0.00    -0.270 N 
ATOM      7  C   UNL     1      -2.067  -0.550   2.366  0.00  0.00    +0.401 C 
ATOM      8  O   UNL     1      -1.390  -1.548   2.511  0.00  0.00    -0.226 OA
ATOM      9  H   UNL     1      -2.696   0.831   1.038  0.00  0.00    +0.153 HD
BRANCH   7  10
ATOM     10  O   UNL     1      -2.730  -0.028   3.415  0.00  0.00    -0.446 OA
BRANCH  10  11
ATOM     11  C   UNL     1      -2.592  -0.699   4.669  0.00  0.00    +0.269 C 
BRANCH  11  12
ATOM     12  C   UNL     1      -3.399   0.024   5.716  0.00  0.00    -0.010 A 
ATOM     13  C   UNL     1      -2.822   1.040   6.454  0.00  0.00    +0.007 A 
ATOM     14  C   UNL     1      -3.562   1.703   7.415  0.00  0.00    +0.000 A 
ATOM     15  C   UNL     1      -4.879   1.349   7.639  0.00  0.00    +0.000 A 
ATOM     16  C   UNL     1      -5.457   0.333   6.901  0.00  0.00    +0.000 A 
ATOM     17  C   UNL     1      -4.718  -0.327   5.937  0.00  0.00    +0.007 A 
ENDBRANCH  11  12
ENDBRANCH  10  11
ENDBRANCH   7  10
ENDBRANCH   5   6
BRANCH   5  19
ATOM     18  C   UNL     1      -0.019   1.526   0.010  0.00  0.00    +0.009 C 
ATOM     19  C   UNL     1       0.002  -0.004   0.002  0.00  0.00    +0.012 C 
ATOM     20  C   UNL     1       0.742  -0.511   1.242  0.00  0.00    +0.009 C 
ENDBRANCH   5  19
ENDBRANCH   1   5
BRANCH   3  21
ATOM     21  C   UNL     1      -2.307  -0.163  -3.696  0.00  0.00    +0.186 C 
BRANCH  21  22
ATOM     22  C   UNL     1      -3.424  -1.133  -3.984  0.00  0.00    +0.328 C 
ATOM     23  O   UNL     1      -3.637  -2.051  -3.229  0.00  0.00    -0.249 OA
BRANCH  22  24
ATOM     24  O   UNL     1      -4.182  -0.976  -5.081  0.00  0.00    -0.467 OA
ATOM     25  C   UNL     1      -5.223  -1.932  -5.292  0.00  0.00    +0.280 C 
ENDBRANCH  22  24
ENDBRANCH  21  22
BRANCH  21  26
ATOM     26  C   UNL     1      -1.301  -0.187  -4.848  0.00  0.00    +0.067 C 
BRANCH  26  27
ATOM     27  C   UNL     1      -0.250   0.869  -4.619  0.00  0.00    -0.039 C 
ATOM     28  C   UNL     1       0.962   0.698  -4.042  0.00  0.00    -0.001 A 
ATOM     29  C   UNL     1       1.637  -0.475  -3.476  0.00  0.00    +0.010 A 
ATOM     30  C   UNL     1       2.878  -0.331  -2.957  0.00  0.00    +0.001 A 
ATOM     31  C   UNL     1       3.532   0.908  -2.945  0.00  0.00    +0.002 A 
ATOM     32  C   UNL     1       2.976   2.032  -3.447  0.00  0.00    +0.026 A 
ATOM     33  C   UNL     1       1.675   1.996  -4.019  0.00  0.00    +0.043 A 
ATOM     34  N   UNL     1       0.933   2.931  -4.560  0.00  0.00    -0.380 N 
ATOM     35  C   UNL     1      -0.334   2.331  -4.994  0.00  0.00    +0.144 C 
ATOM     36  H   UNL     1       1.181   3.864  -4.660  0.00  0.00    +0.160 HD
ENDBRANCH  26  27
ENDBRANCH  21  26
ENDBRANCH   3  21
TORSDOF 11
