REMARK  Name = ZINC08950500
REMARK  9 active torsions:
REMARK  status: ('A' for Active; 'I' for Inactive)
REMARK    1  A    between atoms: C_1  and  C_2
REMARK    2  A    between atoms: C_5  and  C_8
REMARK    3  A    between atoms: N_15  and  C_30
REMARK    4  A    between atoms: C_16  and  S_18
REMARK    5  A    between atoms: S_18  and  C_19
REMARK    6  A    between atoms: C_19  and  C_20
REMARK    7  A    between atoms: N_22  and  C_23
REMARK    8  A    between atoms: C_27  and  C_29
REMARK    9  A    between atoms: C_30  and  C_31
REMARK                            x       y       z     vdW  Elec       q    Type
REMARK                         _______ _______ _______ _____ _____    ______ ____
ROOT
ATOM      1  C   UNL     1       1.459  13.862   0.782  0.00  0.00    +0.004 A 
ATOM      2  C   UNL     1       0.127  14.098   0.758  0.00  0.00    +0.056 A 
ATOM      3  S   UNL     1      -0.580  12.470   0.601  0.00  0.00    -0.076 S 
ATOM      4  C   UNL     1       0.916  11.516   0.573  0.00  0.00    +0.117 A 
ATOM      5  C   UNL     1       1.930  12.484   0.685  0.00  0.00    +0.080 A 
ATOM      6  C   UNL     1       3.269  11.986   0.689  0.00  0.00    +0.264 A 
ATOM      7  O   UNL     1       4.213  12.752   0.782  0.00  0.00    -0.267 OA
ATOM      8  N   UNL     1       3.476  10.659   0.593  0.00  0.00    -0.283 N 
ATOM      9  C   UNL     1       2.433   9.787   0.482  0.00  0.00    +0.173 A 
ATOM     10  N   UNL     1       1.188  10.220   0.476  0.00  0.00    -0.216 NA
ENDROOT
BRANCH   1  15
ATOM     11  C   UNL     1       5.200  18.213   1.260  0.00  0.00    +0.044 C 
ATOM     12  C   UNL     1       4.221  17.074   1.135  0.00  0.00    -0.050 A 
ATOM     13  C   UNL     1       3.218  17.129   0.184  0.00  0.00    +0.004 A 
ATOM     14  C   UNL     1       2.318  16.090   0.065  0.00  0.00    +0.009 A 
ATOM     15  C   UNL     1       2.422  14.982   0.905  0.00  0.00    -0.017 A 
ATOM     16  C   UNL     1       3.433  14.934   1.865  0.00  0.00    +0.009 A 
ATOM     17  C   UNL     1       4.329  15.978   1.972  0.00  0.00    +0.004 A 
ENDBRANCH   1  15
BRANCH   9  18
ATOM     18  S   UNL     1       2.753   8.059   0.352  0.00  0.00    -0.078 S 
BRANCH  18  19
ATOM     19  C   UNL     1       1.059   7.433   0.245  0.00  0.00    +0.173 C 
BRANCH  19  20
ATOM     20  C   UNL     1       1.085   5.931   0.123  0.00  0.00    +0.227 C 
ATOM     21  O   UNL     1       2.146   5.342   0.111  0.00  0.00    -0.275 OA
ATOM     22  N   UNL     1      -0.069   5.242   0.029  0.00  0.00    -0.285 N 
ATOM     23  H   UNL     1      -0.913   5.715  -0.038  0.00  0.00    +0.155 HD
BRANCH  22  24
ATOM     24  C   UNL     1      -0.051   3.842   0.028  0.00  0.00    +0.034 A 
ATOM     25  C   UNL     1       0.907   3.158   0.765  0.00  0.00    +0.023 A 
ATOM     26  C   UNL     1       0.922   1.778   0.762  0.00  0.00    +0.002 A 
ATOM     27  C   UNL     1      -0.014   1.076   0.025  0.00  0.00    +0.003 A 
ATOM     28  C   UNL     1      -0.966   1.754  -0.714  0.00  0.00    -0.049 A 
ATOM     29  C   UNL     1      -0.990   3.135  -0.711  0.00  0.00    +0.026 A 
ATOM     30  C   UNL     1      -1.981   0.985  -1.521  0.00  0.00    +0.044 C 
ENDBRANCH  22  24
ENDBRANCH  19  20
ENDBRANCH  18  19
ENDBRANCH   9  18
BRANCH   8  31
ATOM     31  C   UNL     1       4.847  10.143   0.603  0.00  0.00    +0.154 C 
BRANCH  31  32
ATOM     32  C   UNL     1       5.371  10.082  -0.808  0.00  0.00    -0.013 C 
ATOM     33  C   UNL     1       6.490  10.688  -1.118  0.00  0.00    +0.005 C 
ENDBRANCH  31  32
ENDBRANCH   8  31
TORSDOF 7
