REMARK  Name = ZINC23339080
REMARK  9 active torsions:
REMARK  status: ('A' for Active; 'I' for Inactive)
REMARK    1  A    between atoms: C_1  and  N_2
REMARK    2  A    between atoms: N_2  and  C_3
REMARK    3  A    between atoms: C_7  and  C_9
REMARK    4  A    between atoms: C_9  and  N_10
REMARK    5  A    between atoms: N_10  and  C_11
REMARK    6  A    between atoms: N_10  and  C_18
REMARK    7  A    between atoms: C_11  and  C_12
REMARK    8  A    between atoms: C_18  and  C_19
REMARK    9  A    between atoms: N_22  and  C_25
REMARK                            x       y       z     vdW  Elec       q    Type
REMARK                         _______ _______ _______ _____ _____    ______ ____
ROOT
ATOM      1  N   UNL     1      -4.554  -4.009  -1.613  0.00  0.00    +0.385 N 
ATOM      2  H   UNL     1      -4.715  -3.299  -2.311  0.00  0.00    -0.081 HD
ENDROOT
BRANCH   1   3
ATOM      3  C   UNL     1      -4.640  -3.410  -0.275  0.00  0.00    -0.032 C 
BRANCH   3  10
ATOM      4  C   UNL     1      -0.501   1.589   0.138  0.00  0.00    +0.131 C 
ATOM      5  N   UNL     1      -0.534   0.142   0.367  0.00  0.00    -0.316 N 
ATOM      6  C   UNL     1       0.666  -0.551   0.842  0.00  0.00    +0.131 C 
ATOM      7  C   UNL     1      -1.700  -0.570   0.135  0.00  0.00    +0.162 A 
ATOM      8  N   UNL     1      -2.861  -0.122  -0.294  0.00  0.00    -0.213 NA
ATOM      9  C   UNL     1      -3.885  -0.938  -0.467  0.00  0.00    +0.140 A 
ATOM     10  C   UNL     1      -3.684  -2.248  -0.183  0.00  0.00    +0.013 A 
ATOM     11  S   UNL     1      -1.972  -2.220   0.325  0.00  0.00    -0.058 S 
ATOM     12 CL   UNL     1      -5.421  -0.359  -1.031  0.00  0.00    -0.061 Cl
ENDBRANCH   3  10
ENDBRANCH   1   3
BRANCH   1  13
ATOM     13  C   UNL     1      -3.218  -4.589  -1.805  0.00  0.00    -0.046 C 
BRANCH  13  14
ATOM     14  C   UNL     1      -3.067  -5.055  -3.255  0.00  0.00    +0.102 C 
ATOM     15  C   UNL     1      -1.629  -5.575  -3.506  0.00  0.00    +0.032 C 
ATOM     16  C   UNL     1      -1.868  -6.537  -4.701  0.00  0.00    +0.030 C 
ATOM     17  C   UNL     1      -3.273  -7.100  -4.394  0.00  0.00    +0.160 C 
ATOM     18  O   UNL     1      -3.925  -6.179  -3.509  0.00  0.00    -0.378 OA
ENDBRANCH  13  14
ENDBRANCH   1  13
BRANCH   1  19
ATOM     19  C   UNL     1      -5.568  -5.064  -1.744  0.00  0.00    -0.075 C 
BRANCH  19  20
ATOM     20  C   UNL     1      -6.963  -4.449  -1.609  0.00  0.00    -0.031 C 
ATOM     21  C   UNL     1      -7.189  -3.439  -2.738  0.00  0.00    -0.017 C 
ATOM     22  C   UNL     1      -8.613  -2.887  -2.643  0.00  0.00    -0.078 C 
ATOM     23  N   UNL     1      -9.577  -3.987  -2.767  0.00  0.00    +0.382 N 
ATOM     24  C   UNL     1      -9.414  -4.921  -1.648  0.00  0.00    -0.078 C 
ATOM     25  C   UNL     1      -8.021  -5.552  -1.704  0.00  0.00    -0.017 C 
ATOM     26  H   UNL     1      -9.420  -4.474  -3.637  0.00  0.00    -0.081 HD
BRANCH  23  27
ATOM     27  C   UNL     1     -10.942  -3.443  -2.754  0.00  0.00    -0.069 C 
ATOM     28  C   UNL     1     -11.966  -4.580  -2.955  0.00  0.00    -0.015 C 
ATOM     29  C   UNL     1     -13.072  -3.944  -3.833  0.00  0.00    -0.002 C 
ATOM     30  C   UNL     1     -12.265  -3.046  -4.803  0.00  0.00    -0.002 C 
ATOM     31  C   UNL     1     -11.132  -2.468  -3.929  0.00  0.00    -0.015 C 
ENDBRANCH  23  27
ENDBRANCH  19  20
ENDBRANCH   1  19
TORSDOF 7
