REMARK  Name = ZINC42955191
REMARK  11 active torsions:
REMARK  status: ('A' for Active; 'I' for Inactive)
REMARK    1  A    between atoms: C_1  and  C_2
REMARK    2  A    between atoms: C_2  and  C_3
REMARK    3  A    between atoms: C_3  and  C_5
REMARK    4  A    between atoms: C_3  and  N_21
REMARK    5  A    between atoms: C_5  and  C_7
REMARK    6  A    between atoms: C_5  and  N_14
REMARK    7  A    between atoms: N_14  and  C_15
REMARK    8  A    between atoms: N_14  and  C_17
REMARK    9  A    between atoms: C_15  and  C_16
REMARK   10  A    between atoms: C_17  and  C_18
REMARK   11  A    between atoms: C_18  and  C_19
REMARK                            x       y       z     vdW  Elec       q    Type
REMARK                         _______ _______ _______ _____ _____    ______ ____
ROOT
ATOM      1  C   UNL     1      -1.448  -1.851  -0.660  0.00  0.00    +0.072 C 
ENDROOT
BRANCH   1   2
ATOM      2  C   UNL     1      -1.170  -2.062  -2.126  0.00  0.00    -0.032 A 
ATOM      3  C   UNL     1      -2.220  -2.203  -3.015  0.00  0.00    +0.006 A 
ATOM      4  C   UNL     1      -1.966  -2.396  -4.360  0.00  0.00    +0.015 A 
ATOM      5  C   UNL     1      -0.661  -2.449  -4.816  0.00  0.00    +0.018 A 
ATOM      6  C   UNL     1       0.389  -2.308  -3.927  0.00  0.00    +0.015 A 
ATOM      7  C   UNL     1       0.134  -2.109  -2.583  0.00  0.00    +0.006 A 
ATOM      8 BR   UNL     1      -0.313  -2.714  -6.656  0.00  0.00    -0.050 Br
ENDBRANCH   1   2
BRANCH   1   9
ATOM      9  C   UNL     1      -1.795  -0.381  -0.413  0.00  0.00    -0.053 C 
BRANCH   9  10
ATOM     10  N   UNL     1      -2.012  -0.163   1.023  0.00  0.00    +0.381 N 
ATOM     11  H   UNL     1      -2.235   0.807   1.187  0.00  0.00    -0.090 HD
ATOM     12  H   UNL     1      -2.776  -0.742   1.339  0.00  0.00    -0.090 HD
ATOM     13  H   UNL     1      -1.174  -0.406   1.530  0.00  0.00    -0.090 HD
ENDBRANCH   9  10
BRANCH   9  15
ATOM     14  C   UNL     1      -1.040   1.975  -0.764  0.00  0.00    +0.002 C 
ATOM     15  C   UNL     1      -0.643   0.503  -0.895  0.00  0.00    -0.018 C 
ENDBRANCH   9  15
ENDBRANCH   1   9
BRANCH   1  16
ATOM     16  N   UNL     1      -2.576  -2.696  -0.248  0.00  0.00    -0.296 NA
BRANCH  16  17
ATOM     17  C   UNL     1      -3.852  -1.987  -0.411  0.00  0.00    +0.081 C 
ATOM     18  C   UNL     1      -5.000  -2.999  -0.426  0.00  0.00    +0.020 C 
ENDBRANCH  16  17
BRANCH  16  19
ATOM     19  C   UNL     1      -2.407  -3.164   1.134  0.00  0.00    +0.099 C 
BRANCH  19  20
ATOM     20  C   UNL     1      -1.393  -4.310   1.164  0.00  0.00    +0.134 C 
BRANCH  20  21
ATOM     21  C   UNL     1      -1.294  -4.842   2.533  0.00  0.00    +0.064 C 
ATOM     22  N   UNL     1      -1.218  -5.253   3.589  0.00  0.00    -0.197 NA
ENDBRANCH  20  21
ENDBRANCH  19  20
ENDBRANCH  16  19
ENDBRANCH   1  16
TORSDOF 9
