REMARK  Name = ZINC52782992
REMARK  6 active torsions:
REMARK  status: ('A' for Active; 'I' for Inactive)
REMARK    1  A    between atoms: C_3  and  S_9
REMARK    2  A    between atoms: C_4  and  N_8
REMARK    3  A    between atoms: S_9  and  C_10
REMARK    4  A    between atoms: C_10  and  C_11
REMARK    5  A    between atoms: C_11  and  C_12
REMARK    6  A    between atoms: C_12  and  C_13
REMARK                            x       y       z     vdW  Elec       q    Type
REMARK                         _______ _______ _______ _____ _____    ______ ____
ROOT
ATOM      1  S   UNL     1       3.894   2.322  -0.023  0.00  0.00    -0.123 S 
ENDROOT
BRANCH   1   4
ATOM      2  C   UNL     1      -0.017   1.379   0.010  0.00  0.00    +0.016 A 
ATOM      3  C   UNL     1       1.169   2.090   0.002  0.00  0.00    +0.017 A 
ATOM      4  C   UNL     1       2.382   1.417  -0.013  0.00  0.00    +0.029 A 
ATOM      5  C   UNL     1       2.401   0.022  -0.021  0.00  0.00    +0.039 A 
ATOM      6  C   UNL     1       1.208  -0.684  -0.013  0.00  0.00    +0.039 A 
ATOM      7  C   UNL     1       0.002  -0.004   0.002  0.00  0.00    +0.020 A 
ATOM      8 BR   UNL     1      -1.624  -0.969   0.013  0.00  0.00    -0.050 Br
BRANCH   5   9
ATOM      9  N   UNL     1       3.621  -0.663  -0.036  0.00  0.00    -0.357 N 
ATOM     10  H   UNL     1       4.455  -0.168  -0.042  0.00  0.00    +0.142 HD
ATOM     11  H   UNL     1       3.633  -1.633  -0.042  0.00  0.00    +0.142 HD
ENDBRANCH   5   9
ENDBRANCH   1   4
BRANCH   1  12
ATOM     12  C   UNL     1       3.367   4.058  -0.009  0.00  0.00    +0.074 C 
BRANCH  12  13
ATOM     13  C   UNL     1       4.599   4.964  -0.017  0.00  0.00    +0.009 C 
BRANCH  13  14
ATOM     14  C   UNL     1       4.155   6.428  -0.005  0.00  0.00    -0.015 C 
BRANCH  14  15
ATOM     15  C   UNL     1       5.388   7.335  -0.013  0.00  0.00    -0.072 C 
ATOM     16  C   UNL     1       4.961   8.824  -0.053  0.00  0.00    -0.018 C 
ATOM     17  C   UNL     1       6.201   9.522   0.565  0.00  0.00    -0.021 C 
ATOM     18  C   UNL     1       6.671   8.513   1.635  0.00  0.00    -0.082 C 
ATOM     19  N   UNL     1       6.141   7.190   1.251  0.00  0.00    +0.381 N 
ATOM     20  H   UNL     1       5.528   6.847   1.975  0.00  0.00    -0.086 HD
ATOM     21  H   UNL     1       6.904   6.542   1.119  0.00  0.00    -0.086 HD
ENDBRANCH  14  15
ENDBRANCH  13  14
ENDBRANCH  12  13
ENDBRANCH   1  12
TORSDOF 6
