REMARK  Name = ZINC12531471
REMARK  12 active torsions:
REMARK  status: ('A' for Active; 'I' for Inactive)
REMARK    1  A    between atoms: C_1  and  C_2
REMARK    2  A    between atoms: C_2  and  O_33
REMARK    3  A    between atoms: C_5  and  C_20
REMARK    4  A    between atoms: C_9  and  C_18
REMARK    5  A    between atoms: C_9  and  C_19
REMARK    6  A    between atoms: C_11  and  N_13
REMARK    7  A    between atoms: N_13  and  C_14
REMARK    8  A    between atoms: C_20  and  C_21
REMARK    9  A    between atoms: C_21  and  C_22
REMARK   10  A    between atoms: N_24  and  C_25
REMARK   11  A    between atoms: C_25  and  C_26
REMARK   12  A    between atoms: C_26  and  N_27
REMARK                            x       y       z     vdW  Elec       q    Type
REMARK                         _______ _______ _______ _____ _____    ______ ____
ROOT
ATOM      1  C   UNL     1      -0.114   1.760  -0.376  0.00  0.00    +0.041 C 
ATOM      2  C   UNL     1       0.115   0.248  -0.400  0.00  0.00    +0.064 C 
ATOM      3  C   UNL     1      -1.234  -0.476  -0.470  0.00  0.00    +0.035 C 
ATOM      4  C   UNL     1      -0.970  -1.978  -0.571  0.00  0.00    +0.008 C 
ATOM      5  C   UNL     1      -0.182  -2.478   0.619  0.00  0.00    -0.038 C 
ATOM      6  C   UNL     1       1.115  -1.686   0.860  0.00  0.00    +0.002 C 
ATOM      7  C   UNL     1       0.833  -0.182   0.877  0.00  0.00    +0.039 C 
ATOM      8  C   UNL     1       1.462  -2.090   2.324  0.00  0.00    -0.033 C 
ATOM      9  C   UNL     1       0.090  -2.123   3.033  0.00  0.00    -0.009 C 
ATOM     10  C   UNL     1      -0.964  -2.367   1.934  0.00  0.00    -0.064 C 
ATOM     11  C   UNL     1       2.119  -3.471   2.359  0.00  0.00    +0.011 C 
ATOM     12  C   UNL     1       2.373  -1.043   2.968  0.00  0.00    +0.011 C 
ENDROOT
BRANCH  10  13
ATOM     13  N   UNL     1      -1.691  -3.616   2.198  0.00  0.00    +0.383 N 
ATOM     14  H   UNL     1      -2.242  -3.862   1.389  0.00  0.00    -0.085 HD
ATOM     15  H   UNL     1      -1.032  -4.354   2.393  0.00  0.00    -0.085 HD
BRANCH  13  16
ATOM     16  C   UNL     1      -2.577  -3.432   3.356  0.00  0.00    -0.071 C 
ATOM     17  C   UNL     1      -1.895  -3.717   4.704  0.00  0.00    -0.016 C 
ATOM     18  C   UNL     1      -3.208  -4.393   5.136  0.00  0.00    -0.003 C 
ATOM     19  C   UNL     1      -3.476  -4.646   3.643  0.00  0.00    -0.016 C 
ENDBRANCH  13  16
ENDBRANCH  10  13
BRANCH   2  20
ATOM     20  O   UNL     1       0.909  -0.099  -1.536  0.00  0.00    -0.389 OA
ATOM     21  H   UNL     1       0.509   0.142  -2.383  0.00  0.00    +0.210 HD
ENDBRANCH   2  20
BRANCH   5  22
ATOM     22  C   UNL     1       0.192  -3.943   0.387  0.00  0.00    +0.015 C 
BRANCH  22  23
ATOM     23  C   UNL     1       1.165  -4.041  -0.790  0.00  0.00    +0.096 C 
BRANCH  23  24
ATOM     24  C   UNL     1       1.589  -5.476  -0.974  0.00  0.00    +0.213 C 
ATOM     25  O   UNL     1       1.155  -6.335  -0.237  0.00  0.00    -0.276 OA
ATOM     26  N   UNL     1       2.449  -5.803  -1.958  0.00  0.00    -0.314 N 
ATOM     27  H   UNL     1       2.796  -5.116  -2.548  0.00  0.00    +0.149 HD
BRANCH  26  28
ATOM     28  C   UNL     1       2.861  -7.198  -2.137  0.00  0.00    +0.119 C 
BRANCH  28  29
ATOM     29  C   UNL     1       3.834  -7.296  -3.314  0.00  0.00    +0.103 C 
BRANCH  29  30
ATOM     30  N   UNL     1       4.246  -8.694  -3.493  0.00  0.00    -0.297 NA
ATOM     31  C   UNL     1       5.044  -9.159  -2.349  0.00  0.00    +0.112 C 
ATOM     32  C   UNL     1       5.401 -10.634  -2.549  0.00  0.00    +0.175 C 
ATOM     33  O   UNL     1       6.094 -10.788  -3.790  0.00  0.00    -0.377 OA
ATOM     34  C   UNL     1       5.347 -10.345  -4.926  0.00  0.00    +0.175 C 
ATOM     35  C   UNL     1       4.989  -8.867  -4.750  0.00  0.00    +0.112 C 
ENDBRANCH  29  30
ENDBRANCH  28  29
ENDBRANCH  26  28
ENDBRANCH  23  24
ENDBRANCH  22  23
ENDBRANCH   5  22
TORSDOF 9
