REMARK  Name = ZINC61949840
REMARK  9 active torsions:
REMARK  status: ('A' for Active; 'I' for Inactive)
REMARK    1  A    between atoms: C_1  and  C_2
REMARK    2  A    between atoms: C_2  and  C_3
REMARK    3  A    between atoms: C_3  and  C_5
REMARK    4  A    between atoms: C_3  and  N_23
REMARK    5  A    between atoms: C_5  and  C_7
REMARK    6  A    between atoms: C_5  and  N_13
REMARK    7  A    between atoms: N_13  and  C_14
REMARK    8  A    between atoms: N_13  and  C_15
REMARK    9  A    between atoms: C_18  and  C_21
REMARK                            x       y       z     vdW  Elec       q    Type
REMARK                         _______ _______ _______ _____ _____    ______ ____
ROOT
ATOM      1  C   UNL     1      -1.447  -2.033  -0.189  0.00  0.00    +0.096 C 
ENDROOT
BRANCH   1   2
ATOM      2  C   UNL     1      -2.890  -2.468  -0.164  0.00  0.00    +0.010 A 
ATOM      3  C   UNL     1      -3.593  -3.036   0.846  0.00  0.00    +0.028 A 
ATOM      4  C   UNL     1      -4.923  -3.355   0.641  0.00  0.00    +0.025 A 
ATOM      5  C   UNL     1      -5.484  -3.090  -0.565  0.00  0.00    +0.060 A 
ATOM      6  S   UNL     1      -4.119  -2.361  -1.455  0.00  0.00    -0.099 S 
ATOM      7 BR   UNL     1      -5.943  -4.149   2.020  0.00  0.00    -0.050 Br
ENDBRANCH   1   2
BRANCH   1   8
ATOM      8  N   UNL     1      -0.824  -2.480  -1.438  0.00  0.00    -0.327 N 
ATOM      9  C   UNL     1      -1.263  -1.918  -2.717  0.00  0.00    +0.130 C 
BRANCH   8  10
ATOM     10  C   UNL     1       0.185  -3.438  -1.408  0.00  0.00    +0.030 A 
ATOM     11  C   UNL     1       0.671  -3.897  -0.187  0.00  0.00    +0.024 A 
ATOM     12  C   UNL     1       1.668  -4.845  -0.154  0.00  0.00    +0.020 A 
ATOM     13  C   UNL     1       2.194  -5.346  -1.349  0.00  0.00    +0.052 A 
ATOM     14  C   UNL     1       1.704  -4.883  -2.573  0.00  0.00    +0.020 A 
ATOM     15  C   UNL     1       0.702  -3.939  -2.599  0.00  0.00    +0.024 A 
BRANCH  13  16
ATOM     16  C   UNL     1       3.233  -6.332  -1.318  0.00  0.00    +0.099 C 
ATOM     17  N   UNL     1       4.056  -7.113  -1.294  0.00  0.00    -0.191 NA
ENDBRANCH  13  16
ENDBRANCH   8  10
ENDBRANCH   1   8
BRANCH   1  18
ATOM     18  C   UNL     1      -1.373  -0.508  -0.099  0.00  0.00    -0.050 C 
BRANCH  18  19
ATOM     19  N   UNL     1      -1.997  -0.060   1.153  0.00  0.00    +0.381 N 
ATOM     20  H   UNL     1      -1.948   0.946   1.212  0.00  0.00    -0.090 HD
ATOM     21  H   UNL     1      -2.963  -0.351   1.169  0.00  0.00    -0.090 HD
ATOM     22  H   UNL     1      -1.510  -0.467   1.936  0.00  0.00    -0.090 HD
ENDBRANCH  18  19
BRANCH  18  24
ATOM     23  C   UNL     1       0.164   1.461  -0.160  0.00  0.00    +0.002 C 
ATOM     24  C   UNL     1       0.092  -0.067  -0.124  0.00  0.00    -0.018 C 
ENDBRANCH  18  24
ENDBRANCH   1  18
TORSDOF 7
