REMARK  Name = ZINC54440516
REMARK  11 active torsions:
REMARK  status: ('A' for Active; 'I' for Inactive)
REMARK    1  A    between atoms: C_1  and  C_2
REMARK    2  A    between atoms: N_7  and  C_9
REMARK    3  A    between atoms: C_9  and  C_10
REMARK    4  A    between atoms: C_9  and  C_11
REMARK    5  A    between atoms: C_9  and  C_12
REMARK    6  A    between atoms: C_12  and  N_13
REMARK    7  A    between atoms: N_16  and  C_17
REMARK    8  A    between atoms: C_22  and  O_23
REMARK    9  A    between atoms: O_23  and  C_24
REMARK   10  A    between atoms: C_24  and  C_25
REMARK   11  A    between atoms: C_25  and  C_26
REMARK                            x       y       z     vdW  Elec       q    Type
REMARK                         _______ _______ _______ _____ _____    ______ ____
ROOT
ATOM      1  N   UNL     1       2.169  -4.462   1.135  0.00  0.00    -0.300 N 
ATOM      2  C   UNL     1       2.314  -5.783   0.911  0.00  0.00    +0.304 C 
ATOM      3  O   UNL     1       1.921  -6.585   1.736  0.00  0.00    -0.253 OA
ATOM      4  N   UNL     1       2.894  -6.215  -0.226  0.00  0.00    -0.266 N 
ATOM      5  H   UNL     1       2.483  -3.821   0.477  0.00  0.00    +0.150 HD
ATOM      6  H   UNL     1       3.149  -5.578  -0.912  0.00  0.00    +0.156 HD
ENDROOT
BRANCH   4   7
ATOM      7  C   UNL     1       3.130  -7.583  -0.417  0.00  0.00    +0.077 A 
ATOM      8  C   UNL     1       2.236  -8.519   0.084  0.00  0.00    +0.027 A 
ATOM      9  C   UNL     1       2.470  -9.868  -0.106  0.00  0.00    +0.002 A 
ATOM     10  C   UNL     1       3.594 -10.288  -0.794  0.00  0.00    +0.004 A 
ATOM     11  C   UNL     1       4.488  -9.361  -1.296  0.00  0.00    +0.047 A 
ATOM     12  C   UNL     1       4.258  -8.007  -1.115  0.00  0.00    +0.142 A 
BRANCH  12  13
ATOM     13  O   UNL     1       5.134  -7.094  -1.613  0.00  0.00    -0.490 OA
BRANCH  13  14
ATOM     14  C   UNL     1       6.269  -7.601  -2.318  0.00  0.00    +0.238 C 
BRANCH  14  15
ATOM     15  C   UNL     1       7.133  -6.434  -2.800  0.00  0.00    +0.136 C 
BRANCH  15  16
ATOM     16  C   UNL     1       8.330  -6.969  -3.543  0.00  0.00    +0.214 C 
ATOM     17  O   UNL     1       8.477  -8.166  -3.675  0.00  0.00    -0.276 OA
ATOM     18  N   UNL     1       9.237  -6.118  -4.062  0.00  0.00    -0.329 N 
ATOM     19  H   UNL     1       9.119  -5.161  -3.957  0.00  0.00    +0.145 HD
ATOM     20  H   UNL     1      10.007  -6.462  -4.540  0.00  0.00    +0.145 HD
ENDBRANCH  15  16
ENDBRANCH  14  15
ENDBRANCH  13  14
ENDBRANCH  12  13
ENDBRANCH   4   7
BRANCH   1  21
ATOM     21  C   UNL     1       1.538  -3.993   2.371  0.00  0.00    +0.093 C 
BRANCH  21  22
ATOM     22  C   UNL     1       1.499  -2.463   2.374  0.00  0.00    -0.055 C 
ATOM     23  C   UNL     1       2.925  -1.916   2.290  0.00  0.00    -0.008 C 
ATOM     24  C   UNL     1       0.840  -1.973   3.666  0.00  0.00    -0.008 C 
BRANCH  22  30
ATOM     25  C   UNL     1      -0.075   1.505  -0.022  0.00  0.00    +0.005 C 
ATOM     26  C   UNL     1      -0.043  -0.024  -0.026  0.00  0.00    -0.031 C 
ATOM     27  C   UNL     1      -1.476  -0.566  -0.015  0.00  0.00    -0.001 C 
ATOM     28  C   UNL     1      -1.433  -2.095   0.060  0.00  0.00    -0.018 C 
ATOM     29  C   UNL     1      -0.644  -2.517   1.302  0.00  0.00    -0.078 C 
ATOM     30  N   UNL     1       0.724  -1.991   1.220  0.00  0.00    +0.384 N 
ATOM     31  C   UNL     1       0.695  -0.523   1.219  0.00  0.00    -0.075 C 
ATOM     32  H   UNL     1       1.158  -2.317   0.369  0.00  0.00    -0.081 HD
ENDBRANCH  22  30
ENDBRANCH  21  22
ENDBRANCH   1  21
TORSDOF 8
