REMARK  Name = ZINC02317171
REMARK  10 active torsions:
REMARK  status: ('A' for Active; 'I' for Inactive)
REMARK    1  A    between atoms: C_1  and  C_2
REMARK    2  A    between atoms: C_2  and  O_3
REMARK    3  A    between atoms: O_3  and  C_4
REMARK    4  A    between atoms: C_9  and  C_10
REMARK    5  A    between atoms: N_12  and  C_13
REMARK    6  A    between atoms: C_13  and  C_14
REMARK    7  A    between atoms: C_13  and  C_18
REMARK    8  A    between atoms: C_13  and  N_22
REMARK    9  A    between atoms: N_22  and  C_23
REMARK   10  A    between atoms: C_26  and  C_28
REMARK                            x       y       z     vdW  Elec       q    Type
REMARK                         _______ _______ _______ _____ _____    ______ ____
ROOT
ATOM      1  C   UNL     1       3.480   3.444   0.077  0.00  0.00    +0.294 C 
ENDROOT
BRANCH   1   4
ATOM      2  C   UNL     1       5.721   3.613  -0.863  0.00  0.00    +0.250 C 
ATOM      3  O   UNL     1       5.350   2.932  -1.800  0.00  0.00    -0.270 OA
ATOM      4  N   UNL     1       4.848   3.966   0.101  0.00  0.00    -0.276 N 
ATOM      5  H   UNL     1       5.126   4.566   0.810  0.00  0.00    +0.152 HD
BRANCH   2  11
ATOM      6  C   UNL     1       8.039   3.686  -1.781  0.00  0.00    +0.133 A 
ATOM      7  C   UNL     1       9.359   4.105  -1.695  0.00  0.00    +0.046 A 
ATOM      8  C   UNL     1       9.771   4.878  -0.628  0.00  0.00    +0.004 A 
ATOM      9  C   UNL     1       8.873   5.241   0.363  0.00  0.00    +0.001 A 
ATOM     10  C   UNL     1       7.557   4.838   0.290  0.00  0.00    +0.017 A 
ATOM     11  C   UNL     1       7.128   4.051  -0.781  0.00  0.00    +0.078 A 
BRANCH   6  12
ATOM     12  O   UNL     1       7.633   2.927  -2.829  0.00  0.00    -0.491 OA
BRANCH  12  14
ATOM     13  C   UNL     1       7.977   1.740  -4.906  0.00  0.00    +0.048 C 
ATOM     14  C   UNL     1       8.617   2.594  -3.810  0.00  0.00    +0.226 C 
ENDBRANCH  12  14
ENDBRANCH   6  12
ENDBRANCH   2  11
ENDBRANCH   1   4
BRANCH   1  15
ATOM     15  C   UNL     1       2.675   4.173  -1.001  0.00  0.00    +0.436 C 
ATOM     16  F   UNL     1       1.339   3.761  -0.943  0.00  0.00    -0.166 F 
ATOM     17  F   UNL     1       2.748   5.553  -0.785  0.00  0.00    -0.166 F 
ATOM     18  F   UNL     1       3.201   3.870  -2.261  0.00  0.00    -0.166 F 
ENDBRANCH   1  15
BRANCH   1  19
ATOM     19  C   UNL     1       2.825   3.667   1.441  0.00  0.00    +0.436 C 
ATOM     20  F   UNL     1       3.501   2.920   2.411  0.00  0.00    -0.166 F 
ATOM     21  F   UNL     1       2.887   5.025   1.771  0.00  0.00    -0.166 F 
ATOM     22  F   UNL     1       1.487   3.261   1.388  0.00  0.00    -0.166 F 
ENDBRANCH   1  19
BRANCH   1  23
ATOM     23  N   UNL     1       3.510   2.010  -0.222  0.00  0.00    -0.296 N 
ATOM     24  H   UNL     1       2.915   1.642  -0.894  0.00  0.00    +0.150 HD
BRANCH  23  25
ATOM     25  C   UNL     1       4.389   1.176   0.459  0.00  0.00    +0.098 A 
ATOM     26  C   UNL     1       5.310   1.724   1.347  0.00  0.00    +0.042 A 
ATOM     27  C   UNL     1       6.179   0.883   2.018  0.00  0.00    +0.008 A 
ATOM     28  C   UNL     1       6.098  -0.483   1.778  0.00  0.00    -0.034 A 
ATOM     29  C   UNL     1       5.160  -0.957   0.883  0.00  0.00    +0.087 A 
ATOM     30  C   UNL     1       7.025  -1.437   2.487  0.00  0.00    +0.045 C 
ATOM     31  N   UNL     1       4.290  -0.161   0.206  0.00  0.00    -0.349 N 
ATOM     32  H   UNL     1       3.603  -0.542  -0.454  0.00  0.00    +0.167 HD
ENDBRANCH  23  25
ENDBRANCH   1  23
TORSDOF 8
