REMARK  Name = ZINC37547088
REMARK  9 active torsions:
REMARK  status: ('A' for Active; 'I' for Inactive)
REMARK    1  A    between atoms: C_1  and  C_2
REMARK    2  A    between atoms: C_7  and  N_8
REMARK    3  A    between atoms: C_9  and  O_26
REMARK    4  A    between atoms: C_10  and  C_14
REMARK    5  A    between atoms: C_11  and  C_13
REMARK    6  A    between atoms: C_14  and  C_15
REMARK    7  A    between atoms: C_15  and  C_16
REMARK    8  A    between atoms: N_18  and  C_19
REMARK    9  A    between atoms: O_26  and  C_27
REMARK                            x       y       z     vdW  Elec       q    Type
REMARK                         _______ _______ _______ _____ _____    ______ ____
ROOT
ATOM      1  N   UNL     1       0.192   0.114   2.359  0.00  0.00    -0.199 N 
ATOM      2  C   UNL     1       0.355  -0.339   3.631  0.00  0.00    +0.227 A 
ATOM      3  C   UNL     1       0.168   0.718   4.467  0.00  0.00    +0.038 A 
ATOM      4  C   UNL     1      -0.114   1.841   3.684  0.00  0.00    +0.067 A 
ATOM      5  N   UNL     1      -0.095   1.483   2.425  0.00  0.00    -0.168 NA
ATOM      6  C   UNL     1      -0.389   3.229   4.201  0.00  0.00    +0.068 C 
ENDROOT
BRANCH   1  13
ATOM      7  C   UNL     1      -1.804   0.429   0.355  0.00  0.00    +0.046 C 
ATOM      8  C   UNL     1      -0.653  -0.529   0.188  0.00  0.00    -0.025 A 
ATOM      9  C   UNL     1      -0.541  -1.281  -0.966  0.00  0.00    +0.005 A 
ATOM     10  C   UNL     1       0.514  -2.160  -1.120  0.00  0.00    +0.000 A 
ATOM     11  C   UNL     1       1.462  -2.289  -0.121  0.00  0.00    +0.002 A 
ATOM     12  C   UNL     1       1.355  -1.541   1.035  0.00  0.00    +0.028 A 
ATOM     13  C   UNL     1       0.299  -0.652   1.190  0.00  0.00    +0.072 A 
ENDBRANCH   1  13
BRANCH   3  14
ATOM     14  C   UNL     1       0.251   0.684   5.971  0.00  0.00    +0.051 C 
BRANCH  14  15
ATOM     15  C   UNL     1       1.688   0.977   6.410  0.00  0.00    +0.101 C 
BRANCH  15  16
ATOM     16  C   UNL     1       1.770   0.943   7.914  0.00  0.00    +0.218 C 
ATOM     17  O   UNL     1       0.778   0.707   8.571  0.00  0.00    -0.275 OA
ATOM     18  N   UNL     1       2.947   1.174   8.529  0.00  0.00    -0.285 N 
ATOM     19  H   UNL     1       3.754   1.291   8.004  0.00  0.00    +0.155 HD
BRANCH  18  20
ATOM     20  C   UNL     1       3.004   1.244   9.927  0.00  0.00    +0.034 A 
ATOM     21  C   UNL     1       3.874   2.135  10.543  0.00  0.00    +0.026 A 
ATOM     22  C   UNL     1       3.929   2.203  11.921  0.00  0.00    +0.040 A 
ATOM     23  C   UNL     1       3.118   1.383  12.689  0.00  0.00    +0.124 A 
ATOM     24  C   UNL     1       2.250   0.495  12.076  0.00  0.00    +0.040 A 
ATOM     25  C   UNL     1       2.188   0.428  10.698  0.00  0.00    +0.026 A 
ATOM     26  F   UNL     1       3.174   1.451  14.037  0.00  0.00    -0.205 F 
ENDBRANCH  18  20
ENDBRANCH  15  16
ENDBRANCH  14  15
ENDBRANCH   3  14
BRANCH   2  27
ATOM     27  O   UNL     1       0.648  -1.612   3.999  0.00  0.00    -0.435 OA
BRANCH  27  28
ATOM     28  C   UNL     1      -0.382  -2.486   4.152  0.00  0.00    +0.165 A 
ATOM     29  C   UNL     1      -1.675  -2.097   3.837  0.00  0.00    +0.049 A 
ATOM     30  C   UNL     1      -2.720  -2.987   3.993  0.00  0.00    +0.004 A 
ATOM     31  C   UNL     1      -2.479  -4.265   4.463  0.00  0.00    +0.003 A 
ATOM     32  C   UNL     1      -1.191  -4.656   4.779  0.00  0.00    +0.042 A 
ATOM     33  C   UNL     1      -0.140  -3.772   4.619  0.00  0.00    +0.165 A 
ATOM     34  F   UNL     1       1.119  -4.156   4.922  0.00  0.00    -0.202 F 
ENDBRANCH  27  28
ENDBRANCH   2  27
TORSDOF 7
