REMARK  Name = ZINC35369553
REMARK  4 active torsions:
REMARK  status: ('A' for Active; 'I' for Inactive)
REMARK    1  A    between atoms: C_1  and  C_2
REMARK    2  A    between atoms: C_4  and  C_8
REMARK    3  A    between atoms: C_5  and  C_7
REMARK    4  A    between atoms: C_8  and  C_10
REMARK                            x       y       z     vdW  Elec       q    Type
REMARK                         _______ _______ _______ _____ _____    ______ ____
ROOT
ATOM      1  C   UNL     1      -2.839  -3.459  -0.034  0.00  0.00    +0.044 A 
ATOM      2  C   UNL     1      -3.573  -2.271  -0.098  0.00  0.00    +0.062 A 
ATOM      3  C   UNL     1      -4.954  -2.312  -0.121  0.00  0.00    +0.163 A 
ATOM      4  C   UNL     1      -5.614  -3.539  -0.082  0.00  0.00    +0.163 A 
ATOM      5  C   UNL     1      -4.886  -4.720  -0.016  0.00  0.00    +0.070 A 
ATOM      6  C   UNL     1      -3.508  -4.687   0.002  0.00  0.00    +0.055 A 
ATOM      7 CL   UNL     1      -2.603  -6.167   0.076  0.00  0.00    -0.083 Cl
ATOM      8  O   UNL     1      -6.973  -3.597  -0.112  0.00  0.00    -0.485 OA
ATOM      9  C   UNL     1      -7.676  -2.390   0.200  0.00  0.00    +0.270 C 
ATOM     10  C   UNL     1      -7.026  -1.240  -0.580  0.00  0.00    +0.270 C 
ATOM     11  O   UNL     1      -5.654  -1.146  -0.181  0.00  0.00    -0.485 OA
ENDROOT
BRANCH   1  12
ATOM     12  C   UNL     1      -1.365  -3.418  -0.010  0.00  0.00    +0.198 C 
ATOM     13  O   UNL     1      -0.746  -3.184  -1.031  0.00  0.00    -0.286 OA
BRANCH  12  17
ATOM     14  C   UNL     1      -0.290  -4.271   4.904  0.00  0.00    +0.086 C 
ATOM     15  C   UNL     1      -0.187  -4.035   3.419  0.00  0.00    +0.103 A 
ATOM     16  C   UNL     1      -1.224  -3.847   2.588  0.00  0.00    +0.056 A 
ATOM     17  C   UNL     1      -0.642  -3.659   1.251  0.00  0.00    +0.063 A 
ATOM     18  C   UNL     1       0.710  -3.757   1.422  0.00  0.00    +0.113 A 
ATOM     19  O   UNL     1       0.956  -3.974   2.717  0.00  0.00    -0.464 OA
ATOM     20  C   UNL     1       1.747  -3.635   0.336  0.00  0.00    +0.087 C 
ENDBRANCH  12  17
ENDBRANCH   1  12
TORSDOF 2
