REMARK  Name = ZINC08621330
REMARK  10 active torsions:
REMARK  status: ('A' for Active; 'I' for Inactive)
REMARK    1  A    between atoms: C_1  and  C_2
REMARK    2  A    between atoms: C_2  and  C_3
REMARK    3  A    between atoms: C_3  and  C_5
REMARK    4  A    between atoms: C_3  and  N_6
REMARK    5  A    between atoms: C_15  and  S_16
REMARK    6  A    between atoms: S_16  and  C_17
REMARK    7  A    between atoms: C_17  and  C_19
REMARK    8  A    between atoms: C_17  and  C_22
REMARK    9  A    between atoms: C_19  and  C_20
REMARK   10  A    between atoms: C_19  and  C_21
REMARK                            x       y       z     vdW  Elec       q    Type
REMARK                         _______ _______ _______ _____ _____    ______ ____
ROOT
ATOM      1  N   UNL     1       2.252  -0.215   1.230  0.00  0.00    -0.284 N 
ATOM      2  C   UNL     1       3.010  -0.576   0.179  0.00  0.00    +0.263 A 
ATOM      3  O   UNL     1       2.572  -1.334  -0.669  0.00  0.00    -0.267 OA
ATOM      4  C   UNL     1       4.339  -0.055   0.070  0.00  0.00    +0.076 A 
ATOM      5  C   UNL     1       5.328  -0.314  -0.983  0.00  0.00    -0.023 A 
ATOM      6  C   UNL     1       6.522   0.296  -0.855  0.00  0.00    -0.004 A 
ATOM      7  S   UNL     1       6.402   1.245   0.640  0.00  0.00    -0.073 S 
ATOM      8  C   UNL     1       4.744   0.810   1.099  0.00  0.00    +0.117 A 
ATOM      9  N   UNL     1       3.946   1.126   2.112  0.00  0.00    -0.216 NA
ATOM     10  C   UNL     1       2.724   0.637   2.185  0.00  0.00    +0.174 A 
ATOM     11  C   UNL     1       7.708   0.194  -1.764  0.00  0.00    +0.043 C 
ATOM     12  C   UNL     1       7.256   0.415  -3.213  0.00  0.00    +0.005 C 
ATOM     13  C   UNL     1       6.871  -0.936  -3.808  0.00  0.00    +0.001 C 
ATOM     14  C   UNL     1       6.278  -1.834  -2.724  0.00  0.00    +0.005 C 
ATOM     15  C   UNL     1       5.000  -1.224  -2.164  0.00  0.00    +0.037 C 
ENDROOT
BRANCH   1  16
ATOM     16  C   UNL     1       0.890  -0.744   1.349  0.00  0.00    +0.089 C 
ATOM     17  C   UNL     1       0.941  -2.271   1.431  0.00  0.00    +0.031 C 
BRANCH  16  19
ATOM     18  C   UNL     1      -0.084   1.196   0.111  0.00  0.00    +0.006 C 
ATOM     19  C   UNL     1       0.073  -0.326   0.125  0.00  0.00    +0.021 C 
ENDBRANCH  16  19
ENDBRANCH   1  16
BRANCH  10  20
ATOM     20  S   UNL     1       1.690   1.085   3.540  0.00  0.00    -0.075 S 
BRANCH  20  21
ATOM     21  C   UNL     1       2.765   2.090   4.600  0.00  0.00    +0.143 C 
BRANCH  21  22
ATOM     22  C   UNL     1       3.083   3.389   3.905  0.00  0.00    +0.234 C 
ATOM     23  O   UNL     1       2.328   3.828   3.065  0.00  0.00    -0.274 OA
ATOM     24  N   UNL     1       4.209   4.061   4.216  0.00  0.00    -0.239 N 
ATOM     25  C   UNL     1       4.494   5.222   3.594  0.00  0.00    +0.303 C 
ATOM     26  O   UNL     1       3.736   5.663   2.752  0.00  0.00    -0.253 OA
ATOM     27  N   UNL     1       5.620   5.895   3.906  0.00  0.00    -0.313 N 
ATOM     28  H   UNL     1       4.814   3.709   4.888  0.00  0.00    +0.159 HD
ATOM     29  H   UNL     1       6.225   5.543   4.577  0.00  0.00    +0.146 HD
ATOM     30  H   UNL     1       5.825   6.731   3.458  0.00  0.00    +0.146 HD
ENDBRANCH  21  22
BRANCH  21  31
ATOM     31  C   UNL     1       2.050   2.381   5.921  0.00  0.00    +0.005 C 
ATOM     32  C   UNL     1       0.692   3.025   5.635  0.00  0.00    +0.009 C 
ATOM     33  C   UNL     1       1.843   1.074   6.688  0.00  0.00    +0.009 C 
ENDBRANCH  21  31
ENDBRANCH  20  21
ENDBRANCH  10  20
TORSDOF 6
