REMARK  Name = ZINC37622092
REMARK  9 active torsions:
REMARK  status: ('A' for Active; 'I' for Inactive)
REMARK    1  A    between atoms: C_1  and  C_2
REMARK    2  A    between atoms: C_2  and  C_3
REMARK    3  A    between atoms: C_3  and  C_4
REMARK    4  A    between atoms: C_4  and  C_5
REMARK    5  A    between atoms: C_4  and  C_6
REMARK    6  A    between atoms: C_4  and  N_21
REMARK    7  A    between atoms: N_8  and  C_9
REMARK    8  A    between atoms: C_14  and  O_15
REMARK    9  A    between atoms: O_15  and  C_16
REMARK                            x       y       z     vdW  Elec       q    Type
REMARK                         _______ _______ _______ _____ _____    ______ ____
ROOT
ATOM      1  C   UNL     1       1.556  -2.509  -2.437  0.00  0.00    +0.206 C 
ATOM      2  O   UNL     1       1.681  -1.808  -3.419  0.00  0.00    -0.277 OA
ATOM      3  N   UNL     1       2.133  -3.727  -2.400  0.00  0.00    -0.284 N 
ATOM      4  H   UNL     1       2.087  -4.261  -1.592  0.00  0.00    +0.155 HD
ENDROOT
BRANCH   3   5
ATOM      5  C   UNL     1       2.798  -4.221  -3.530  0.00  0.00    +0.078 A 
ATOM      6  C   UNL     1       3.492  -3.356  -4.363  0.00  0.00    +0.047 A 
ATOM      7  C   UNL     1       4.147  -3.846  -5.478  0.00  0.00    +0.044 A 
ATOM      8  C   UNL     1       4.113  -5.199  -5.765  0.00  0.00    +0.039 A 
ATOM      9  C   UNL     1       3.423  -6.067  -4.938  0.00  0.00    +0.063 A 
ATOM     10  C   UNL     1       2.768  -5.584  -3.816  0.00  0.00    +0.162 A 
ATOM     11 BR   UNL     1       3.379  -7.916  -5.335  0.00  0.00    -0.046 Br
ATOM     12 CL   UNL     1       5.015  -2.761  -6.519  0.00  0.00    -0.083 Cl
BRANCH  10  13
ATOM     13  O   UNL     1       2.094  -6.438  -3.000  0.00  0.00    -0.431 OA
BRANCH  13  14
ATOM     14  C   UNL     1       0.719  -6.676  -3.304  0.00  0.00    +0.541 C 
ATOM     15  F   UNL     1       0.013  -5.469  -3.251  0.00  0.00    -0.166 F 
ATOM     16  F   UNL     1       0.613  -7.222  -4.588  0.00  0.00    -0.166 F 
ENDBRANCH  13  14
ENDBRANCH  10  13
ENDBRANCH   3   5
BRANCH   1  17
ATOM     17  C   UNL     1       0.756  -2.018  -1.258  0.00  0.00    +0.005 C 
ATOM     18  C   UNL     1      -0.678  -2.539  -1.362  0.00  0.00    -0.001 C 
BRANCH  17  19
ATOM     19  N   UNL     1       1.366  -2.508  -0.014  0.00  0.00    +0.387 N 
ATOM     20  H   UNL     1       0.831  -2.179   0.775  0.00  0.00    -0.089 HD
ATOM     21  H   UNL     1       1.374  -3.517  -0.019  0.00  0.00    -0.089 HD
ATOM     22  H   UNL     1       2.312  -2.165   0.054  0.00  0.00    -0.089 HD
ENDBRANCH  17  19
BRANCH  17  23
ATOM     23  C   UNL     1       0.744  -0.488  -1.251  0.00  0.00    -0.004 C 
BRANCH  23  25
ATOM     24  C   UNL     1       0.028   1.541   0.018  0.00  0.00    +0.004 C 
ATOM     25  C   UNL     1       0.040   0.011   0.012  0.00  0.00    -0.004 C 
ENDBRANCH  23  25
ENDBRANCH  17  23
ENDBRANCH   1  17
TORSDOF 7
