REMARK  Name = ZINC04316447
REMARK  7 active torsions:
REMARK  status: ('A' for Active; 'I' for Inactive)
REMARK    1  A    between atoms: C_1  and  C_2
REMARK    2  A    between atoms: C_2  and  C_3
REMARK    3  A    between atoms: C_2  and  C_4
REMARK    4  A    between atoms: C_4  and  N_5
REMARK    5  A    between atoms: N_13  and  C_26
REMARK    6  A    between atoms: C_22  and  C_23
REMARK    7  A    between atoms: C_22  and  N_51
REMARK                            x       y       z     vdW  Elec       q    Type
REMARK                         _______ _______ _______ _____ _____    ______ ____
ROOT
ATOM      1  N   UNL     1      -1.085   2.082  -0.124  0.00  0.00    -0.306 N 
ATOM      2  C   UNL     1      -0.502   3.332   0.036  0.00  0.00    +0.153 A 
ATOM      3  C   UNL     1      -0.969   4.655  -0.054  0.00  0.00    +0.280 A 
ATOM      4  O   UNL     1      -2.136   4.879  -0.323  0.00  0.00    -0.265 OA
ATOM      5  N   UNL     1      -0.111   5.674   0.160  0.00  0.00    -0.273 N 
ATOM      6  H   UNL     1      -0.440   6.616   0.097  0.00  0.00    +0.173 HD
ATOM      7  C   UNL     1       1.179   5.442   0.458  0.00  0.00    +0.331 A 
ATOM      8  O   UNL     1       1.923   6.385   0.646  0.00  0.00    -0.246 OA
ATOM      9  N   UNL     1       1.667   4.191   0.554  0.00  0.00    -0.280 N 
ATOM     10  C   UNL     1       0.835   3.103   0.344  0.00  0.00    +0.170 A 
ATOM     11  N   UNL     1       1.022   1.782   0.368  0.00  0.00    -0.196 NA
ATOM     12  C   UNL     1      -0.108   1.163   0.095  0.00  0.00    +0.201 A 
ATOM     13  N   UNL     1      -0.273  -0.202   0.036  0.00  0.00    -0.304 N 
ATOM     14  C   UNL     1      -1.011  -0.695   1.206  0.00  0.00    +0.089 C 
ATOM     15  C   UNL     1      -1.242  -2.201   1.064  0.00  0.00    -0.059 C 
ATOM     16  C   UNL     1       0.792  -2.390  -0.234  0.00  0.00    -0.059 C 
ATOM     17  C   UNL     1       1.023  -0.884  -0.091  0.00  0.00    +0.089 C 
ATOM     18  C   UNL     1       3.079   3.979   0.881  0.00  0.00    +0.155 C 
ATOM     19  N   UNL     1       0.069  -2.876   0.960  0.00  0.00    +0.387 N 
ATOM     20  H   UNL     1       0.623  -2.661   1.797  0.00  0.00    -0.081 HD
ENDROOT
BRANCH   1  21
ATOM     21  C   UNL     1      -2.484   1.807  -0.462  0.00  0.00    +0.128 C 
BRANCH  21  23
ATOM     22  C   UNL     1      -4.043   1.170  -2.307  0.00  0.00    +0.009 C 
ATOM     23  C   UNL     1      -2.612   1.593  -1.972  0.00  0.00    +0.003 C 
ATOM     24  C   UNL     1      -2.282   2.897  -2.701  0.00  0.00    +0.009 C 
ENDBRANCH  21  23
ENDBRANCH   1  21
BRANCH  19  25
ATOM     25  C   UNL     1      -0.122  -4.340   0.874  0.00  0.00    +0.018 C 
BRANCH  25  26
ATOM     26  C   UNL     1      -0.658  -4.839   2.190  0.00  0.00    +0.194 C 
ATOM     27  O   UNL     1      -0.873  -4.058   3.093  0.00  0.00    -0.278 OA
ATOM     28  N   UNL     1      -0.899  -6.154   2.365  0.00  0.00    -0.331 N 
ATOM     29  H   UNL     1      -0.727  -6.778   1.643  0.00  0.00    +0.145 HD
ATOM     30  H   UNL     1      -1.245  -6.475   3.213  0.00  0.00    +0.145 HD
ENDBRANCH  25  26
ENDBRANCH  19  25
TORSDOF 4
