REMARK  Name = ZINC09542111
REMARK  10 active torsions:
REMARK  status: ('A' for Active; 'I' for Inactive)
REMARK    1  A    between atoms: C_1  and  C_2
REMARK    2  A    between atoms: C_2  and  C_3
REMARK    3  A    between atoms: C_6  and  C_9
REMARK    4  A    between atoms: C_11  and  C_23
REMARK    5  A    between atoms: C_11  and  C_24
REMARK    6  A    between atoms: C_12  and  C_15
REMARK    7  A    between atoms: C_20  and  O_21
REMARK    8  A    between atoms: C_24  and  C_25
REMARK    9  A    between atoms: C_25  and  C_26
REMARK   10  A    between atoms: C_25  and  C_27
REMARK                            x       y       z     vdW  Elec       q    Type
REMARK                         _______ _______ _______ _____ _____    ______ ____
ROOT
ATOM      1  C   UNL     1       1.633   0.474   1.615  0.00  0.00    +0.040 C 
ATOM      2  N   UNL     1       0.793  -0.290   1.026  0.00  0.00    -0.300 NA
ATOM      3  C   UNL     1      -0.025   0.115  -0.111  0.00  0.00    +0.026 C 
ATOM      4  C   UNL     1       1.285   2.139  -0.188  0.00  0.00    -0.028 C 
ATOM      5  C   UNL     1       1.871   1.902   1.208  0.00  0.00    +0.044 C 
ATOM      6  C   UNL     1      -1.444  -0.428   0.071  0.00  0.00    +0.014 C 
ATOM      7  N   UNL     1      -0.081   1.581  -0.217  0.00  0.00    +0.400 N 
ATOM      8  H   UNL     1      -0.620   1.959   0.571  0.00  0.00    -0.081 HD
ATOM      9  H   UNL     1      -0.536   1.841  -1.100  0.00  0.00    -0.081 HD
ENDROOT
BRANCH   4  10
ATOM     10  C   UNL     1       1.232   3.618  -0.473  0.00  0.00    -0.018 A 
ATOM     11  C   UNL     1       0.079   4.332  -0.210  0.00  0.00    +0.020 A 
ATOM     12  C   UNL     1       0.032   5.690  -0.467  0.00  0.00    +0.018 A 
ATOM     13  C   UNL     1       1.135   6.335  -0.997  0.00  0.00    +0.019 A 
ATOM     14  C   UNL     1       2.288   5.624  -1.266  0.00  0.00    +0.047 A 
ATOM     15  C   UNL     1       2.340   4.262  -1.004  0.00  0.00    +0.119 A 
ATOM     16 BR   UNL     1      -1.546   6.666  -0.101  0.00  0.00    -0.050 Br
BRANCH  15  17
ATOM     17  O   UNL     1       3.474   3.561  -1.269  0.00  0.00    -0.507 OA
ATOM     18  H   UNL     1       3.508   3.190  -2.161  0.00  0.00    +0.292 HD
ENDBRANCH  15  17
ENDBRANCH   4  10
BRANCH   1  22
ATOM     19  C   UNL     1       3.851  -1.094   4.878  0.00  0.00    -0.048 A 
ATOM     20  C   UNL     1       2.935  -1.895   4.220  0.00  0.00    +0.004 A 
ATOM     21  C   UNL     1       2.211  -1.392   3.159  0.00  0.00    +0.010 A 
ATOM     22  C   UNL     1       2.404  -0.071   2.750  0.00  0.00    -0.004 A 
ATOM     23  C   UNL     1       3.334   0.730   3.415  0.00  0.00    +0.010 A 
ATOM     24  C   UNL     1       4.048   0.216   4.477  0.00  0.00    +0.004 A 
BRANCH  19  26
ATOM     25  C   UNL     1       5.938  -2.272   5.517  0.00  0.00    +0.009 C 
ATOM     26  C   UNL     1       4.639  -1.651   6.036  0.00  0.00    +0.032 C 
ENDBRANCH  19  26
ENDBRANCH   1  22
BRANCH   3  27
ATOM     27  C   UNL     1       0.575  -0.462  -1.395  0.00  0.00    +0.013 C 
BRANCH  27  28
ATOM     28  C   UNL     1       0.496  -1.990  -1.352  0.00  0.00    -0.017 C 
ATOM     29  C   UNL     1       0.950  -2.561  -2.697  0.00  0.00    +0.007 C 
ATOM     30  C   UNL     1       1.407  -2.516  -0.241  0.00  0.00    +0.007 C 
ENDBRANCH  27  28
ENDBRANCH   3  27
TORSDOF 6
