REMARK  Name = ZINC63375708
REMARK  6 active torsions:
REMARK  status: ('A' for Active; 'I' for Inactive)
REMARK    1  A    between atoms: C_1  and  O_2
REMARK    2  A    between atoms: O_2  and  C_3
REMARK    3  A    between atoms: C_10  and  C_18
REMARK    4  A    between atoms: C_20  and  O_35
REMARK    5  A    between atoms: N_22  and  C_28
REMARK    6  A    between atoms: C_28  and  C_29
REMARK                            x       y       z     vdW  Elec       q    Type
REMARK                         _______ _______ _______ _____ _____    ______ ____
ROOT
ATOM      1  C   UNL     1       0.176  -4.019   5.093  0.00  0.00    +0.141 C 
ATOM      2  C   UNL     1       0.712  -2.880   5.963  0.00  0.00    +0.218 C 
ATOM      3  N   UNL     1       1.333  -3.435   7.167  0.00  0.00    -0.282 N 
ATOM      4  C   UNL     1       0.827  -4.526   7.765  0.00  0.00    +0.141 C 
ATOM      5  S   UNL     1       1.497  -5.051   9.250  0.00  0.00    -0.018 S 
ATOM      6  N   UNL     1      -0.192  -5.215   7.225  0.00  0.00    -0.267 N 
ATOM      7  C   UNL     1      -0.590  -4.988   5.958  0.00  0.00    +0.227 C 
ATOM      8  O   UNL     1      -1.562  -5.560   5.514  0.00  0.00    -0.275 OA
ATOM      9  H   UNL     1      -0.649  -5.886   7.755  0.00  0.00    +0.157 HD
ENDROOT
BRANCH   1  16
ATOM     10  C   UNL     1      -1.123  -1.483   0.406  0.00  0.00    +0.121 A 
ATOM     11  C   UNL     1      -0.353  -0.472   1.007  0.00  0.00    +0.047 A 
ATOM     12  C   UNL     1       0.613  -0.739   1.912  0.00  0.00    +0.029 A 
ATOM     13  C   UNL     1       0.890  -2.124   2.299  0.00  0.00    +0.043 A 
ATOM     14  N   UNL     1       1.741  -2.642   3.154  0.00  0.00    -0.376 N 
ATOM     15  C   UNL     1       1.651  -4.096   3.072  0.00  0.00    +0.124 C 
ATOM     16  C   UNL     1       1.346  -4.745   4.425  0.00  0.00    +0.096 C 
ATOM     17  N   UNL     1       0.989  -6.154   4.192  0.00  0.00    -0.310 NA
ATOM     18  C   UNL     1      -0.274  -6.318   3.466  0.00  0.00    +0.085 C 
ATOM     19  C   UNL     1      -0.139  -5.756   2.039  0.00  0.00    +0.048 C 
ATOM     20  C   UNL     1       0.464  -4.375   2.163  0.00  0.00    -0.036 C 
ATOM     21  C   UNL     1       0.071  -3.194   1.671  0.00  0.00    +0.003 A 
ATOM     22  C   UNL     1      -0.954  -2.794   0.701  0.00  0.00    +0.055 A 
ATOM     23  H   UNL     1       1.738  -6.646   3.730  0.00  0.00    +0.122 HD
ATOM     24  H   UNL     1       2.330  -2.143   3.740  0.00  0.00    +0.160 HD
BRANCH  10  26
ATOM     25  C   UNL     1      -2.219   0.262  -0.781  0.00  0.00    +0.277 C 
ATOM     26  O   UNL     1      -2.074  -1.132  -0.500  0.00  0.00    -0.495 OA
ENDBRANCH  10  26
ENDBRANCH   1  16
BRANCH   2  27
ATOM     27  O   UNL     1       1.684  -2.135   5.227  0.00  0.00    -0.373 OA
ATOM     28  H   UNL     1       1.995  -1.339   5.680  0.00  0.00    +0.212 HD
ENDBRANCH   2  27
BRANCH   3  29
ATOM     29  C   UNL     1       2.524  -2.791   7.728  0.00  0.00    +0.144 C 
BRANCH  29  30
ATOM     30  C   UNL     1       2.105  -1.744   8.727  0.00  0.00    -0.030 A 
ATOM     31  C   UNL     1       1.875  -0.445   8.313  0.00  0.00    +0.005 A 
ATOM     32  C   UNL     1       1.490   0.515   9.230  0.00  0.00    +0.000 A 
ATOM     33  C   UNL     1       1.336   0.177  10.561  0.00  0.00    +0.000 A 
ATOM     34  C   UNL     1       1.565  -1.121  10.976  0.00  0.00    +0.000 A 
ATOM     35  C   UNL     1       1.945  -2.083  10.058  0.00  0.00    +0.005 A 
ENDBRANCH  29  30
ENDBRANCH   3  29
TORSDOF 5
