REMARK  Name = ZINC22506959
REMARK  10 active torsions:
REMARK  status: ('A' for Active; 'I' for Inactive)
REMARK    1  A    between atoms: C_1  and  C_2
REMARK    2  A    between atoms: C_5  and  C_36
REMARK    3  A    between atoms: N_9  and  N_10
REMARK    4  A    between atoms: N_10  and  C_11
REMARK    5  A    between atoms: C_15  and  C_18
REMARK    6  A    between atoms: C_18  and  C_19
REMARK    7  A    between atoms: N_21  and  C_22
REMARK    8  A    between atoms: C_25  and  N_28
REMARK    9  A    between atoms: N_29  and  C_30
REMARK   10  A    between atoms: C_36  and  C_38
REMARK                            x       y       z     vdW  Elec       q    Type
REMARK                         _______ _______ _______ _____ _____    ______ ____
ROOT
ATOM      1  C   UNL     1       0.350   1.007   8.300  0.00  0.00    +0.120 C 
ENDROOT
BRANCH   1   6
ATOM      2  C   UNL     1      -0.399  -0.238   4.794  0.00  0.00    +0.191 C 
ATOM      3  N   UNL     1      -0.656   1.048   4.993  0.00  0.00    -0.155 NA
ATOM      4  C   UNL     1      -0.860   1.588   6.163  0.00  0.00    +0.252 C 
ATOM      5  O   UNL     1      -1.093   2.773   6.301  0.00  0.00    -0.272 OA
ATOM      6  C   UNL     1      -0.785   0.629   7.346  0.00  0.00    +0.150 C 
ATOM      7  S   UNL     1      -0.421  -0.934   6.441  0.00  0.00    -0.076 S 
BRANCH   2   8
ATOM      8  N   UNL     1      -0.176  -0.881   3.610  0.00  0.00    -0.094 NA
BRANCH   8  16
ATOM      9  C   UNL     1      -0.014   1.464   0.005  0.00  0.00    +0.045 C 
ATOM     10  C   UNL     1      -0.003  -0.043   0.004  0.00  0.00    -0.032 C 
ATOM     11  C   UNL     1      -0.004  -0.698  -1.147  0.00  0.00    -0.021 C 
ATOM     12  C   UNL     1       0.015  -2.195  -1.241  0.00  0.00    +0.035 C 
ATOM     13  C   UNL     1      -0.498  -2.836   0.047  0.00  0.00    +0.024 C 
ATOM     14  C   UNL     1       0.283  -2.263   1.238  0.00  0.00    +0.065 C 
ATOM     15  C   UNL     1       0.015  -0.773   1.281  0.00  0.00    +0.064 C 
ATOM     16  N   UNL     1      -0.198  -0.162   2.408  0.00  0.00    -0.163 NA
BRANCH  13  17
ATOM     17  C   UNL     1      -0.298  -4.328  -0.018  0.00  0.00    -0.076 C 
ATOM     18  C   UNL     1      -1.330  -5.132   0.065  0.00  0.00    +0.007 C 
ATOM     19  C   UNL     1       1.088  -4.896  -0.178  0.00  0.00    +0.039 C 
ENDBRANCH  13  17
ENDBRANCH   8  16
ENDBRANCH   2   8
ENDBRANCH   1   6
BRANCH   1  20
ATOM     20  C   UNL     1       0.307   0.110   9.510  0.00  0.00    +0.219 C 
ATOM     21  O   UNL     1      -0.546  -0.747   9.601  0.00  0.00    -0.275 OA
ATOM     22  N   UNL     1       1.218   0.260  10.492  0.00  0.00    -0.285 N 
ATOM     23  H   UNL     1       1.941   0.899  10.390  0.00  0.00    +0.155 HD
BRANCH  22  24
ATOM     24  C   UNL     1       1.122  -0.505  11.656  0.00  0.00    +0.034 A 
ATOM     25  C   UNL     1       0.665  -1.817  11.588  0.00  0.00    +0.025 A 
ATOM     26  C   UNL     1       0.568  -2.575  12.733  0.00  0.00    +0.031 A 
ATOM     27  C   UNL     1       0.931  -2.023  13.967  0.00  0.00    +0.086 A 
ATOM     28  C   UNL     1       1.391  -0.704  14.031  0.00  0.00    +0.031 A 
ATOM     29  C   UNL     1       1.489   0.045  12.880  0.00  0.00    +0.025 A 
BRANCH  27  30
ATOM     30  N   UNL     1       0.837  -2.771  15.105  0.00  0.00    -0.149 NA
ATOM     31  N   UNL     1       1.172  -2.261  16.241  0.00  0.00    -0.149 NA
BRANCH  31  32
ATOM     32  C   UNL     1       1.077  -3.010  17.381  0.00  0.00    +0.086 A 
ATOM     33  C   UNL     1       0.623  -4.330  17.318  0.00  0.00    +0.029 A 
ATOM     34  C   UNL     1       0.530  -5.079  18.472  0.00  0.00    +0.002 A 
ATOM     35  C   UNL     1       0.885  -4.527  19.691  0.00  0.00    +0.000 A 
ATOM     36  C   UNL     1       1.335  -3.220  19.761  0.00  0.00    +0.002 A 
ATOM     37  C   UNL     1       1.439  -2.460  18.614  0.00  0.00    +0.029 A 
ENDBRANCH  31  32
ENDBRANCH  27  30
ENDBRANCH  22  24
ENDBRANCH   1  20
TORSDOF 8
