REMARK  Name = ZINC08036177
REMARK  6 active torsions:
REMARK  status: ('A' for Active; 'I' for Inactive)
REMARK    1  A    between atoms: C_1  and  C_2
REMARK    2  A    between atoms: C_7  and  C_8
REMARK    3  A    between atoms: C_8  and  C_10
REMARK    4  A    between atoms: C_8  and  N_22
REMARK    5  A    between atoms: C_19  and  O_20
REMARK    6  A    between atoms: N_22  and  C_23
REMARK                            x       y       z     vdW  Elec       q    Type
REMARK                         _______ _______ _______ _____ _____    ______ ____
ROOT
ATOM      1  C   UNL     1       2.632   3.757  -0.185  0.00  0.00    +0.136 C 
ENDROOT
BRANCH   1   2
ATOM      2  C   UNL     1       3.052   4.065   1.229  0.00  0.00    +0.022 A 
ATOM      3  C   UNL     1       2.424   3.415   2.288  0.00  0.00    +0.030 A 
ATOM      4  C   UNL     1       2.785   3.667   3.577  0.00  0.00    +0.051 A 
ATOM      5  C   UNL     1       3.797   4.605   3.846  0.00  0.00    +0.022 A 
ATOM      6  C   UNL     1       4.194   4.896   5.165  0.00  0.00    +0.013 A 
ATOM      7  C   UNL     1       5.184   5.819   5.351  0.00  0.00    +0.020 A 
ATOM      8  C   UNL     1       5.770   6.441   4.251  0.00  0.00    +0.111 A 
ATOM      9  N   UNL     1       5.398   6.166   3.024  0.00  0.00    -0.251 NA
ATOM     10  C   UNL     1       4.436   5.274   2.774  0.00  0.00    +0.114 A 
ATOM     11  C   UNL     1       4.039   4.982   1.452  0.00  0.00    +0.148 A 
ATOM     12 CL   UNL     1       1.993   2.840   4.882  0.00  0.00    -0.083 Cl
BRANCH  11  13
ATOM     13  O   UNL     1       4.636   5.611   0.406  0.00  0.00    -0.504 OA
ATOM     14  H   UNL     1       4.165   6.397   0.098  0.00  0.00    +0.292 HD
ENDBRANCH  11  13
ENDBRANCH   1   2
BRANCH   1  21
ATOM     15  C   UNL     1       0.195   5.310  -0.158  0.00  0.00    +0.044 C 
ATOM     16  C   UNL     1       0.129   3.804  -0.159  0.00  0.00    -0.045 A 
ATOM     17  C   UNL     1      -1.097   3.166  -0.146  0.00  0.00    +0.004 A 
ATOM     18  C   UNL     1      -1.157   1.785  -0.151  0.00  0.00    +0.000 A 
ATOM     19  C   UNL     1       0.008   1.042  -0.159  0.00  0.00    +0.000 A 
ATOM     20  C   UNL     1       1.234   1.680  -0.172  0.00  0.00    +0.006 A 
ATOM     21  C   UNL     1       1.295   3.061  -0.171  0.00  0.00    -0.020 A 
ENDBRANCH   1  21
BRANCH   1  22
ATOM     22  N   UNL     1       3.629   2.886  -0.812  0.00  0.00    -0.320 N 
ATOM     23  H   UNL     1       4.191   2.318  -0.263  0.00  0.00    +0.148 HD
BRANCH  22  24
ATOM     24  C   UNL     1       3.770   2.874  -2.195  0.00  0.00    +0.097 A 
ATOM     25  C   UNL     1       2.957   3.688  -2.978  0.00  0.00    +0.041 A 
ATOM     26  C   UNL     1       3.112   3.671  -4.352  0.00  0.00    +0.005 A 
ATOM     27  C   UNL     1       4.071   2.829  -4.900  0.00  0.00    +0.018 A 
ATOM     28  C   UNL     1       4.839   2.044  -4.064  0.00  0.00    +0.084 A 
ATOM     29  N   UNL     1       4.718   2.039  -2.710  0.00  0.00    -0.350 N 
ATOM     30  H   UNL     1       5.304   1.445  -2.112  0.00  0.00    +0.166 HD
ENDBRANCH  22  24
ENDBRANCH   1  22
TORSDOF 5
