REMARK  Name = ZINC36058925
REMARK  9 active torsions:
REMARK  status: ('A' for Active; 'I' for Inactive)
REMARK    1  A    between atoms: C_1  and  C_2
REMARK    2  A    between atoms: C_4  and  O_9
REMARK    3  A    between atoms: O_9  and  C_10
REMARK    4  A    between atoms: N_13  and  C_27
REMARK    5  A    between atoms: C_16  and  N_17
REMARK    6  A    between atoms: N_17  and  C_18
REMARK    7  A    between atoms: C_22  and  C_24
REMARK    8  A    between atoms: C_30  and  O_33
REMARK    9  A    between atoms: O_33  and  C_34
REMARK                            x       y       z     vdW  Elec       q    Type
REMARK                         _______ _______ _______ _____ _____    ______ ____
ROOT
ATOM      1  C   UNL     1       0.185  -4.187  -2.260  0.00  0.00    +0.174 A 
ATOM      2  C   UNL     1      -0.142  -4.964  -3.385  0.00  0.00    +0.181 A 
ATOM      3  N   UNL     1      -0.443  -6.228  -3.253  0.00  0.00    -0.168 NA
ATOM      4  N   UNL     1      -0.448  -6.843  -1.997  0.00  0.00    -0.195 N 
ATOM      5  C   UNL     1      -0.142  -6.139  -0.889  0.00  0.00    +0.297 A 
ATOM      6  O   UNL     1      -0.148  -6.681   0.206  0.00  0.00    -0.264 OA
ATOM      7  C   UNL     1       0.191  -4.774  -1.006  0.00  0.00    +0.143 A 
ENDROOT
BRANCH   4   8
ATOM      8  C   UNL     1      -0.775  -8.200  -1.890  0.00  0.00    +0.070 A 
ATOM      9  C   UNL     1      -1.734  -8.614  -0.973  0.00  0.00    +0.031 A 
ATOM     10  C   UNL     1      -2.055  -9.952  -0.868  0.00  0.00    +0.048 A 
ATOM     11  C   UNL     1      -1.421 -10.884  -1.677  0.00  0.00    +0.120 A 
ATOM     12  C   UNL     1      -0.463 -10.472  -2.593  0.00  0.00    +0.048 A 
ATOM     13  C   UNL     1      -0.144  -9.133  -2.703  0.00  0.00    +0.031 A 
BRANCH  11  14
ATOM     14  O   UNL     1      -1.738 -12.202  -1.573  0.00  0.00    -0.495 OA
ATOM     15  C   UNL     1      -1.046 -13.106  -2.437  0.00  0.00    +0.277 C 
ENDBRANCH  11  14
ENDBRANCH   4   8
BRANCH   7  16
ATOM     16  N   UNL     1       0.519  -4.024   0.129  0.00  0.00    -0.307 N 
ATOM     17  H   UNL     1      -0.019  -3.255   0.374  0.00  0.00    +0.152 HD
BRANCH  16  18
ATOM     18  C   UNL     1       1.621  -4.382   0.909  0.00  0.00    +0.032 A 
ATOM     19  C   UNL     1       2.482  -5.385   0.477  0.00  0.00    +0.023 A 
ATOM     20  C   UNL     1       3.574  -5.743   1.245  0.00  0.00    +0.003 A 
ATOM     21  C   UNL     1       3.818  -5.108   2.446  0.00  0.00    +0.015 A 
ATOM     22  C   UNL     1       2.960  -4.098   2.889  0.00  0.00    +0.065 A 
ATOM     23  C   UNL     1       1.860  -3.733   2.111  0.00  0.00    +0.038 A 
BRANCH  22  24
ATOM     24  C   UNL     1       3.218  -3.418   4.172  0.00  0.00    +0.387 C 
ATOM     25  O   UNL     1       4.184  -3.737   4.850  0.00  0.00    -0.241 OA
ATOM     26  O   UNL     1       2.466  -2.534   4.558  0.00  0.00    -0.241 OA
ENDBRANCH  22  24
ENDBRANCH  16  18
ENDBRANCH   7  16
BRANCH   1  27
ATOM     27  O   UNL     1       0.496  -2.874  -2.403  0.00  0.00    -0.452 OA
BRANCH  27  31
ATOM     28  C   UNL     1      -0.916   1.653  -3.557  0.00  0.00    +0.045 C 
ATOM     29  C   UNL     1      -1.214   0.187  -3.374  0.00  0.00    -0.029 A 
ATOM     30  C   UNL     1      -0.213  -0.675  -2.969  0.00  0.00    +0.051 A 
ATOM     31  C   UNL     1      -0.487  -2.025  -2.801  0.00  0.00    +0.129 A 
ATOM     32  C   UNL     1      -1.766  -2.506  -3.040  0.00  0.00    +0.048 A 
ATOM     33  C   UNL     1      -2.764  -1.641  -3.445  0.00  0.00    +0.024 A 
ATOM     34  C   UNL     1      -2.490  -0.294  -3.607  0.00  0.00    +0.044 A 
ATOM     35 CL   UNL     1      -3.747   0.792  -4.110  0.00  0.00    -0.083 Cl
ENDBRANCH  27  31
ENDBRANCH   1  27
TORSDOF 7
