REMARK  Name = ZINC64230987
REMARK  8 active torsions:
REMARK  status: ('A' for Active; 'I' for Inactive)
REMARK    1  A    between atoms: C_1  and  C_2
REMARK    2  A    between atoms: C_2  and  C_4
REMARK    3  A    between atoms: C_2  and  O_7
REMARK    4  A    between atoms: O_7  and  C_8
REMARK    5  A    between atoms: C_8  and  C_10
REMARK    6  A    between atoms: C_13  and  N_16
REMARK    7  A    between atoms: N_16  and  S_17
REMARK    8  A    between atoms: S_17  and  C_20
REMARK                            x       y       z     vdW  Elec       q    Type
REMARK                         _______ _______ _______ _____ _____    ______ ____
ROOT
ATOM      1  N   UNL     1      -7.205  -2.650  -1.437  0.00  0.00    -0.216 N 
ATOM      2  H   UNL     1      -7.466  -3.417  -0.904  0.00  0.00    +0.174 HD
ENDROOT
BRANCH   1   6
ATOM      3  C   UNL     1      -3.282  -1.278  -1.319  0.00  0.00    +0.059 A 
ATOM      4  C   UNL     1      -3.954  -1.584  -0.131  0.00  0.00    +0.017 A 
ATOM      5  C   UNL     1      -5.248  -2.035  -0.173  0.00  0.00    +0.025 A 
ATOM      6  C   UNL     1      -5.893  -2.191  -1.397  0.00  0.00    +0.048 A 
ATOM      7  C   UNL     1      -5.227  -1.888  -2.582  0.00  0.00    +0.025 A 
ATOM      8  C   UNL     1      -3.935  -1.430  -2.546  0.00  0.00    +0.017 A 
BRANCH   3   9
ATOM      9  C   UNL     1      -1.892  -0.792  -1.277  0.00  0.00    +0.340 C 
ATOM     10  O   UNL     1      -1.311  -0.523  -2.309  0.00  0.00    -0.245 OA
BRANCH   9  11
ATOM     11  O   UNL     1      -1.264  -0.647  -0.093  0.00  0.00    -0.449 OA
BRANCH  11  13
ATOM     12  C   UNL     1       0.086   1.357  -0.053  0.00  0.00    +0.062 C 
ATOM     13  C   UNL     1       0.083  -0.171  -0.127  0.00  0.00    +0.259 C 
BRANCH  13  14
ATOM     14  C   UNL     1       0.844  -0.732   1.046  0.00  0.00    +0.251 C 
ATOM     15  O   UNL     1       0.266  -1.393   1.884  0.00  0.00    -0.272 OA
ATOM     16  N   UNL     1       2.166  -0.500   1.166  0.00  0.00    -0.326 N 
ATOM     17  H   UNL     1       2.628   0.028   0.496  0.00  0.00    +0.145 HD
ATOM     18  H   UNL     1       2.656  -0.861   1.921  0.00  0.00    +0.145 HD
ENDBRANCH  13  14
ENDBRANCH  11  13
ENDBRANCH   9  11
ENDBRANCH   3   9
ENDBRANCH   1   6
BRANCH   1  19
ATOM     19  S   UNL     1      -8.320  -1.887  -2.393  0.00  0.00    +0.072 S 
ATOM     20  O   UNL     1      -7.756  -1.813  -3.695  0.00  0.00    -0.150 OA
ATOM     21  O   UNL     1      -9.570  -2.513  -2.138  0.00  0.00    -0.150 OA
BRANCH  19  22
ATOM     22  C   UNL     1      -8.460  -0.230  -1.810  0.00  0.00    +0.110 A 
ATOM     23  C   UNL     1      -9.358   0.055  -0.698  0.00  0.00    +0.031 A 
ATOM     24  C   UNL     1      -9.512   1.303  -0.203  0.00  0.00    +0.027 A 
ATOM     25  C   UNL     1      -8.760   2.409  -0.791  0.00  0.00    +0.056 A 
ATOM     26  N   UNL     1      -8.677   3.695  -0.560  0.00  0.00    -0.268 N 
ATOM     27  C   UNL     1      -7.785   4.240  -1.454  0.00  0.00    +0.308 C 
ATOM     28  O   UNL     1      -7.480   5.413  -1.508  0.00  0.00    -0.252 OA
ATOM     29  N   UNL     1      -7.290   3.256  -2.276  0.00  0.00    -0.267 N 
ATOM     30  C   UNL     1      -7.837   2.117  -1.934  0.00  0.00    +0.058 A 
ATOM     31  C   UNL     1      -7.727   0.737  -2.404  0.00  0.00    +0.054 A 
ATOM     32  H   UNL     1      -6.645   3.384  -2.990  0.00  0.00    +0.156 HD
ATOM     33  H   UNL     1      -9.162   4.181   0.125  0.00  0.00    +0.156 HD
ENDBRANCH  19  22
ENDBRANCH   1  19
TORSDOF 7
