REMARK  Name = ZINC09056543
REMARK  7 active torsions:
REMARK  status: ('A' for Active; 'I' for Inactive)
REMARK    1  A    between atoms: C_6  and  O_35
REMARK    2  A    between atoms: C_7  and  C_11
REMARK    3  A    between atoms: N_13  and  N_14
REMARK    4  A    between atoms: C_15  and  C_16
REMARK    5  A    between atoms: N_19  and  N_20
REMARK    6  A    between atoms: N_20  and  C_21
REMARK    7  A    between atoms: C_25  and  C_27
REMARK                            x       y       z     vdW  Elec       q    Type
REMARK                         _______ _______ _______ _____ _____    ______ ____
ROOT
ATOM      1  C   UNL     1       0.464  -8.485  -0.067  0.00  0.00    +0.043 C 
ATOM      2  C   UNL     1      -0.697  -9.236  -0.064  0.00  0.00    +0.042 C 
ATOM      3  C   UNL     1      -0.618 -10.644  -0.060  0.00  0.00    +0.083 C 
ATOM      4  N   UNL     1      -1.735 -11.368  -0.058  0.00  0.00    -0.183 NA
ATOM      5  C   UNL     1       0.638 -11.294  -0.059  0.00  0.00    +0.033 C 
ATOM      6  C   UNL     1       1.791 -10.585  -0.062  0.00  0.00    +0.053 C 
ATOM      7  C   UNL     1       1.758  -9.175  -0.072  0.00  0.00    +0.188 C 
ATOM      8  O   UNL     1       2.799  -8.534  -0.080  0.00  0.00    -0.287 OA
ENDROOT
BRANCH   1  10
ATOM      9  N   UNL     1       1.499  -6.318  -0.079  0.00  0.00    -0.187 NA
ATOM     10  C   UNL     1       0.402  -7.014  -0.071  0.00  0.00    +0.142 C 
BRANCH   9  13
ATOM     11  C   UNL     1       2.577  -4.196  -0.091  0.00  0.00    +0.267 C 
ATOM     12  O   UNL     1       3.655  -4.759  -0.095  0.00  0.00    -0.268 OA
ATOM     13  N   UNL     1       1.440  -4.918  -0.083  0.00  0.00    -0.203 N 
ATOM     14  H   UNL     1       0.580  -4.469  -0.080  0.00  0.00    +0.178 HD
BRANCH  11  21
ATOM     15  C   UNL     1      -0.018   1.357  -0.095  0.00  0.00    +0.001 A 
ATOM     16  C   UNL     1       1.167   2.091  -0.104  0.00  0.00    +0.001 A 
ATOM     17  C   UNL     1       2.377   1.468  -0.109  0.00  0.00    +0.008 A 
ATOM     18  C   UNL     1       2.438   0.063  -0.105  0.00  0.00    -0.014 A 
ATOM     19  C   UNL     1       3.673  -0.607  -0.109  0.00  0.00    +0.054 A 
ATOM     20  C   UNL     1       3.709  -1.970  -0.104  0.00  0.00    +0.130 A 
ATOM     21  C   UNL     1       2.515  -2.722  -0.095  0.00  0.00    +0.080 A 
ATOM     22  C   UNL     1       1.285  -2.085  -0.091  0.00  0.00    +0.025 A 
ATOM     23  C   UNL     1       1.232  -0.683  -0.095  0.00  0.00    -0.017 A 
ATOM     24  C   UNL     1       0.000  -0.004  -0.091  0.00  0.00    +0.008 A 
BRANCH  20  25
ATOM     25  O   UNL     1       4.906  -2.610  -0.108  0.00  0.00    -0.506 OA
ATOM     26  H   UNL     1       5.258  -2.792   0.775  0.00  0.00    +0.292 HD
ENDBRANCH  20  25
ENDBRANCH  11  21
ENDBRANCH   9  13
ENDBRANCH   1  10
BRANCH   4  27
ATOM     27  N   UNL     1      -1.672 -12.652  -0.163  0.00  0.00    -0.237 N 
ATOM     28  H   UNL     1      -0.810 -13.096  -0.170  0.00  0.00    +0.174 HD
BRANCH  27  29
ATOM     29  C   UNL     1      -2.842 -13.400  -0.267  0.00  0.00    +0.049 A 
ATOM     30  C   UNL     1      -4.080 -12.764  -0.264  0.00  0.00    +0.025 A 
ATOM     31  C   UNL     1      -5.237 -13.510  -0.367  0.00  0.00    +0.002 A 
ATOM     32  C   UNL     1      -5.167 -14.887  -0.474  0.00  0.00    +0.012 A 
ATOM     33  C   UNL     1      -3.939 -15.523  -0.478  0.00  0.00    +0.057 A 
ATOM     34  C   UNL     1      -2.777 -14.785  -0.381  0.00  0.00    +0.037 A 
BRANCH  33  35
ATOM     35  C   UNL     1      -3.869 -17.024  -0.594  0.00  0.00    +0.417 C 
ATOM     36  F   UNL     1      -5.165 -17.546  -0.685  0.00  0.00    -0.166 F 
ATOM     37  F   UNL     1      -3.147 -17.370  -1.741  0.00  0.00    -0.166 F 
ATOM     38  F   UNL     1      -3.233 -17.550   0.535  0.00  0.00    -0.166 F 
ENDBRANCH  33  35
ENDBRANCH  27  29
ENDBRANCH   4  27
TORSDOF 7
