REMARK  Name = ZINC14457108
REMARK  6 active torsions:
REMARK  status: ('A' for Active; 'I' for Inactive)
REMARK    1  A    between atoms: C_1  and  O_2
REMARK    2  A    between atoms: O_2  and  C_3
REMARK    3  A    between atoms: C_6  and  C_10
REMARK    4  A    between atoms: C_8  and  O_9
REMARK    5  A    between atoms: C_21  and  S_26
REMARK    6  A    between atoms: S_26  and  N_29
REMARK                            x       y       z     vdW  Elec       q    Type
REMARK                         _______ _______ _______ _____ _____    ______ ____
ROOT
ATOM      1  C   UNL     1       1.668  -5.635  -0.837  0.00  0.00    +0.105 C 
ATOM      2  C   UNL     1       1.263  -5.354   0.613  0.00  0.00    +0.029 C 
ATOM      3  C   UNL     1       0.969  -6.727   1.287  0.00  0.00    +0.033 C 
ATOM      4  C   UNL     1      -0.454  -7.031   0.857  0.00  0.00    -0.030 C 
ATOM      5  C   UNL     1      -1.074  -5.930   0.510  0.00  0.00    -0.023 C 
ATOM      6  C   UNL     1      -0.151  -4.743   0.654  0.00  0.00    +0.049 C 
ATOM      7  C   UNL     1      -0.384  -3.735  -0.426  0.00  0.00    -0.018 A 
ATOM      8  C   UNL     1      -1.512  -2.929  -0.355  0.00  0.00    +0.034 A 
ATOM      9  C   UNL     1      -1.763  -1.986  -1.330  0.00  0.00    +0.106 A 
ATOM     10  C   UNL     1      -0.893  -1.835  -2.395  0.00  0.00    +0.030 A 
ATOM     11  C   UNL     1       0.235  -2.627  -2.474  0.00  0.00    +0.025 A 
ATOM     12  C   UNL     1       0.487  -3.578  -1.493  0.00  0.00    +0.031 A 
ATOM     13  N   UNL     1       1.630  -4.378  -1.592  0.00  0.00    -0.336 N 
ATOM     14  H   UNL     1       2.379  -4.109  -2.147  0.00  0.00    +0.147 HD
ENDROOT
BRANCH   1  18
ATOM     15  C   UNL     1      -1.068  -8.427  -2.572  0.00  0.00    +0.161 A 
ATOM     16  C   UNL     1      -1.409  -7.087  -2.473  0.00  0.00    +0.050 A 
ATOM     17  C   UNL     1      -0.523  -6.187  -1.912  0.00  0.00    +0.009 A 
ATOM     18  C   UNL     1       0.705  -6.620  -1.448  0.00  0.00    -0.023 A 
ATOM     19  C   UNL     1       1.055  -7.954  -1.548  0.00  0.00    +0.054 A 
ATOM     20  C   UNL     1       0.169  -8.862  -2.106  0.00  0.00    +0.159 A 
BRANCH  15  22
ATOM     21  C   UNL     1      -3.190  -8.795  -3.581  0.00  0.00    +0.277 C 
ATOM     22  O   UNL     1      -1.939  -9.313  -3.124  0.00  0.00    -0.491 OA
ENDBRANCH  15  22
BRANCH  20  23
ATOM     23  O   UNL     1       0.509 -10.175  -2.200  0.00  0.00    -0.503 OA
ATOM     24  H   UNL     1       0.960 -10.406  -3.024  0.00  0.00    +0.292 HD
ENDBRANCH  20  23
ENDBRANCH   1  18
BRANCH   9  25
ATOM     25  S   UNL     1      -3.201  -0.974  -1.222  0.00  0.00    +0.061 S 
ATOM     26  O   UNL     1      -4.139  -1.686  -0.427  0.00  0.00    -0.153 OA
ATOM     27  O   UNL     1      -3.495  -0.544  -2.544  0.00  0.00    -0.153 OA
BRANCH  25  28
ATOM     28  N   UNL     1      -2.784   0.380  -0.365  0.00  0.00    -0.177 NA
ATOM     29  C   UNL     1      -2.281   1.542  -1.038  0.00  0.00    +0.109 C 
ATOM     30  C   UNL     1      -0.749   1.592  -1.257  0.00  0.00    +0.017 C 
ATOM     31  C   UNL     1      -0.013   1.086   0.008  0.00  0.00    +0.001 C 
ATOM     32  C   UNL     1      -0.703   1.564   1.253  0.00  0.00    +0.001 C 
ATOM     33  C   UNL     1      -1.581   0.401   1.701  0.00  0.00    +0.017 C 
ATOM     34  C   UNL     1      -2.928   0.411   1.129  0.00  0.00    +0.109 C 
ENDBRANCH  25  28
ENDBRANCH   9  25
TORSDOF 5
