REMARK  Name = ZINC06441895
REMARK  8 active torsions:
REMARK  status: ('A' for Active; 'I' for Inactive)
REMARK    1  A    between atoms: C_1  and  C_2
REMARK    2  A    between atoms: C_7  and  C_15
REMARK    3  A    between atoms: C_13  and  C_14
REMARK    4  A    between atoms: C_15  and  C_17
REMARK    5  A    between atoms: C_15  and  N_70
REMARK    6  A    between atoms: N_21  and  C_22
REMARK    7  A    between atoms: C_22  and  C_23
REMARK    8  A    between atoms: N_31  and  C_34
REMARK                            x       y       z     vdW  Elec       q    Type
REMARK                         _______ _______ _______ _____ _____    ______ ____
ROOT
ATOM      1  C   UNL     1       2.507   3.775  -0.004  0.00  0.00    +0.039 C 
ENDROOT
BRANCH   1   8
ATOM      2  C   UNL     1      -4.241  -0.355   1.010  0.00  0.00    +0.044 C 
ATOM      3  C   UNL     1      -2.914   0.359   1.037  0.00  0.00    -0.046 A 
ATOM      4  C   UNL     1      -2.123   0.295   2.175  0.00  0.00    +0.004 A 
ATOM      5  C   UNL     1      -0.916   0.935   2.220  0.00  0.00    +0.010 A 
ATOM      6  C   UNL     1      -0.474   1.660   1.109  0.00  0.00    -0.001 A 
ATOM      7  C   UNL     1       0.813   2.358   1.122  0.00  0.00    +0.017 A 
ATOM      8  C   UNL     1       1.188   3.046   0.015  0.00  0.00    +0.011 A 
ATOM      9  C   UNL     1       0.349   3.081  -1.119  0.00  0.00    +0.251 A 
ATOM     10  O   UNL     1       0.706   3.705  -2.103  0.00  0.00    -0.268 OA
ATOM     11  N   UNL     1      -0.835   2.444  -1.140  0.00  0.00    -0.322 N 
ATOM     12  H   UNL     1      -1.388   2.489  -1.936  0.00  0.00    +0.169 HD
ATOM     13  C   UNL     1      -1.277   1.732  -0.046  0.00  0.00    +0.052 A 
ATOM     14  C   UNL     1      -2.499   1.067  -0.070  0.00  0.00    -0.024 A 
ATOM     15  C   UNL     1      -3.368   1.127  -1.300  0.00  0.00    +0.046 C 
ENDBRANCH   1   8
BRANCH   1  21
ATOM     16  C   UNL     1       3.523   1.780  -0.926  0.00  0.00    -0.058 C 
ATOM     17  C   UNL     1       4.340   1.242  -2.103  0.00  0.00    +0.086 C 
ATOM     18  N   UNL     1       5.643   1.922  -2.143  0.00  0.00    -0.333 N 
ATOM     19  C   UNL     1       5.471   3.374  -2.292  0.00  0.00    +0.086 C 
ATOM     20  C   UNL     1       4.654   3.912  -1.115  0.00  0.00    -0.058 C 
ATOM     21  N   UNL     1       3.339   3.236  -1.100  0.00  0.00    +0.391 N 
ATOM     22  H   UNL     1       2.865   3.409  -1.994  0.00  0.00    -0.080 HD
BRANCH  18  23
ATOM     23  C   UNL     1       6.447   1.405  -3.163  0.00  0.00    +0.030 A 
ATOM     24  C   UNL     1       6.957   2.248  -4.141  0.00  0.00    +0.026 A 
ATOM     25  C   UNL     1       7.755   1.736  -5.146  0.00  0.00    +0.040 A 
ATOM     26  C   UNL     1       8.038   0.381  -5.184  0.00  0.00    +0.124 A 
ATOM     27  C   UNL     1       7.526  -0.463  -4.213  0.00  0.00    +0.040 A 
ATOM     28  C   UNL     1       6.732   0.046  -3.204  0.00  0.00    +0.026 A 
ATOM     29  F   UNL     1       8.815  -0.119  -6.170  0.00  0.00    -0.205 F 
ENDBRANCH  18  23
ENDBRANCH   1  21
BRANCH   1  30
ATOM     30  C   UNL     1       3.200   3.595   1.323  0.00  0.00    +0.143 A 
ATOM     31  N   UNL     1       3.809   2.514   1.746  0.00  0.00    -0.115 NA
ATOM     32  N   UNL     1       4.273   2.755   2.924  0.00  0.00    -0.023 NA
ATOM     33  N   UNL     1       3.976   3.961   3.262  0.00  0.00    -0.044 NA
ATOM     34  N   UNL     1       3.318   4.513   2.299  0.00  0.00    -0.228 N 
BRANCH  34  35
ATOM     35  C   UNL     1       2.796   5.882   2.274  0.00  0.00    +0.178 C 
BRANCH  35  36
ATOM     36  C   UNL     1       1.379   5.898   2.849  0.00  0.00    +0.140 C 
ATOM     37  C   UNL     1       0.828   7.346   2.882  0.00  0.00    +0.035 C 
ATOM     38  C   UNL     1      -0.702   7.080   2.849  0.00  0.00    +0.031 C 
ATOM     39  C   UNL     1      -0.796   5.819   1.963  0.00  0.00    +0.160 C 
ATOM     40  O   UNL     1       0.484   5.175   1.988  0.00  0.00    -0.375 OA
ENDBRANCH  35  36
ENDBRANCH  34  35
ENDBRANCH   1  30
TORSDOF 6
