REMARK  Name = ZINC20326636
REMARK  6 active torsions:
REMARK  status: ('A' for Active; 'I' for Inactive)
REMARK    1  A    between atoms: C_1  and  N_2
REMARK    2  A    between atoms: C_6  and  S_12
REMARK    3  A    between atoms: S_12  and  N_15
REMARK    4  A    between atoms: C_19  and  C_22
REMARK    5  A    between atoms: C_30  and  O_34
REMARK    6  A    between atoms: O_34  and  C_35
REMARK                            x       y       z     vdW  Elec       q    Type
REMARK                         _______ _______ _______ _____ _____    ______ ____
ROOT
ATOM      1  N   UNL     1      -3.750   1.663  -0.106  0.00  0.00    -0.176 NA
ATOM      2  C   UNL     1      -3.917   2.610  -1.217  0.00  0.00    +0.109 C 
ATOM      3  C   UNL     1      -2.750   3.602  -1.199  0.00  0.00    +0.018 C 
ATOM      4  C   UNL     1      -1.429   2.830  -1.225  0.00  0.00    +0.015 C 
ATOM      5  C   UNL     1      -1.330   1.944   0.019  0.00  0.00    +0.091 C 
ATOM      6  C   UNL     1      -2.481   0.933   0.015  0.00  0.00    +0.122 C 
ENDROOT
BRANCH   5   7
ATOM      7  C   UNL     1      -0.014   1.208   0.009  0.00  0.00    +0.223 C 
ATOM      8  O   UNL     1       0.002  -0.004   0.002  0.00  0.00    -0.275 OA
ATOM      9  N   UNL     1       1.143   1.898   0.001  0.00  0.00    -0.264 N 
ATOM     10  C   UNL     1       2.353   1.222  -0.014  0.00  0.00    +0.165 A 
ATOM     11  N   UNL     1       2.572  -0.072  -0.017  0.00  0.00    -0.225 NA
ATOM     12  C   UNL     1       3.817  -0.598  -0.036  0.00  0.00    +0.081 A 
ATOM     13  C   UNL     1       4.188  -1.962  -0.045  0.00  0.00    +0.032 A 
ATOM     14  C   UNL     1       5.507  -2.332  -0.059  0.00  0.00    +0.048 A 
ATOM     15  C   UNL     1       6.526  -1.384  -0.064  0.00  0.00    +0.121 A 
ATOM     16  C   UNL     1       6.197  -0.036  -0.055  0.00  0.00    +0.063 A 
ATOM     17  C   UNL     1       4.877   0.338  -0.042  0.00  0.00    +0.044 A 
ATOM     18  S   UNL     1       4.011   1.889  -0.026  0.00  0.00    -0.052 S 
ATOM     19  H   UNL     1       1.129   2.998   0.007  0.00  0.00    +0.157 HD
BRANCH  15  20
ATOM     20  O   UNL     1       7.828  -1.774  -0.078  0.00  0.00    -0.495 OA
ATOM     21  C   UNL     1       8.084  -3.180  -0.086  0.00  0.00    +0.277 C 
ENDBRANCH  15  20
ENDBRANCH   5   7
BRANCH   1  22
ATOM     22  S   UNL     1      -4.969   1.423   0.988  0.00  0.00    +0.061 S 
ATOM     23  O   UNL     1      -4.358   0.943   2.178  0.00  0.00    -0.153 OA
ATOM     24  O   UNL     1      -5.773   2.595   0.965  0.00  0.00    -0.153 OA
BRANCH  22  30
ATOM     25  C   UNL     1      -9.320  -3.358  -1.772  0.00  0.00    +0.156 C 
ATOM     26  N   UNL     1      -8.145  -3.162  -0.919  0.00  0.00    -0.277 N 
ATOM     27  C   UNL     1      -7.553  -1.940  -0.600  0.00  0.00    +0.090 A 
ATOM     28  C   UNL     1      -7.837  -0.627  -0.940  0.00  0.00    +0.031 A 
ATOM     29  C   UNL     1      -7.050   0.396  -0.449  0.00  0.00    +0.031 A 
ATOM     30  C   UNL     1      -5.972   0.112   0.372  0.00  0.00    +0.109 A 
ATOM     31  C   UNL     1      -5.683  -1.194   0.715  0.00  0.00    +0.077 A 
ATOM     32  C   UNL     1      -6.471  -2.227   0.232  0.00  0.00    +0.159 A 
ATOM     33  O   UNL     1      -6.432  -3.572   0.393  0.00  0.00    -0.407 OA
ATOM     34  C   UNL     1      -7.439  -4.128  -0.300  0.00  0.00    +0.421 A 
ATOM     35  O   UNL     1      -7.676  -5.319  -0.360  0.00  0.00    -0.223 OA
ENDBRANCH  22  30
ENDBRANCH   1  22
TORSDOF 4
