REMARK  Name = ZINC66908432
REMARK  8 active torsions:
REMARK  status: ('A' for Active; 'I' for Inactive)
REMARK    1  A    between atoms: C_1  and  C_2
REMARK    2  A    between atoms: C_2  and  C_3
REMARK    3  A    between atoms: C_2  and  C_4
REMARK    4  A    between atoms: C_2  and  N_20
REMARK    5  A    between atoms: C_4  and  N_5
REMARK    6  A    between atoms: N_8  and  N_9
REMARK    7  A    between atoms: C_10  and  C_12
REMARK    8  A    between atoms: C_12  and  C_13
REMARK                            x       y       z     vdW  Elec       q    Type
REMARK                         _______ _______ _______ _____ _____    ______ ____
ROOT
ATOM      1  N   UNL     1      -1.928  -1.502   0.115  0.00  0.00    -0.300 N 
ATOM      2  C   UNL     1      -3.235  -1.826   0.182  0.00  0.00    +0.316 C 
ATOM      3  O   UNL     1      -4.077  -0.950   0.213  0.00  0.00    -0.251 OA
ATOM      4  N   UNL     1      -3.607  -3.121   0.216  0.00  0.00    -0.218 N 
ATOM      5  H   UNL     1      -1.256  -2.201   0.090  0.00  0.00    +0.150 HD
ATOM      6  H   UNL     1      -4.547  -3.354   0.265  0.00  0.00    +0.174 HD
ENDROOT
BRANCH   4   7
ATOM      7  N   UNL     1      -2.636  -4.130   0.180  0.00  0.00    -0.233 N 
ATOM      8  C   UNL     1      -3.008  -5.425   0.214  0.00  0.00    +0.234 C 
ATOM      9  O   UNL     1      -4.184  -5.716   0.275  0.00  0.00    -0.274 OA
ATOM     10  H   UNL     1      -1.695  -3.897   0.131  0.00  0.00    +0.173 HD
BRANCH   8  11
ATOM     11  C   UNL     1      -1.963  -6.511   0.175  0.00  0.00    +0.135 C 
BRANCH  11  12
ATOM     12  C   UNL     1      -2.637  -7.858   0.224  0.00  0.00    -0.003 A 
ATOM     13  C   UNL     1      -2.800  -8.506   1.434  0.00  0.00    +0.007 A 
ATOM     14  C   UNL     1      -3.417  -9.742   1.480  0.00  0.00    +0.000 A 
ATOM     15  C   UNL     1      -3.873 -10.331   0.315  0.00  0.00    +0.003 A 
ATOM     16  C   UNL     1      -3.712  -9.684  -0.896  0.00  0.00    +0.038 A 
ATOM     17  C   UNL     1      -3.098  -8.444  -0.942  0.00  0.00    +0.127 A 
ATOM     18  F   UNL     1      -2.945  -7.809  -2.124  0.00  0.00    -0.205 F 
ENDBRANCH  11  12
ENDBRANCH   8  11
ENDBRANCH   4   7
BRANCH   1  19
ATOM     19  C   UNL     1      -1.523  -0.094   0.078  0.00  0.00    +0.093 C 
BRANCH  19  21
ATOM     20  C   UNL     1       0.425   1.466  -0.036  0.00  0.00    -0.008 C 
ATOM     21  C   UNL     1       0.002  -0.004   0.002  0.00  0.00    -0.055 C 
ATOM     22  C   UNL     1       0.615  -0.679   1.231  0.00  0.00    -0.008 C 
BRANCH  21  23
ATOM     23  N   UNL     1       0.473  -0.681  -1.214  0.00  0.00    +0.387 N 
ATOM     24  C   UNL     1       1.927  -0.503  -1.345  0.00  0.00    -0.073 C 
ATOM     25  C   UNL     1       2.439  -1.456  -2.426  0.00  0.00    +0.017 C 
ATOM     26  C   UNL     1       1.615  -1.297  -3.678  0.00  0.00    -0.048 A 
ATOM     27  C   UNL     1       2.113  -1.800  -4.870  0.00  0.00    +0.004 A 
ATOM     28  C   UNL     1       1.385  -1.676  -6.036  0.00  0.00    +0.000 A 
ATOM     29  C   UNL     1       0.153  -1.047  -6.014  0.00  0.00    +0.000 A 
ATOM     30  C   UNL     1      -0.342  -0.545  -4.828  0.00  0.00    +0.002 A 
ATOM     31  C   UNL     1       0.389  -0.667  -3.656  0.00  0.00    -0.061 A 
ATOM     32  C   UNL     1      -0.186  -0.097  -2.386  0.00  0.00    -0.042 C 
ATOM     33  H   UNL     1       0.255  -1.664  -1.159  0.00  0.00    -0.080 HD
ENDBRANCH  21  23
ENDBRANCH  19  21
ENDBRANCH   1  19
TORSDOF 6
