REMARK  Name = ZINC09484385
REMARK  7 active torsions:
REMARK  status: ('A' for Active; 'I' for Inactive)
REMARK    1  A    between atoms: C_1  and  C_2
REMARK    2  A    between atoms: C_2  and  O_3
REMARK    3  A    between atoms: O_3  and  C_4
REMARK    4  A    between atoms: C_7  and  N_10
REMARK    5  A    between atoms: C_19  and  C_21
REMARK    6  A    between atoms: C_21  and  S_22
REMARK    7  A    between atoms: S_22  and  C_23
REMARK                            x       y       z     vdW  Elec       q    Type
REMARK                         _______ _______ _______ _____ _____    ______ ____
ROOT
ATOM      1  N   UNL     1      -1.816   0.653   0.263  0.00  0.00    -0.328 N 
ATOM      2  C   UNL     1      -1.028   1.678   0.736  0.00  0.00    +0.180 C 
ATOM      3  N   UNL     1       0.079   1.396   1.511  0.00  0.00    -0.298 N 
ATOM      4  C   UNL     1       0.887   2.416   1.950  0.00  0.00    +0.211 A 
ATOM      5  N   UNL     1       1.974   2.125   2.714  0.00  0.00    -0.293 N 
ATOM      6  H   UNL     1       2.175   1.204   2.945  0.00  0.00    +0.172 HD
ATOM      7  C   UNL     1       2.777   3.121   3.145  0.00  0.00    +0.253 A 
ATOM      8  O   UNL     1       3.759   2.877   3.827  0.00  0.00    -0.268 OA
ATOM      9  C   UNL     1       2.456   4.446   2.798  0.00  0.00    +0.094 A 
ATOM     10  C   UNL     1       1.349   4.677   2.034  0.00  0.00    +0.060 A 
ATOM     11  N   UNL     1       0.593   3.659   1.629  0.00  0.00    -0.218 NA
ATOM     12  H   UNL     1      -2.641   0.853  -0.206  0.00  0.00    +0.169 HD
ATOM     13  H   UNL     1      -2.121   3.217  -0.026  0.00  0.00    +0.159 HD
ATOM     14  H   UNL     1       0.287   0.477   1.742  0.00  0.00    +0.172 HD
ATOM     15  N   UNL     1      -1.273   2.953   0.476  0.00  0.00    -0.371 N 
ATOM     16  H   UNL     1      -0.611   3.675   0.781  0.00  0.00    +0.159 HD
ENDROOT
BRANCH   1  20
ATOM     17  C   UNL     1      -0.657  -3.309   0.848  0.00  0.00    +0.121 A 
ATOM     18  C   UNL     1      -2.004  -2.979   0.809  0.00  0.00    +0.047 A 
ATOM     19  C   UNL     1      -2.389  -1.667   0.616  0.00  0.00    +0.029 A 
ATOM     20  C   UNL     1      -1.427  -0.678   0.460  0.00  0.00    +0.042 A 
ATOM     21  C   UNL     1      -0.079  -1.010   0.494  0.00  0.00    +0.029 A 
ATOM     22  C   UNL     1       0.304  -2.321   0.694  0.00  0.00    +0.047 A 
BRANCH  17  23
ATOM     23  O   UNL     1      -0.280  -4.601   1.039  0.00  0.00    -0.492 OA
BRANCH  23  25
ATOM     24  C   UNL     1       1.353  -6.366   1.291  0.00  0.00    +0.048 C 
ATOM     25  C   UNL     1       1.124  -4.869   1.069  0.00  0.00    +0.225 C 
ENDBRANCH  23  25
ENDBRANCH  17  23
ENDBRANCH   1  20
BRANCH  10  26
ATOM     26  C   UNL     1       0.983   6.087   1.648  0.00  0.00    +0.130 C 
BRANCH  26  27
ATOM     27  S   UNL     1       1.399   6.364  -0.096  0.00  0.00    -0.119 S 
BRANCH  27  28
ATOM     28  C   UNL     1       0.917   8.033  -0.389  0.00  0.00    +0.008 A 
ATOM     29  C   UNL     1       0.355   8.786   0.635  0.00  0.00    +0.016 A 
ATOM     30  C   UNL     1      -0.017  10.095   0.404  0.00  0.00    +0.021 A 
ATOM     31  C   UNL     1       0.160  10.655  -0.850  0.00  0.00    +0.041 A 
ATOM     32  C   UNL     1       0.715   9.906  -1.873  0.00  0.00    +0.021 A 
ATOM     33  C   UNL     1       1.094   8.598  -1.646  0.00  0.00    +0.016 A 
ATOM     34 CL   UNL     1      -0.315  12.300  -1.139  0.00  0.00    -0.084 Cl
ENDBRANCH  27  28
ENDBRANCH  26  27
ENDBRANCH  10  26
TORSDOF 6
