REMARK  Name = ZINC64120702
REMARK  9 active torsions:
REMARK  status: ('A' for Active; 'I' for Inactive)
REMARK    1  A    between atoms: C_1  and  C_2
REMARK    2  A    between atoms: C_2  and  C_3
REMARK    3  A    between atoms: C_2  and  C_4
REMARK    4  A    between atoms: C_4  and  N_5
REMARK    5  A    between atoms: C_6  and  C_8
REMARK    6  A    between atoms: N_10  and  C_13
REMARK    7  A    between atoms: C_20  and  C_22
REMARK    8  A    between atoms: C_22  and  C_23
REMARK    9  A    between atoms: C_23  and  C_24
REMARK                            x       y       z     vdW  Elec       q    Type
REMARK                         _______ _______ _______ _____ _____    ______ ____
ROOT
ATOM      1  C   UNL     1      -6.850   0.037  -4.992  0.00  0.00    +0.109 C 
ATOM      2  C   UNL     1      -7.387   1.445  -5.255  0.00  0.00    +0.027 C 
ATOM      3  C   UNL     1      -8.728   1.353  -5.987  0.00  0.00    +0.021 C 
ATOM      4  C   UNL     1      -8.522   0.654  -7.335  0.00  0.00    +0.108 C 
ATOM      5  N   UNL     1      -7.872  -0.643  -7.100  0.00  0.00    -0.300 N 
ATOM      6  C   UNL     1      -6.623  -0.678  -6.327  0.00  0.00    +0.131 C 
ATOM      7  C   UNL     1      -8.412  -1.779  -7.585  0.00  0.00    +0.216 C 
ATOM      8  O   UNL     1      -7.865  -2.843  -7.385  0.00  0.00    -0.276 OA
ENDROOT
BRANCH   1  11
ATOM      9  C   UNL     1      -4.057  -0.124  -2.684  0.00  0.00    +0.120 C 
ATOM     10  C   UNL     1      -5.332  -0.410  -3.024  0.00  0.00    +0.119 C 
ATOM     11  N   UNL     1      -5.582   0.125  -4.263  0.00  0.00    -0.252 N 
ATOM     12  N   UNL     1      -4.453   0.754  -4.705  0.00  0.00    -0.160 NA
ATOM     13  N   UNL     1      -3.491   0.621  -3.743  0.00  0.00    -0.259 N 
ATOM     14  H   UNL     1      -4.145   0.368  -5.585  0.00  0.00    +0.168 HD
ATOM     15  H   UNL     1      -2.587   0.970  -3.781  0.00  0.00    +0.168 HD
BRANCH   9  17
ATOM     16  N   UNL     1      -2.105  -0.148  -1.230  0.00  0.00    -0.310 N 
ATOM     17  C   UNL     1      -3.387  -0.508  -1.443  0.00  0.00    +0.260 C 
ATOM     18  O   UNL     1      -3.986  -1.153  -0.602  0.00  0.00    -0.269 OA
ATOM     19  H   UNL     1      -1.628   0.366  -1.901  0.00  0.00    +0.149 HD
BRANCH  16  20
ATOM     20  C   UNL     1      -1.433  -0.534   0.013  0.00  0.00    +0.107 C 
BRANCH  20  22
ATOM     21  C   UNL     1      -0.019   1.526   0.010  0.00  0.00    +0.009 C 
ATOM     22  C   UNL     1       0.002  -0.004   0.002  0.00  0.00    -0.000 C 
ATOM     23  C   UNL     1       0.742  -0.511   1.242  0.00  0.00    +0.009 C 
ENDBRANCH  20  22
ENDBRANCH  16  20
ENDBRANCH   9  17
ENDBRANCH   1  11
BRANCH   7  24
ATOM     24  C   UNL     1      -9.693  -1.727  -8.376  0.00  0.00    +0.100 C 
BRANCH  24  25
ATOM     25  C   UNL     1     -10.085  -3.142  -8.805  0.00  0.00    +0.042 C 
BRANCH  25  26
ATOM     26  C   UNL     1     -11.367  -3.090  -9.596  0.00  0.00    -0.041 C 
ATOM     27  C   UNL     1     -11.491  -3.042 -10.942  0.00  0.00    -0.001 A 
ATOM     28  C   UNL     1     -10.507  -3.023 -12.031  0.00  0.00    +0.010 A 
ATOM     29  C   UNL     1     -10.945  -2.970 -13.310  0.00  0.00    +0.001 A 
ATOM     30  C   UNL     1     -12.311  -2.933 -13.620  0.00  0.00    +0.002 A 
ATOM     31  C   UNL     1     -13.274  -2.947 -12.675  0.00  0.00    +0.026 A 
ATOM     32  C   UNL     1     -12.928  -3.002 -11.296  0.00  0.00    +0.043 A 
ATOM     33  N   UNL     1     -13.664  -3.025 -10.211  0.00  0.00    -0.380 N 
ATOM     34  C   UNL     1     -12.776  -3.088  -9.045  0.00  0.00    +0.144 C 
ATOM     35  H   UNL     1     -14.633  -3.008 -10.184  0.00  0.00    +0.160 HD
ENDBRANCH  25  26
ENDBRANCH  24  25
ENDBRANCH   7  24
TORSDOF 7
