REMARK  Name = ZINC63497758
REMARK  11 active torsions:
REMARK  status: ('A' for Active; 'I' for Inactive)
REMARK    1  A    between atoms: C_1  and  C_2
REMARK    2  A    between atoms: C_2  and  C_3
REMARK    3  A    between atoms: C_3  and  S_4
REMARK    4  A    between atoms: S_4  and  N_7
REMARK    5  A    between atoms: N_7  and  C_8
REMARK    6  A    between atoms: N_11  and  C_14
REMARK    7  A    between atoms: C_14  and  C_15
REMARK    8  A    between atoms: C_15  and  C_16
REMARK    9  A    between atoms: C_15  and  O_24
REMARK   10  A    between atoms: C_19  and  C_23
REMARK   11  A    between atoms: C_20  and  C_22
REMARK                            x       y       z     vdW  Elec       q    Type
REMARK                         _______ _______ _______ _____ _____    ______ ____
ROOT
ATOM      1  C   UNL     1       1.021  -2.432   3.922  0.00  0.00    +0.073 C 
ATOM      2  C   UNL     1       1.607  -1.111   4.428  0.00  0.00    +0.002 C 
ATOM      3  C   UNL     1       1.074  -0.828   5.834  0.00  0.00    -0.077 C 
ATOM      4  N   UNL     1       1.465  -1.916   6.738  0.00  0.00    +0.382 N 
ATOM      5  C   UNL     1       0.848  -3.174   6.299  0.00  0.00    -0.077 C 
ATOM      6  C   UNL     1       1.372  -3.547   4.911  0.00  0.00    +0.002 C 
ATOM      7  H   UNL     1       2.470  -2.015   6.729  0.00  0.00    -0.082 HD
ENDROOT
BRANCH   1   8
ATOM      8  N   UNL     1       1.586  -2.747   2.607  0.00  0.00    -0.192 NA
ATOM      9  H   UNL     1       2.439  -3.203   2.543  0.00  0.00    +0.148 HD
BRANCH   8  10
ATOM     10  S   UNL     1       0.767  -2.325   1.232  0.00  0.00    +0.030 S 
ATOM     11  O   UNL     1      -0.547  -2.833   1.421  0.00  0.00    -0.158 OA
ATOM     12  O   UNL     1       1.580  -2.797   0.166  0.00  0.00    -0.158 OA
BRANCH  10  13
ATOM     13  C   UNL     1       0.742  -0.511   1.242  0.00  0.00    +0.185 C 
BRANCH  13  15
ATOM     14  C   UNL     1      -0.019   1.526   0.010  0.00  0.00    +0.005 C 
ATOM     15  C   UNL     1       0.002  -0.004   0.002  0.00  0.00    +0.021 C 
ENDBRANCH  13  15
ENDBRANCH  10  13
ENDBRANCH   8  10
ENDBRANCH   1   8
BRANCH   4  16
ATOM     16  C   UNL     1       1.019  -1.603   8.102  0.00  0.00    -0.042 C 
BRANCH  16  17
ATOM     17  C   UNL     1       1.533  -2.674   9.066  0.00  0.00    +0.128 C 
BRANCH  17  18
ATOM     18  C   UNL     1       0.975  -2.421  10.442  0.00  0.00    -0.021 A 
ATOM     19  C   UNL     1       1.546  -1.458  11.254  0.00  0.00    +0.006 A 
ATOM     20  C   UNL     1       1.033  -1.226  12.516  0.00  0.00    +0.004 A 
ATOM     21  C   UNL     1      -0.050  -1.957  12.967  0.00  0.00    -0.048 A 
ATOM     22  C   UNL     1      -0.622  -2.918  12.156  0.00  0.00    -0.047 A 
ATOM     23  C   UNL     1      -0.112  -3.148  10.891  0.00  0.00    +0.009 A 
ATOM     24  C   UNL     1      -1.803  -3.715  12.648  0.00  0.00    +0.044 C 
ATOM     25  C   UNL     1      -0.608  -1.704  14.345  0.00  0.00    +0.044 C 
ENDBRANCH  17  18
BRANCH  17  26
ATOM     26  O   UNL     1       2.961  -2.625   9.114  0.00  0.00    -0.389 OA
ATOM     27  H   UNL     1       3.315  -1.777   9.415  0.00  0.00    +0.210 HD
ENDBRANCH  17  26
ENDBRANCH  16  17
ENDBRANCH   4  16
TORSDOF 8
