REMARK  Name = ZINC21810469
REMARK  5 active torsions:
REMARK  status: ('A' for Active; 'I' for Inactive)
REMARK    1  A    between atoms: C_1  and  C_2
REMARK    2  A    between atoms: C_2  and  C_4
REMARK    3  A    between atoms: C_2  and  N_16
REMARK    4  A    between atoms: N_6  and  C_7
REMARK    5  A    between atoms: C_8  and  N_15
REMARK                            x       y       z     vdW  Elec       q    Type
REMARK                         _______ _______ _______ _____ _____    ______ ____
ROOT
ATOM      1  C   UNL     1      -1.019   6.602  -0.146  0.00  0.00    +0.203 C 
ATOM      2  O   UNL     1      -1.676   5.777  -0.745  0.00  0.00    -0.277 OA
ATOM      3  N   UNL     1      -0.137   6.208   0.794  0.00  0.00    -0.284 N 
ATOM      4  H   UNL     1       0.415   6.959   1.379  0.00  0.00    +0.155 HD
ENDROOT
BRANCH   3   5
ATOM      5  C   UNL     1       0.076   4.842   1.028  0.00  0.00    +0.073 A 
ATOM      6  C   UNL     1       0.184   4.364   2.333  0.00  0.00    +0.049 A 
ATOM      7  C   UNL     1       0.396   3.012   2.558  0.00  0.00    +0.044 A 
ATOM      8  C   UNL     1       0.498   2.140   1.488  0.00  0.00    +0.044 A 
ATOM      9  C   UNL     1       0.395   2.615   0.192  0.00  0.00    +0.042 A 
ATOM     10  C   UNL     1       0.180   3.962  -0.040  0.00  0.00    +0.065 A 
ATOM     11 CL   UNL     1       0.045   4.552  -1.667  0.00  0.00    -0.082 Cl
ATOM     12 CL   UNL     1       0.762   0.448   1.771  0.00  0.00    -0.083 Cl
BRANCH   6  13
ATOM     13  N   UNL     1       0.081   5.246   3.414  0.00  0.00    -0.356 N 
ATOM     14  H   UNL     1       0.167   4.868   4.443  0.00  0.00    +0.142 HD
ATOM     15  H   UNL     1      -0.086   6.319   3.234  0.00  0.00    +0.142 HD
ENDBRANCH   6  13
ENDBRANCH   3   5
BRANCH   1  17
ATOM     16  C   UNL     1      -0.173   8.488  -1.515  0.00  0.00    -0.004 C 
ATOM     17  C   UNL     1      -1.190   8.068  -0.452  0.00  0.00    +0.016 C 
BRANCH  17  18
ATOM     18  N   UNL     1      -2.550   8.308  -0.953  0.00  0.00    +0.387 N 
ATOM     19  C   UNL     1      -2.660   9.651  -1.565  0.00  0.00    -0.078 C 
ATOM     20  C   UNL     1      -4.083  10.050  -1.845  0.00  0.00    -0.019 C 
ATOM     21  C   UNL     1      -4.611  10.860  -0.643  0.00  0.00    -0.002 C 
ATOM     22  C   UNL     1      -4.987  10.003   0.476  0.00  0.00    -0.002 C 
ATOM     23  C   UNL     1      -3.792   9.187   1.013  0.00  0.00    -0.019 C 
ATOM     24  C   UNL     1      -3.558   8.021   0.091  0.00  0.00    -0.078 C 
ATOM     25  H   UNL     1      -2.760   7.597  -1.766  0.00  0.00    -0.081 HD
ENDBRANCH  17  18
ENDBRANCH   1  17
TORSDOF 4
