REMARK  Name = ZINC12329799
REMARK  5 active torsions:
REMARK  status: ('A' for Active; 'I' for Inactive)
REMARK    1  A    between atoms: C_6  and  C_7
REMARK    2  A    between atoms: C_7  and  C_9
REMARK    3  A    between atoms: C_7  and  O_27
REMARK    4  A    between atoms: C_9  and  N_50
REMARK    5  A    between atoms: C_16  and  O_26
REMARK                            x       y       z     vdW  Elec       q    Type
REMARK                         _______ _______ _______ _____ _____    ______ ____
ROOT
ATOM      1  C   UNL     1       2.156   1.317  -1.032  0.00  0.00    -0.075 C 
ATOM      2  C   UNL     1       3.633   1.697  -0.893  0.00  0.00    +0.029 C 
ATOM      3  C   UNL     1       3.776   3.216  -0.997  0.00  0.00    +0.110 C 
ATOM      4  C   UNL     1       2.917   3.883   0.079  0.00  0.00    +0.029 C 
ATOM      5  C   UNL     1       1.462   3.439  -0.088  0.00  0.00    -0.075 C 
ATOM      6  C   UNL     1       5.244   3.607  -0.796  0.00  0.00    +0.084 C 
ATOM      7  C   UNL     1       5.341   5.135  -0.800  0.00  0.00    +0.152 C 
ATOM      8  C   UNL     1       4.588   5.688  -1.983  0.00  0.00    +0.025 A 
ATOM      9  C   UNL     1       4.852   6.984  -2.394  0.00  0.00    +0.048 A 
ATOM     10  C   UNL     1       4.174   7.526  -3.471  0.00  0.00    +0.124 A 
ATOM     11  C   UNL     1       3.226   6.771  -4.141  0.00  0.00    +0.042 A 
ATOM     12  C   UNL     1       2.962   5.479  -3.735  0.00  0.00    +0.049 A 
ATOM     13  C   UNL     1       3.644   4.931  -2.654  0.00  0.00    +0.127 A 
ATOM     14  O   UNL     1       3.359   3.653  -2.289  0.00  0.00    -0.485 OA
ATOM     15  F   UNL     1       4.435   8.790  -3.868  0.00  0.00    -0.205 F 
ATOM     16  N   UNL     1       1.390   1.969   0.052  0.00  0.00    +0.382 N 
ATOM     17  H   UNL     1       1.798   1.700   0.956  0.00  0.00    -0.082 HD
ENDROOT
BRANCH   7  18
ATOM     18  O   UNL     1       6.713   5.524  -0.886  0.00  0.00    -0.387 OA
ATOM     19  H   UNL     1       6.851   6.481  -0.891  0.00  0.00    +0.210 HD
ENDBRANCH   7  18
BRANCH  16  20
ATOM     20  C   UNL     1      -0.019   1.526   0.010  0.00  0.00    -0.042 C 
BRANCH  20  21
ATOM     21  C   UNL     1      -0.061  -0.004   0.033  0.00  0.00    +0.128 C 
BRANCH  21  27
ATOM     22  C   UNL     1      -2.209  -0.468   1.232  0.00  0.00    +0.007 A 
ATOM     23  C   UNL     1      -3.526  -0.886   1.246  0.00  0.00    +0.020 A 
ATOM     24  C   UNL     1      -4.127  -1.314   0.075  0.00  0.00    +0.041 A 
ATOM     25  C   UNL     1      -3.412  -1.317  -1.109  0.00  0.00    +0.020 A 
ATOM     26  C   UNL     1      -2.096  -0.893  -1.121  0.00  0.00    +0.007 A 
ATOM     27  C   UNL     1      -1.496  -0.466   0.048  0.00  0.00    -0.021 A 
ATOM     28 CL   UNL     1      -5.780  -1.846   0.092  0.00  0.00    -0.084 Cl
ENDBRANCH  21  27
BRANCH  21  29
ATOM     29  O   UNL     1       0.605  -0.481   1.204  0.00  0.00    -0.389 OA
ATOM     30  H   UNL     1       0.214  -0.172   2.032  0.00  0.00    +0.210 HD
ENDBRANCH  21  29
ENDBRANCH  20  21
ENDBRANCH  16  20
TORSDOF 5
