REMARK  Name = ZINC43737406
REMARK  7 active torsions:
REMARK  status: ('A' for Active; 'I' for Inactive)
REMARK    1  A    between atoms: C_1  and  C_2
REMARK    2  A    between atoms: C_5  and  O_30
REMARK    3  A    between atoms: C_18  and  C_29
REMARK    4  A    between atoms: C_23  and  N_25
REMARK    5  A    between atoms: N_25  and  C_26
REMARK    6  A    between atoms: C_26  and  C_27
REMARK    7  A    between atoms: C_27  and  O_28
REMARK                            x       y       z     vdW  Elec       q    Type
REMARK                         _______ _______ _______ _____ _____    ______ ____
ROOT
ATOM      1  C   UNL     1      -0.064   1.576  -0.122  0.00  0.00    +0.012 C 
ATOM      2  C   UNL     1      -0.024   0.043  -0.117  0.00  0.00    -0.026 C 
ATOM      3  C   UNL     1       0.658  -0.450  -1.391  0.00  0.00    +0.010 C 
ATOM      4  C   UNL     1       2.109   0.032  -1.436  0.00  0.00    +0.032 C 
ATOM      5  C   UNL     1       2.872  -0.433  -0.197  0.00  0.00    +0.115 C 
ATOM      6  C   UNL     1       2.181   0.070   1.074  0.00  0.00    +0.035 C 
ATOM      7  C   UNL     1       0.751  -0.465   1.099  0.00  0.00    -0.002 C 
ATOM      8  C   UNL     1       0.044  -0.103   2.400  0.00  0.00    +0.004 C 
ATOM      9  C   UNL     1      -1.349  -0.752   2.435  0.00  0.00    +0.004 C 
ATOM     10  C   UNL     1      -1.571  -1.473   1.111  0.00  0.00    -0.004 C 
ATOM     11  C   UNL     1      -1.464  -0.462  -0.032  0.00  0.00    -0.001 C 
ATOM     12  C   UNL     1      -1.956  -1.087  -1.327  0.00  0.00    +0.005 C 
ATOM     13  C   UNL     1      -3.471  -1.348  -1.261  0.00  0.00    +0.005 C 
ATOM     14  C   UNL     1      -3.922  -1.580   0.156  0.00  0.00    -0.041 C 
ATOM     15  C   UNL     1      -2.840  -2.262   1.014  0.00  0.00    -0.003 C 
ATOM     16  C   UNL     1      -3.596  -2.539   2.321  0.00  0.00    +0.003 C 
ATOM     17  C   UNL     1      -5.012  -2.953   1.836  0.00  0.00    -0.015 C 
ATOM     18  C   UNL     1      -5.093  -2.567   0.336  0.00  0.00    -0.065 C 
ATOM     19  C   UNL     1      -4.387  -0.256   0.782  0.00  0.00    +0.010 C 
ENDROOT
BRANCH  18  20
ATOM     20  N   UNL     1      -4.928  -3.756  -0.499  0.00  0.00    +0.383 N 
ATOM     21  H   UNL     1      -4.807  -3.477  -1.461  0.00  0.00    -0.085 HD
ATOM     22  H   UNL     1      -4.117  -4.272  -0.193  0.00  0.00    -0.085 HD
BRANCH  20  23
ATOM     23  C   UNL     1      -6.121  -4.605  -0.382  0.00  0.00    -0.054 C 
BRANCH  23  24
ATOM     24  C   UNL     1      -5.949  -5.849  -1.256  0.00  0.00    +0.137 C 
BRANCH  24  25
ATOM     25  O   UNL     1      -4.871  -6.640  -0.751  0.00  0.00    -0.397 OA
ATOM     26  H   UNL     1      -4.705  -7.447  -1.258  0.00  0.00    +0.209 HD
ENDBRANCH  24  25
ENDBRANCH  23  24
ENDBRANCH  20  23
ENDBRANCH  18  20
BRANCH   5  27
ATOM     27  O   UNL     1       4.207   0.079  -0.242  0.00  0.00    -0.392 OA
ATOM     28  H   UNL     1       4.713  -0.208  -1.014  0.00  0.00    +0.210 HD
ENDBRANCH   5  27
TORSDOF 5
