REMARK  Name = ZINC12502380
REMARK  12 active torsions:
REMARK  status: ('A' for Active; 'I' for Inactive)
REMARK    1  A    between atoms: C_1  and  C_2
REMARK    2  A    between atoms: C_2  and  C_4
REMARK    3  A    between atoms: C_2  and  N_69
REMARK    4  A    between atoms: N_6  and  C_7
REMARK    5  A    between atoms: C_7  and  C_9
REMARK    6  A    between atoms: C_7  and  C_31
REMARK    7  A    between atoms: C_15  and  C_17
REMARK    8  A    between atoms: N_19  and  C_20
REMARK    9  A    between atoms: C_31  and  C_32
REMARK   10  A    between atoms: C_31  and  C_33
REMARK   11  A    between atoms: C_31  and  C_34
REMARK   12  A    between atoms: C_35  and  N_69
REMARK                            x       y       z     vdW  Elec       q    Type
REMARK                         _______ _______ _______ _____ _____    ______ ____
ROOT
ATOM      1  C   UNL     1      -4.907   3.251  -1.216  0.00  0.00    +0.237 C 
ATOM      2  O   UNL     1      -4.229   4.213  -0.919  0.00  0.00    -0.274 OA
ATOM      3  N   UNL     1      -4.317   2.122  -1.658  0.00  0.00    -0.288 N 
ATOM      4  C   UNL     1      -5.008   0.857  -1.968  0.00  0.00    +0.109 C 
ATOM      5  C   UNL     1      -4.078   0.134  -2.974  0.00  0.00    +0.021 C 
ATOM      6  C   UNL     1      -2.675   0.509  -2.427  0.00  0.00    +0.033 C 
ATOM      7  C   UNL     1      -2.879   1.949  -1.911  0.00  0.00    +0.162 C 
ENDROOT
BRANCH   7   8
ATOM      8  C   UNL     1      -2.107   2.149  -0.632  0.00  0.00    +0.234 C 
ATOM      9  O   UNL     1      -2.692   2.425   0.393  0.00  0.00    -0.274 OA
ATOM     10  N   UNL     1      -0.765   2.021  -0.629  0.00  0.00    -0.307 N 
ATOM     11  H   UNL     1      -0.297   1.801  -1.450  0.00  0.00    +0.149 HD
BRANCH  10  12
ATOM     12  C   UNL     1      -0.014   2.216   0.613  0.00  0.00    +0.103 C 
ATOM     13  C   UNL     1       1.409   2.660   0.278  0.00  0.00    +0.027 C 
ATOM     14  C   UNL     1       2.237   2.647   1.568  0.00  0.00    +0.007 C 
ATOM     15  C   UNL     1       2.445   1.195   1.992  0.00  0.00    +0.035 C 
ATOM     16  C   UNL     1       1.131   0.461   2.030  0.00  0.00    -0.042 A 
ATOM     17  C   UNL     1       0.003   0.926   1.391  0.00  0.00    -0.024 A 
ATOM     18  C   UNL     1      -1.175   0.193   1.453  0.00  0.00    +0.006 A 
ATOM     19  C   UNL     1      -1.225  -0.995   2.154  0.00  0.00    +0.000 A 
ATOM     20  C   UNL     1      -0.095  -1.459   2.800  0.00  0.00    +0.000 A 
ATOM     21  C   UNL     1       1.077  -0.734   2.737  0.00  0.00    +0.004 A 
ENDBRANCH  10  12
ENDBRANCH   7   8
BRANCH   1  22
ATOM     22  C   UNL     1      -6.407   3.318  -1.091  0.00  0.00    +0.164 C 
BRANCH  22  25
ATOM     23  C   UNL     1      -8.114   4.899  -1.816  0.00  0.00    +0.199 C 
ATOM     24  O   UNL     1      -8.868   3.963  -1.981  0.00  0.00    -0.278 OA
ATOM     25  N   UNL     1      -6.860   4.683  -1.374  0.00  0.00    -0.305 N 
ATOM     26  H   UNL     1      -6.256   5.431  -1.242  0.00  0.00    +0.149 HD
BRANCH  23  28
ATOM     27  C   UNL     1      -7.694   6.919  -3.191  0.00  0.00    -0.004 C 
ATOM     28  C   UNL     1      -8.580   6.302  -2.107  0.00  0.00    +0.012 C 
BRANCH  28  30
ATOM     29  C   UNL     1     -10.647   7.547  -2.307  0.00  0.00    -0.099 C 
ATOM     30  N   UNL     1      -9.977   6.261  -2.577  0.00  0.00    +0.385 N 
ATOM     31  H   UNL     1     -10.477   5.510  -2.087  0.00  0.00    -0.085 HD
ATOM     32  H   UNL     1      -9.990   6.078  -3.587  0.00  0.00    -0.085 HD
ENDBRANCH  28  30
ENDBRANCH  23  28
ENDBRANCH  22  25
BRANCH  22  33
ATOM     33  C   UNL     1      -6.818   2.929   0.330  0.00  0.00    -0.011 C 
ATOM     34  C   UNL     1      -6.334   3.997   1.312  0.00  0.00    +0.013 C 
ATOM     35  C   UNL     1      -8.342   2.817   0.407  0.00  0.00    +0.013 C 
ATOM     36  C   UNL     1      -6.189   1.581   0.691  0.00  0.00    +0.013 C 
ENDBRANCH  22  33
ENDBRANCH   1  22
TORSDOF 7
