REMARK  Name = ZINC65820178
REMARK  8 active torsions:
REMARK  status: ('A' for Active; 'I' for Inactive)
REMARK    1  A    between atoms: C_1  and  C_2
REMARK    2  A    between atoms: C_5  and  C_7
REMARK    3  A    between atoms: C_7  and  C_8
REMARK    4  A    between atoms: C_7  and  N_9
REMARK    5  A    between atoms: N_12  and  C_13
REMARK    6  A    between atoms: C_17  and  C_19
REMARK    7  A    between atoms: C_19  and  N_20
REMARK    8  A    between atoms: C_24  and  C_25
REMARK                            x       y       z     vdW  Elec       q    Type
REMARK                         _______ _______ _______ _____ _____    ______ ____
ROOT
ATOM      1  C   UNL     1       3.971  -6.588   2.884  0.00  0.00    +0.035 A 
ATOM      2  C   UNL     1       3.262  -7.757   2.641  0.00  0.00    +0.023 A 
ATOM      3  C   UNL     1       3.605  -8.921   3.301  0.00  0.00    +0.002 A 
ATOM      4  C   UNL     1       4.653  -8.923   4.202  0.00  0.00    +0.002 A 
ATOM      5  C   UNL     1       5.361  -7.761   4.447  0.00  0.00    -0.062 A 
ATOM      6  C   UNL     1       5.027  -6.595   3.786  0.00  0.00    +0.025 A 
ENDROOT
BRANCH   1  10
ATOM      7  N   UNL     1       1.992  -3.965   1.381  0.00  0.00    -0.292 N 
ATOM      8  C   UNL     1       2.334  -5.143   1.939  0.00  0.00    +0.304 C 
ATOM      9  O   UNL     1       1.477  -5.968   2.192  0.00  0.00    -0.252 OA
ATOM     10  N   UNL     1       3.626  -5.407   2.217  0.00  0.00    -0.269 N 
ATOM     11  H   UNL     1       2.676  -3.307   1.180  0.00  0.00    +0.151 HD
ATOM     12  H   UNL     1       4.317  -4.779   1.955  0.00  0.00    +0.156 HD
BRANCH   7  13
ATOM     13  C   UNL     1       0.588  -3.678   1.079  0.00  0.00    +0.108 C 
ATOM     14  C   UNL     1       0.231  -4.262  -0.289  0.00  0.00    +0.033 C 
BRANCH  13  19
ATOM     15  C   UNL     1       0.656   1.962   0.551  0.00  0.00    +0.051 C 
ATOM     16  C   UNL     1       0.406   0.499   0.809  0.00  0.00    -0.013 A 
ATOM     17  C   UNL     1      -0.657  -0.092   1.409  0.00  0.00    +0.011 A 
ATOM     18  C   UNL     1      -0.674  -1.469   1.538  0.00  0.00    +0.013 A 
ATOM     19  C   UNL     1       0.372  -2.186   1.060  0.00  0.00    +0.010 A 
ATOM     20  S   UNL     1       1.426  -0.907   0.397  0.00  0.00    -0.097 S 
ENDBRANCH  13  19
ENDBRANCH   7  13
ENDBRANCH   1  10
BRANCH   5  21
ATOM     21  C   UNL     1       6.503  -7.768   5.431  0.00  0.00    -0.042 C 
BRANCH  21  22
ATOM     22  N   UNL     1       7.752  -8.090   4.729  0.00  0.00    +0.390 N 
ATOM     23  C   UNL     1       8.133  -6.977   3.823  0.00  0.00    -0.077 C 
ATOM     24  C   UNL     1       9.654  -7.189   3.620  0.00  0.00    -0.020 C 
ATOM     25  C   UNL     1      10.126  -7.664   5.014  0.00  0.00    -0.008 C 
ATOM     26  C   UNL     1       8.862  -8.219   5.698  0.00  0.00    +0.019 C 
ATOM     27  H   UNL     1       7.647  -8.946   4.206  0.00  0.00    -0.080 HD
BRANCH  26  28
ATOM     28  C   UNL     1       9.067  -9.669   6.055  0.00  0.00    +0.197 C 
ATOM     29  O   UNL     1       8.362 -10.521   5.557  0.00  0.00    -0.278 OA
ATOM     30  N   UNL     1      10.033 -10.018   6.928  0.00  0.00    -0.331 N 
ATOM     31  H   UNL     1      10.596  -9.337   7.326  0.00  0.00    +0.145 HD
ATOM     32  H   UNL     1      10.164 -10.951   7.158  0.00  0.00    +0.145 HD
ENDBRANCH  26  28
ENDBRANCH  21  22
ENDBRANCH   5  21
TORSDOF 6
