REMARK  Name = ZINC66775107
REMARK  5 active torsions:
REMARK  status: ('A' for Active; 'I' for Inactive)
REMARK    1  A    between atoms: C_6  and  C_7
REMARK    2  A    between atoms: C_7  and  N_8
REMARK    3  A    between atoms: C_9  and  C_11
REMARK    4  A    between atoms: C_14  and  N_20
REMARK    5  A    between atoms: C_15  and  N_17
REMARK                            x       y       z     vdW  Elec       q    Type
REMARK                         _______ _______ _______ _____ _____    ______ ____
ROOT
ATOM      1  N   UNL     1      -1.773  -0.868  -1.399  0.00  0.00    -0.307 N 
ATOM      2  C   UNL     1      -2.763  -1.752  -1.633  0.00  0.00    +0.244 C 
ATOM      3  O   UNL     1      -3.252  -2.375  -0.710  0.00  0.00    -0.270 OA
ATOM      4  H   UNL     1      -1.383  -0.371  -2.135  0.00  0.00    +0.149 HD
ENDROOT
BRANCH   2   5
ATOM      5  C   UNL     1      -3.254  -1.963  -3.007  0.00  0.00    +0.039 A 
ATOM      6  C   UNL     1      -2.689  -1.251  -4.070  0.00  0.00    +0.015 A 
ATOM      7  C   UNL     1      -3.149  -1.450  -5.351  0.00  0.00    +0.026 A 
ATOM      8  C   UNL     1      -4.176  -2.359  -5.590  0.00  0.00    +0.055 A 
ATOM      9  C   UNL     1      -4.741  -3.069  -4.535  0.00  0.00    +0.147 A 
ATOM     10  C   UNL     1      -4.282  -2.879  -3.252  0.00  0.00    +0.047 A 
BRANCH   9  11
ATOM     11  N   UNL     1      -5.834  -4.034  -4.793  0.00  0.00    +0.058 N 
ATOM     12  O   UNL     1      -6.742  -4.145  -4.003  0.00  0.00    -0.126 OA
ATOM     13  O   UNL     1      -5.818  -4.711  -5.795  0.00  0.00    -0.126 OA
ENDBRANCH   9  11
BRANCH   8  14
ATOM     14  N   UNL     1      -4.639  -2.558  -6.887  0.00  0.00    -0.356 N 
ATOM     15  H   UNL     1      -4.174  -2.152  -7.635  0.00  0.00    +0.142 HD
ATOM     16  H   UNL     1      -5.427  -3.102  -7.042  0.00  0.00    +0.142 HD
ENDBRANCH   8  14
ENDBRANCH   2   5
BRANCH   1  17
ATOM     17  C   UNL     1      -1.285  -0.659  -0.033  0.00  0.00    +0.140 C 
BRANCH  17  23
ATOM     18  C   UNL     1      -0.494   1.710   0.106  0.00  0.00    +0.009 A 
ATOM     19  C   UNL     1       0.511   2.662   0.096  0.00  0.00    +0.050 A 
ATOM     20  C   UNL     1       1.828   2.267  -0.065  0.00  0.00    +0.162 A 
ATOM     21  C   UNL     1       2.137   0.923  -0.217  0.00  0.00    +0.162 A 
ATOM     22  C   UNL     1       1.130  -0.026  -0.207  0.00  0.00    +0.054 A 
ATOM     23  C   UNL     1      -0.185   0.371  -0.045  0.00  0.00    -0.027 A 
ATOM     24  O   UNL     1       3.439   0.545  -0.375  0.00  0.00    -0.488 OA
ATOM     25  C   UNL     1       4.059   0.935  -1.602  0.00  0.00    +0.232 C 
ATOM     26  C   UNL     1       4.599   2.353  -1.507  0.00  0.00    +0.082 C 
ATOM     27  C   UNL     1       3.494   3.382  -1.326  0.00  0.00    +0.232 C 
ATOM     28  O   UNL     1       2.828   3.195  -0.075  0.00  0.00    -0.488 OA
ENDBRANCH  17  23
ENDBRANCH   1  17
TORSDOF 5
