REMARK  Name = ZINC44803282
REMARK  9 active torsions:
REMARK  status: ('A' for Active; 'I' for Inactive)
REMARK    1  A    between atoms: C_1  and  C_2
REMARK    2  A    between atoms: C_2  and  C_4
REMARK    3  A    between atoms: C_2  and  N_14
REMARK    4  A    between atoms: C_7  and  O_10
REMARK    5  A    between atoms: O_10  and  C_11
REMARK    6  A    between atoms: N_14  and  C_15
REMARK    7  A    between atoms: C_15  and  C_17
REMARK    8  A    between atoms: C_15  and  C_18
REMARK    9  A    between atoms: N_23  and  C_24
REMARK                            x       y       z     vdW  Elec       q    Type
REMARK                         _______ _______ _______ _____ _____    ______ ____
ROOT
ATOM      1  N   UNL     1       0.690  -0.478  -1.207  0.00  0.00    +0.391 N 
ATOM      2  H   UNL     1       0.632  -1.484  -1.254  0.00  0.00    -0.084 HD
ATOM      3  H   UNL     1       0.251  -0.077  -2.022  0.00  0.00    -0.084 HD
ENDROOT
BRANCH   1   5
ATOM      4  C   UNL     1      -0.019   1.526   0.010  0.00  0.00    -0.009 C 
ATOM      5  C   UNL     1       0.002  -0.004   0.002  0.00  0.00    -0.043 C 
BRANCH   5   6
ATOM      6  C   UNL     1      -1.412  -0.526   0.013  0.00  0.00    -0.061 A 
ATOM      7  C   UNL     1      -2.140  -0.568  -1.161  0.00  0.00    +0.005 A 
ATOM      8  C   UNL     1      -3.437  -1.046  -1.154  0.00  0.00    +0.046 A 
ATOM      9  C   UNL     1      -4.007  -1.483   0.032  0.00  0.00    +0.127 A 
ATOM     10  C   UNL     1      -3.274  -1.439   1.209  0.00  0.00    +0.046 A 
ATOM     11  C   UNL     1      -1.976  -0.966   1.196  0.00  0.00    +0.005 A 
BRANCH   9  12
ATOM     12  O   UNL     1      -5.282  -1.952   0.042  0.00  0.00    -0.434 OA
BRANCH  12  13
ATOM     13  C   UNL     1      -5.805  -2.385   1.300  0.00  0.00    +0.541 C 
ATOM     14  F   UNL     1      -5.016  -3.428   1.798  0.00  0.00    -0.166 F 
ATOM     15  F   UNL     1      -5.790  -1.318   2.204  0.00  0.00    -0.166 F 
ENDBRANCH  12  13
ENDBRANCH   9  12
ENDBRANCH   5   6
ENDBRANCH   1   5
BRANCH   1  16
ATOM     16  C   UNL     1       2.100  -0.070  -1.159  0.00  0.00    +0.014 C 
ATOM     17  C   UNL     1       2.796  -0.777   0.006  0.00  0.00    -0.004 C 
BRANCH  16  18
ATOM     18  C   UNL     1       2.776  -0.448  -2.452  0.00  0.00    +0.206 C 
ATOM     19  O   UNL     1       2.145  -1.002  -3.326  0.00  0.00    -0.277 OA
ATOM     20  N   UNL     1       4.082  -0.170  -2.636  0.00  0.00    -0.242 N 
ATOM     21  C   UNL     1       4.686  -0.508  -3.792  0.00  0.00    +0.306 C 
ATOM     22  O   UNL     1       4.054  -1.063  -4.669  0.00  0.00    -0.252 OA
ATOM     23  N   UNL     1       5.992  -0.230  -3.976  0.00  0.00    -0.296 N 
ATOM     24  H   UNL     1       4.587   0.273  -1.936  0.00  0.00    +0.159 HD
ATOM     25  H   UNL     1       6.497   0.213  -3.276  0.00  0.00    +0.151 HD
BRANCH  23  26
ATOM     26  C   UNL     1       6.649  -0.598  -5.233  0.00  0.00    +0.074 C 
ATOM     27  C   UNL     1       7.192  -2.039  -5.144  0.00  0.00    +0.022 C 
ATOM     28  C   UNL     1       8.531  -1.989  -5.922  0.00  0.00    +0.002 C 
ATOM     29  C   UNL     1       9.102  -0.603  -5.531  0.00  0.00    +0.002 C 
ATOM     30  C   UNL     1       7.864   0.315  -5.479  0.00  0.00    +0.022 C 
ENDBRANCH  23  26
ENDBRANCH  16  18
ENDBRANCH   1  16
TORSDOF 7
