REMARK  Name = ZINC45068333
REMARK  7 active torsions:
REMARK  status: ('A' for Active; 'I' for Inactive)
REMARK    1  A    between atoms: C_2  and  C_11
REMARK    2  A    between atoms: C_11  and  N_12
REMARK    3  A    between atoms: N_12  and  C_13
REMARK    4  A    between atoms: C_13  and  C_14
REMARK    5  A    between atoms: C_14  and  C_15
REMARK    6  A    between atoms: C_15  and  S_16
REMARK    7  A    between atoms: S_16  and  N_19
REMARK                            x       y       z     vdW  Elec       q    Type
REMARK                         _______ _______ _______ _____ _____    ______ ____
ROOT
ATOM      1  N   UNL     1       1.511   4.085   1.347  0.00  0.00    +0.382 N 
ATOM      2  H   UNL     1       0.850   3.734   2.024  0.00  0.00    -0.085 HD
ATOM      3  H   UNL     1       2.437   3.761   1.583  0.00  0.00    -0.085 HD
ENDROOT
BRANCH   1   4
ATOM      4  C   UNL     1       1.147   3.596   0.010  0.00  0.00    -0.046 C 
BRANCH   4   6
ATOM      5  C   UNL     1      -0.017   1.381   0.010  0.00  0.00    +0.052 A 
ATOM      6  C   UNL     1       1.171   2.089   0.002  0.00  0.00    -0.047 A 
ATOM      7  C   UNL     1       2.380   1.418  -0.013  0.00  0.00    +0.023 A 
ATOM      8  C   UNL     1       2.406   0.035  -0.021  0.00  0.00    +0.065 A 
ATOM      9  C   UNL     1       1.220  -0.681  -0.014  0.00  0.00    +0.167 A 
ATOM     10  C   UNL     1       0.002  -0.004   0.002  0.00  0.00    +0.166 A 
ATOM     11  O   UNL     1      -1.008  -0.923   0.006  0.00  0.00    -0.453 OA
ATOM     12  C   UNL     1      -0.404  -2.159  -0.419  0.00  0.00    +0.466 C 
ATOM     13  O   UNL     1       0.973  -2.023  -0.019  0.00  0.00    -0.453 OA
ATOM     14 BR   UNL     1       4.000   2.392  -0.023  0.00  0.00    -0.050 Br
ENDBRANCH   4   6
ENDBRANCH   1   4
BRANCH   1  15
ATOM     15  C   UNL     1       1.488   5.553   1.354  0.00  0.00    -0.081 C 
BRANCH  15  16
ATOM     16  C   UNL     1       1.867   6.062   2.747  0.00  0.00    +0.005 C 
BRANCH  16  17
ATOM     17  C   UNL     1       1.843   7.592   2.755  0.00  0.00    +0.183 C 
BRANCH  17  18
ATOM     18  S   UNL     1       2.292   8.195   4.406  0.00  0.00    +0.027 S 
ATOM     19  O   UNL     1       1.276   7.861   5.341  0.00  0.00    -0.158 OA
ATOM     20  O   UNL     1       3.654   7.901   4.680  0.00  0.00    -0.158 OA
BRANCH  18  21
ATOM     21  N   UNL     1       2.231   9.846   4.287  0.00  0.00    -0.208 NA
ATOM     22  H   UNL     1       1.990  10.263   3.445  0.00  0.00    +0.144 HD
ATOM     23  H   UNL     1       2.436  10.395   5.059  0.00  0.00    +0.144 HD
ENDBRANCH  18  21
ENDBRANCH  17  18
ENDBRANCH  16  17
ENDBRANCH  15  16
ENDBRANCH   1  15
TORSDOF 7
