REMARK  Name = ZINC39237633
REMARK  6 active torsions:
REMARK  status: ('A' for Active; 'I' for Inactive)
REMARK    1  A    between atoms: C_1  and  C_2
REMARK    2  A    between atoms: C_2  and  N_3
REMARK    3  A    between atoms: C_4  and  C_29
REMARK    4  A    between atoms: C_7  and  S_8
REMARK    5  A    between atoms: S_8  and  C_9
REMARK    6  A    between atoms: C_11  and  C_22
REMARK                            x       y       z     vdW  Elec       q    Type
REMARK                         _______ _______ _______ _____ _____    ______ ____
ROOT
ATOM      1  C   UNL     1       4.829  -0.741  -1.040  0.00  0.00    +0.171 C 
ATOM      2  C   UNL     1       5.987  -0.289  -0.172  0.00  0.00    -0.008 C 
ATOM      3  C   UNL     1       6.902  -1.269   0.226  0.00  0.00    +0.003 A 
ATOM      4  C   UNL     1       8.008  -0.936   1.035  0.00  0.00    +0.030 A 
ATOM      5  C   UNL     1       8.883  -1.909   1.409  0.00  0.00    +0.042 A 
ATOM      6  C   UNL     1       8.708  -3.233   1.009  0.00  0.00    +0.022 A 
ATOM      7  C   UNL     1       7.659  -3.615   0.229  0.00  0.00    +0.025 A 
ATOM      8  C   UNL     1       6.716  -2.662  -0.195  0.00  0.00    +0.041 A 
ATOM      9  N   UNL     1       5.687  -3.039  -0.961  0.00  0.00    -0.284 N 
ATOM     10  C   UNL     1       4.762  -2.208  -1.399  0.00  0.00    +0.235 C 
ATOM     11  O   UNL     1       3.852  -2.624  -2.092  0.00  0.00    -0.274 OA
ATOM     12 CL   UNL     1      10.244  -1.494   2.404  0.00  0.00    -0.084 Cl
ATOM     13  H   UNL     1       5.617  -3.975  -1.208  0.00  0.00    +0.155 HD
ENDROOT
BRANCH   2  14
ATOM     14  C   UNL     1       6.137   1.064   0.216  0.00  0.00    -0.001 A 
ATOM     15  C   UNL     1       5.645   1.503   1.457  0.00  0.00    +0.010 A 
ATOM     16  C   UNL     1       5.796   2.820   1.826  0.00  0.00    +0.001 A 
ATOM     17  C   UNL     1       6.430   3.715   0.977  0.00  0.00    +0.001 A 
ATOM     18  C   UNL     1       6.918   3.295  -0.248  0.00  0.00    +0.020 A 
ATOM     19  C   UNL     1       6.784   1.978  -0.635  0.00  0.00    +0.048 A 
ATOM     20 CL   UNL     1       7.403   1.452  -2.169  0.00  0.00    -0.083 Cl
ENDBRANCH   2  14
BRANCH   1  21
ATOM     21  S   UNL     1       3.289  -0.306  -0.185  0.00  0.00    -0.068 S 
BRANCH  21  26
ATOM     22  N   UNL     1       0.689  -0.458  -1.205  0.00  0.00    -0.302 N 
ATOM     23  C   UNL     1       0.111  -0.833  -2.396  0.00  0.00    +0.165 A 
ATOM     24  N   UNL     1       1.084  -1.204  -3.196  0.00  0.00    -0.128 NA
ATOM     25  N   UNL     1       2.214  -1.088  -2.596  0.00  0.00    -0.122 NA
ATOM     26  C   UNL     1       2.033  -0.631  -1.377  0.00  0.00    +0.193 A 
BRANCH  23  27
ATOM     27  C   UNL     1      -1.332  -0.821  -2.715  0.00  0.00    +0.019 A 
ATOM     28  C   UNL     1      -2.210  -0.043  -1.958  0.00  0.00    +0.011 A 
ATOM     29  C   UNL     1      -3.556  -0.037  -2.260  0.00  0.00    +0.001 A 
ATOM     30  C   UNL     1      -4.037  -0.799  -3.311  0.00  0.00    +0.000 A 
ATOM     31  C   UNL     1      -3.171  -1.572  -4.065  0.00  0.00    +0.001 A 
ATOM     32  C   UNL     1      -1.822  -1.583  -3.777  0.00  0.00    +0.011 A 
ENDBRANCH  23  27
BRANCH  22  34
ATOM     33  C   UNL     1      -0.014   1.561  -0.018  0.00  0.00    +0.027 C 
ATOM     34  C   UNL     1       0.006   0.031  -0.005  0.00  0.00    +0.122 C 
ENDBRANCH  22  34
ENDBRANCH  21  26
ENDBRANCH   1  21
TORSDOF 5
