REMARK  Name = ZINC39733318
REMARK  7 active torsions:
REMARK  status: ('A' for Active; 'I' for Inactive)
REMARK    1  A    between atoms: C_1  and  C_2
REMARK    2  A    between atoms: C_2  and  C_4
REMARK    3  A    between atoms: C_2  and  N_14
REMARK    4  A    between atoms: N_6  and  C_7
REMARK    5  A    between atoms: N_17  and  C_20
REMARK    6  A    between atoms: C_20  and  C_21
REMARK    7  A    between atoms: C_26  and  C_31
REMARK                            x       y       z     vdW  Elec       q    Type
REMARK                         _______ _______ _______ _____ _____    ______ ____
ROOT
ATOM      1  N   UNL     1       0.781  -0.587  -1.096  0.00  0.00    +0.389 N 
ATOM      2  C   UNL     1       0.698  -2.050  -0.987  0.00  0.00    -0.062 C 
ATOM      3  C   UNL     1       1.454  -2.691  -2.153  0.00  0.00    +0.066 C 
ATOM      4  N   UNL     1       2.858  -2.259  -2.120  0.00  0.00    -0.299 NA
ATOM      5  C   UNL     1       2.956  -0.794  -2.202  0.00  0.00    +0.066 C 
ATOM      6  C   UNL     1       2.187  -0.169  -1.036  0.00  0.00    -0.062 C 
ATOM      7  H   UNL     1       0.379  -0.292  -1.973  0.00  0.00    -0.081 HD
ENDROOT
BRANCH   1   9
ATOM      8  C   UNL     1       0.239   1.545  -0.020  0.00  0.00    -0.004 C 
ATOM      9  C   UNL     1       0.040   0.028   0.013  0.00  0.00    +0.017 C 
BRANCH   9  10
ATOM     10  C   UNL     1      -1.427  -0.288  -0.126  0.00  0.00    +0.203 C 
ATOM     11  O   UNL     1      -1.853  -0.747  -1.165  0.00  0.00    -0.277 OA
ATOM     12  N   UNL     1      -2.266  -0.062   0.905  0.00  0.00    -0.285 N 
ATOM     13  H   UNL     1      -1.941   0.374   1.708  0.00  0.00    +0.155 HD
BRANCH  12  14
ATOM     14  C   UNL     1      -3.607  -0.457   0.816  0.00  0.00    +0.069 A 
ATOM     15  C   UNL     1      -4.265  -0.414  -0.406  0.00  0.00    +0.026 A 
ATOM     16  C   UNL     1      -5.588  -0.804  -0.490  0.00  0.00    +0.002 A 
ATOM     17  C   UNL     1      -6.257  -1.236   0.639  0.00  0.00    +0.003 A 
ATOM     18  C   UNL     1      -5.606  -1.280   1.859  0.00  0.00    +0.040 A 
ATOM     19  C   UNL     1      -4.280  -0.897   1.950  0.00  0.00    +0.144 A 
ATOM     20  F   UNL     1      -3.642  -0.946   3.140  0.00  0.00    -0.204 F 
ENDBRANCH  12  14
ENDBRANCH   9  10
ENDBRANCH   1   9
BRANCH   4  21
ATOM     21  C   UNL     1       3.632  -2.899  -3.192  0.00  0.00    +0.158 C 
BRANCH  21  22
ATOM     22  C   UNL     1       5.100  -2.630  -2.981  0.00  0.00    +0.138 C 
ATOM     23  N   UNL     1       5.470  -1.917  -1.942  0.00  0.00    -0.160 NA
ATOM     24  C   UNL     1       6.754  -1.641  -1.695  0.00  0.00    +0.272 C 
ATOM     25  O   UNL     1       7.075  -0.975  -0.722  0.00  0.00    -0.268 OA
ATOM     26  C   UNL     1       7.784  -2.163  -2.635  0.00  0.00    +0.076 C 
ATOM     27  C   UNL     1       9.159  -1.989  -2.556  0.00  0.00    -0.009 C 
ATOM     28  C   UNL     1       9.984  -2.631  -3.650  0.00  0.00    +0.113 C 
ATOM     29  S   UNL     1       8.676  -3.418  -4.673  0.00  0.00    -0.100 S 
ATOM     30  C   UNL     1       7.263  -2.919  -3.718  0.00  0.00    +0.112 C 
ATOM     31  N   UNL     1       5.968  -3.125  -3.846  0.00  0.00    -0.226 NA
BRANCH  27  32
ATOM     32  C   UNL     1       9.751  -1.258  -1.521  0.00  0.00    +0.017 A 
ATOM     33  C   UNL     1      10.617  -1.698  -0.512  0.00  0.00    +0.016 A 
ATOM     34  C   UNL     1      11.034  -0.738   0.368  0.00  0.00    +0.008 A 
ATOM     35  C   UNL     1      10.595   0.542   0.211  0.00  0.00    +0.046 A 
ATOM     36  S   UNL     1       9.605   0.479  -1.145  0.00  0.00    -0.097 S 
ENDBRANCH  27  32
ENDBRANCH  21  22
ENDBRANCH   4  21
TORSDOF 6
