REMARK  Name = ZINC66483217
REMARK  9 active torsions:
REMARK  status: ('A' for Active; 'I' for Inactive)
REMARK    1  A    between atoms: C_1  and  C_2
REMARK    2  A    between atoms: C_2  and  C_3
REMARK    3  A    between atoms: C_6  and  C_8
REMARK    4  A    between atoms: C_8  and  N_9
REMARK    5  A    between atoms: N_9  and  C_10
REMARK    6  A    between atoms: C_10  and  C_11
REMARK    7  A    between atoms: C_11  and  C_13
REMARK    8  A    between atoms: C_11  and  O_24
REMARK    9  A    between atoms: C_13  and  N_14
REMARK                            x       y       z     vdW  Elec       q    Type
REMARK                         _______ _______ _______ _____ _____    ______ ____
ROOT
ATOM      1  C   UNL     1       1.405  -5.230  -6.690  0.00  0.00    +0.112 C 
ENDROOT
BRANCH   1   2
ATOM      2  O   UNL     1       0.040  -5.646  -6.603  0.00  0.00    -0.392 OA
ATOM      3  H   UNL     1      -0.521  -5.305  -7.313  0.00  0.00    +0.210 HD
ENDBRANCH   1   2
BRANCH   1   4
ATOM      4  C   UNL     1       1.478  -3.703  -6.630  0.00  0.00    -0.049 C 
BRANCH   4   5
ATOM      5  N   UNL     1       1.014  -3.242  -5.314  0.00  0.00    +0.384 N 
ATOM      6  H   UNL     1       1.601  -3.636  -4.594  0.00  0.00    -0.085 HD
ATOM      7  H   UNL     1       0.061  -3.539  -5.171  0.00  0.00    -0.085 HD
BRANCH   5   8
ATOM      8  C   UNL     1       1.085  -1.776  -5.256  0.00  0.00    -0.039 C 
BRANCH   8  12
ATOM      9  C   UNL     1      -0.667  -0.442  -1.693  0.00  0.00    -0.010 A 
ATOM     10  C   UNL     1       0.670  -0.656  -1.639  0.00  0.00    +0.011 A 
ATOM     11  C   UNL     1       1.324  -1.097  -2.774  0.00  0.00    +0.009 A 
ATOM     12  C   UNL     1       0.609  -1.303  -3.907  0.00  0.00    -0.027 A 
ATOM     13  S   UNL     1      -1.043  -0.875  -3.384  0.00  0.00    -0.100 S 
BRANCH   9  15
ATOM     14  C   UNL     1      -1.683   1.559  -0.638  0.00  0.00    +0.009 C 
ATOM     15  C   UNL     1      -1.597   0.032  -0.606  0.00  0.00    +0.039 C 
ENDBRANCH   9  15
ENDBRANCH   8  12
ENDBRANCH   5   8
ENDBRANCH   4   5
ENDBRANCH   1   4
BRANCH   1  16
ATOM     16  C   UNL     1       2.003  -5.718  -8.011  0.00  0.00    +0.114 C 
BRANCH  16  17
ATOM     17  N   UNL     1       1.973  -7.186  -8.049  0.00  0.00    -0.295 NA
ATOM     18  C   UNL     1       2.983  -7.758  -7.145  0.00  0.00    +0.089 C 
ATOM     19  C   UNL     1       2.671  -9.241  -6.944  0.00  0.00    +0.051 C 
ATOM     20  C   UNL     1       2.479  -9.912  -8.280  0.00  0.00    -0.042 A 
ATOM     21  C   UNL     1       2.543 -11.296  -8.340  0.00  0.00    +0.004 A 
ATOM     22  C   UNL     1       2.369 -11.950  -9.543  0.00  0.00    +0.000 A 
ATOM     23  C   UNL     1       2.128 -11.222 -10.694  0.00  0.00    +0.000 A 
ATOM     24  C   UNL     1       2.065  -9.844 -10.634  0.00  0.00    +0.005 A 
ATOM     25  C   UNL     1       2.243  -9.185  -9.427  0.00  0.00    -0.030 A 
ATOM     26  C   UNL     1       2.176  -7.680  -9.415  0.00  0.00    +0.120 C 
ENDBRANCH  16  17
ENDBRANCH   1  16
TORSDOF 8
