REMARK  Name = ZINC32915773
REMARK  7 active torsions:
REMARK  status: ('A' for Active; 'I' for Inactive)
REMARK    1  A    between atoms: C_1  and  O_2
REMARK    2  A    between atoms: O_2  and  C_3
REMARK    3  A    between atoms: C_6  and  S_9
REMARK    4  A    between atoms: S_9  and  N_12
REMARK    5  A    between atoms: C_18  and  C_20
REMARK    6  A    between atoms: N_26  and  C_27
REMARK    7  A    between atoms: C_27  and  C_28
REMARK                            x       y       z     vdW  Elec       q    Type
REMARK                         _______ _______ _______ _____ _____    ______ ____
ROOT
ATOM      1  N   UNL     1      -0.850   1.872  -1.381  0.00  0.00    -0.174 NA
ATOM      2  C   UNL     1      -1.845   0.968  -1.973  0.00  0.00    +0.128 C 
ATOM      3  C   UNL     1      -3.206   1.685  -1.987  0.00  0.00    +0.125 C 
ATOM      4  N   UNL     1      -3.025   3.020  -2.574  0.00  0.00    -0.294 N 
ATOM      5  C   UNL     1      -2.025   3.923  -1.986  0.00  0.00    +0.125 C 
ATOM      6  C   UNL     1      -0.669   3.207  -1.968  0.00  0.00    +0.128 C 
ATOM      7  C   UNL     1      -3.761   3.409  -3.634  0.00  0.00    +0.267 C 
ATOM      8  O   UNL     1      -3.675   4.548  -4.048  0.00  0.00    -0.268 OA
ENDROOT
BRANCH   7   9
ATOM      9  C   UNL     1      -4.678   2.447  -4.294  0.00  0.00    +0.149 A 
ATOM     10  C   UNL     1      -5.345   2.796  -5.470  0.00  0.00    +0.090 A 
ATOM     11  C   UNL     1      -6.193   1.861  -6.051  0.00  0.00    +0.136 A 
ATOM     12  N   UNL     1      -6.340   0.680  -5.477  0.00  0.00    -0.221 NA
ATOM     13  C   UNL     1      -5.692   0.378  -4.361  0.00  0.00    +0.216 A 
ATOM     14  N   UNL     1      -4.872   1.236  -3.778  0.00  0.00    -0.208 NA
ATOM     15  N   UNL     1      -5.875  -0.872  -3.793  0.00  0.00    -0.306 N 
ATOM     16 CL   UNL     1      -5.122   4.361  -6.188  0.00  0.00    -0.080 Cl
ATOM     17  H   UNL     1      -5.345  -1.138  -2.866  0.00  0.00    +0.149 HD
BRANCH  15  18
ATOM     18  C   UNL     1      -6.774  -1.840  -4.426  0.00  0.00    +0.178 C 
BRANCH  18  19
ATOM     19  C   UNL     1      -6.796  -3.110  -3.615  0.00  0.00    +0.122 A 
ATOM     20  C   UNL     1      -7.639  -3.384  -2.604  0.00  0.00    +0.046 A 
ATOM     21  C   UNL     1      -7.308  -4.675  -2.132  0.00  0.00    +0.041 A 
ATOM     22  C   UNL     1      -6.282  -5.113  -2.884  0.00  0.00    +0.195 A 
ATOM     23  O   UNL     1      -5.979  -4.163  -3.784  0.00  0.00    -0.466 OA
ENDBRANCH  18  19
ENDBRANCH  15  18
ENDBRANCH   7   9
BRANCH   1  24
ATOM     24  S   UNL     1       0.056   1.394  -0.080  0.00  0.00    +0.061 S 
ATOM     25  O   UNL     1       0.080  -0.027  -0.102  0.00  0.00    -0.153 OA
ATOM     26  O   UNL     1       1.242   2.176  -0.102  0.00  0.00    -0.153 OA
BRANCH  24  30
ATOM     27  C   UNL     1      -2.217   2.592   3.649  0.00  0.00    +0.120 A 
ATOM     28  C   UNL     1      -2.429   1.346   3.076  0.00  0.00    +0.047 A 
ATOM     29  C   UNL     1      -1.734   0.983   1.939  0.00  0.00    +0.032 A 
ATOM     30  C   UNL     1      -0.828   1.860   1.371  0.00  0.00    +0.106 A 
ATOM     31  C   UNL     1      -0.612   3.100   1.943  0.00  0.00    +0.032 A 
ATOM     32  C   UNL     1      -1.308   3.470   3.077  0.00  0.00    +0.047 A 
BRANCH  27  34
ATOM     33  C   UNL     1      -2.631   4.249   5.302  0.00  0.00    +0.277 C 
ATOM     34  O   UNL     1      -2.900   2.951   4.768  0.00  0.00    -0.495 OA
ENDBRANCH  27  34
ENDBRANCH  24  30
ENDBRANCH   1  24
TORSDOF 6
