REMARK  Name = ZINC08613392
REMARK  6 active torsions:
REMARK  status: ('A' for Active; 'I' for Inactive)
REMARK    1  A    between atoms: C_1  and  N_2
REMARK    2  A    between atoms: C_3  and  N_18
REMARK    3  A    between atoms: C_4  and  N_8
REMARK    4  A    between atoms: N_9  and  C_10
REMARK    5  A    between atoms: C_13  and  O_16
REMARK    6  A    between atoms: O_16  and  C_17
REMARK                            x       y       z     vdW  Elec       q    Type
REMARK                         _______ _______ _______ _____ _____    ______ ____
ROOT
ATOM      1  C   UNL     1      -1.401   0.589   0.006  0.00  0.00    +0.172 C 
ATOM      2  N   UNL     1      -0.246   1.489   0.007  0.00  0.00    -0.273 N 
ATOM      3  C   UNL     1       1.058   1.089  -0.002  0.00  0.00    +0.142 A 
ATOM      4  C   UNL     1       1.872   2.222  -0.003  0.00  0.00    +0.166 A 
ATOM      5  C   UNL     1       0.972   3.387   0.011  0.00  0.00    +0.148 A 
ATOM      6  N   UNL     1      -0.316   2.885   0.020  0.00  0.00    -0.280 N 
ATOM      7  H   UNL     1      -1.131   3.412   0.030  0.00  0.00    +0.189 HD
ATOM      8  H   UNL     1       0.716   5.412   0.024  0.00  0.00    +0.157 HD
ATOM      9  N   UNL     1       1.393   4.649   0.013  0.00  0.00    -0.382 N 
ATOM     10  H   UNL     1       2.398   4.855   0.006  0.00  0.00    +0.157 HD
ENDROOT
BRANCH   3  11
ATOM     11  N   UNL     1       1.494  -0.206  -0.012  0.00  0.00    -0.342 N 
ATOM     12  H   UNL     1       2.445  -0.398  -0.022  0.00  0.00    +0.144 HD
ATOM     13  H   UNL     1       0.853  -0.934  -0.010  0.00  0.00    +0.144 HD
ENDBRANCH   3  11
BRANCH   4  14
ATOM     14  N   UNL     1       3.220   2.245  -0.016  0.00  0.00    -0.142 NA
ATOM     15  N   UNL     1       3.846   3.373  -0.016  0.00  0.00    -0.149 NA
BRANCH  15  16
ATOM     16  C   UNL     1       5.213   3.397  -0.029  0.00  0.00    +0.086 A 
ATOM     17  C   UNL     1       5.935   2.200  -0.036  0.00  0.00    +0.033 A 
ATOM     18  C   UNL     1       7.313   2.228  -0.055  0.00  0.00    +0.048 A 
ATOM     19  C   UNL     1       7.984   3.444  -0.055  0.00  0.00    +0.120 A 
ATOM     20  C   UNL     1       7.271   4.636  -0.042  0.00  0.00    +0.048 A 
ATOM     21  C   UNL     1       5.893   4.617  -0.029  0.00  0.00    +0.033 A 
BRANCH  19  22
ATOM     22  O   UNL     1       9.343   3.468  -0.068  0.00  0.00    -0.495 OA
ATOM     23  C   UNL     1      10.013   2.206  -0.081  0.00  0.00    +0.277 C 
ENDBRANCH  19  22
ENDBRANCH  15  16
ENDBRANCH   4  14
TORSDOF 4
