REMARK  Name = ZINC39627142
REMARK  11 active torsions:
REMARK  status: ('A' for Active; 'I' for Inactive)
REMARK    1  A    between atoms: C_1  and  C_2
REMARK    2  A    between atoms: C_2  and  N_3
REMARK    3  A    between atoms: N_3  and  C_4
REMARK    4  A    between atoms: N_3  and  C_6
REMARK    5  A    between atoms: C_4  and  C_5
REMARK    6  A    between atoms: C_6  and  C_7
REMARK    7  A    between atoms: C_7  and  N_8
REMARK    8  A    between atoms: C_9  and  C_11
REMARK    9  A    between atoms: C_22  and  C_24
REMARK   10  A    between atoms: C_24  and  C_25
REMARK   11  A    between atoms: C_28  and  C_31
REMARK                            x       y       z     vdW  Elec       q    Type
REMARK                         _______ _______ _______ _____ _____    ______ ____
ROOT
ATOM      1  C   UNL     1      -3.307  -6.129   1.091  0.00  0.00    +0.100 C 
ATOM      2  C   UNL     1      -2.860  -6.495   2.524  0.00  0.00    +0.121 C 
ATOM      3  N   UNL     1      -4.098  -6.955   3.196  0.00  0.00    -0.300 N 
ATOM      4  C   UNL     1      -4.811  -7.739   2.159  0.00  0.00    +0.115 C 
ATOM      5  C   UNL     1      -4.586  -6.951   0.854  0.00  0.00    -0.004 C 
ATOM      6  C   UNL     1      -4.388  -7.911  -0.315  0.00  0.00    -0.010 C 
ATOM      7  C   UNL     1      -5.691  -8.674  -0.569  0.00  0.00    -0.082 C 
ATOM      8  N   UNL     1      -6.768  -7.723  -0.867  0.00  0.00    +0.379 N 
ATOM      9  C   UNL     1      -7.014  -6.864   0.297  0.00  0.00    -0.082 C 
ATOM     10  C   UNL     1      -5.768  -6.023   0.587  0.00  0.00    -0.010 C 
ATOM     11  C   UNL     1      -4.488  -6.715   4.464  0.00  0.00    +0.220 C 
ATOM     12  O   UNL     1      -5.538  -7.165   4.871  0.00  0.00    -0.275 OA
ATOM     13  H   UNL     1      -6.501  -7.151  -1.655  0.00  0.00    -0.086 HD
ATOM     14  H   UNL     1      -7.610  -8.230  -1.093  0.00  0.00    -0.086 HD
ENDROOT
BRANCH   1  16
ATOM     15  N   UNL     1      -3.551  -4.034  -0.201  0.00  0.00    -0.317 N 
ATOM     16  C   UNL     1      -3.605  -4.655   0.994  0.00  0.00    +0.218 C 
ATOM     17  O   UNL     1      -3.893  -4.028   1.991  0.00  0.00    -0.275 OA
ATOM     18  H   UNL     1      -3.321  -4.536  -0.999  0.00  0.00    +0.149 HD
BRANCH  15  19
ATOM     19  C   UNL     1      -3.841  -2.601  -0.295  0.00  0.00    +0.085 C 
BRANCH  19  20
ATOM     20  C   UNL     1      -3.711  -2.149  -1.751  0.00  0.00    -0.060 C 
BRANCH  20  21
ATOM     21  N   UNL     1      -4.097  -0.736  -1.862  0.00  0.00    +0.380 N 
ATOM     22  H   UNL     1      -5.021  -0.608  -1.476  0.00  0.00    -0.082 HD
BRANCH  21  24
ATOM     23  C   UNL     1      -3.608   1.549  -1.129  0.00  0.00    -0.017 C 
ATOM     24  C   UNL     1      -3.138   0.093  -1.119  0.00  0.00    -0.082 C 
ENDBRANCH  21  24
BRANCH  21  25
ATOM     25  C   UNL     1      -4.097  -0.337  -3.276  0.00  0.00    -0.082 C 
ATOM     26  C   UNL     1      -5.211  -1.080  -4.015  0.00  0.00    -0.017 C 
ENDBRANCH  21  25
ENDBRANCH  20  21
ENDBRANCH  19  20
ENDBRANCH  15  19
ENDBRANCH   1  16
BRANCH  11  27
ATOM     27  C   UNL     1      -3.619  -5.887   5.375  0.00  0.00    +0.131 C 
BRANCH  27  28
ATOM     28  C   UNL     1      -4.276  -5.769   6.726  0.00  0.00    -0.039 A 
ATOM     29  C   UNL     1      -5.147  -4.727   6.982  0.00  0.00    +0.004 A 
ATOM     30  C   UNL     1      -5.750  -4.619   8.221  0.00  0.00    +0.003 A 
ATOM     31  C   UNL     1      -5.483  -5.554   9.204  0.00  0.00    -0.050 A 
ATOM     32  C   UNL     1      -4.612  -6.596   8.948  0.00  0.00    +0.003 A 
ATOM     33  C   UNL     1      -4.013  -6.707   7.707  0.00  0.00    +0.004 A 
ATOM     34  C   UNL     1      -6.140  -5.436  10.555  0.00  0.00    +0.044 C 
ENDBRANCH  27  28
ENDBRANCH  11  27
TORSDOF 8
