REMARK  Name = ZINC59171157
REMARK  9 active torsions:
REMARK  status: ('A' for Active; 'I' for Inactive)
REMARK    1  A    between atoms: C_1  and  C_2
REMARK    2  A    between atoms: C_2  and  O_3
REMARK    3  A    between atoms: O_3  and  C_4
REMARK    4  A    between atoms: C_8  and  N_10
REMARK    5  A    between atoms: C_12  and  C_25
REMARK    6  A    between atoms: C_18  and  O_21
REMARK    7  A    between atoms: O_21  and  C_22
REMARK    8  A    between atoms: C_22  and  C_23
REMARK    9  A    between atoms: C_25  and  N_27
REMARK                            x       y       z     vdW  Elec       q    Type
REMARK                         _______ _______ _______ _____ _____    ______ ____
ROOT
ATOM      1  N   UNL     1       2.462  -3.909  -3.871  0.00  0.00    -0.325 N 
ATOM      2  C   UNL     1       3.141  -5.011  -3.638  0.00  0.00    +0.209 A 
ATOM      3  C   UNL     1       3.635  -5.851  -4.749  0.00  0.00    +0.064 A 
ATOM      4  C   UNL     1       4.762  -6.624  -4.504  0.00  0.00    +0.027 A 
ATOM      5  C   UNL     1       5.361  -6.539  -3.170  0.00  0.00    +0.023 A 
ATOM      6  C   UNL     1       6.634  -7.068  -2.921  0.00  0.00    +0.027 A 
ATOM      7  C   UNL     1       7.179  -6.971  -1.660  0.00  0.00    +0.022 A 
ATOM      8  C   UNL     1       6.475  -6.352  -0.636  0.00  0.00    +0.064 A 
ATOM      9  C   UNL     1       5.216  -5.826  -0.865  0.00  0.00    +0.164 A 
ATOM     10  C   UNL     1       4.646  -5.916  -2.131  0.00  0.00    +0.179 A 
ATOM     11  O   UNL     1       3.415  -5.410  -2.370  0.00  0.00    -0.435 OA
ATOM     12 BR   UNL     1       8.897  -7.684  -1.322  0.00  0.00    -0.050 Br
ATOM     13  H   UNL     1       2.360  -3.585  -4.780  0.00  0.00    +0.169 HD
ENDROOT
BRANCH   1  18
ATOM     14  C   UNL     1       1.452  -1.139  -1.711  0.00  0.00    +0.122 A 
ATOM     15  C   UNL     1       0.761  -1.827  -0.722  0.00  0.00    +0.046 A 
ATOM     16  C   UNL     1       0.638  -3.203  -0.786  0.00  0.00    +0.006 A 
ATOM     17  C   UNL     1       1.203  -3.902  -1.833  0.00  0.00    +0.026 A 
ATOM     18  C   UNL     1       1.901  -3.219  -2.832  0.00  0.00    +0.045 A 
ATOM     19  C   UNL     1       2.018  -1.829  -2.769  0.00  0.00    +0.071 A 
BRANCH  14  20
ATOM     20  O   UNL     1       1.569   0.213  -1.643  0.00  0.00    -0.492 OA
BRANCH  20  22
ATOM     21  C   UNL     1       1.196   2.370  -0.618  0.00  0.00    +0.048 C 
ATOM     22  C   UNL     1       0.961   0.861  -0.523  0.00  0.00    +0.225 C 
ENDBRANCH  20  22
ENDBRANCH  14  20
ENDBRANCH   1  18
BRANCH   3  23
ATOM     23  C   UNL     1       2.961  -5.867  -6.056  0.00  0.00    +0.082 C 
ATOM     24  S   UNL     1       1.488  -5.022  -6.271  0.00  0.00    -0.035 S 
BRANCH  23  25
ATOM     25  N   UNL     1       3.503  -6.548  -7.085  0.00  0.00    -0.352 N 
ATOM     26  H   UNL     1       4.338  -7.027  -6.963  0.00  0.00    +0.143 HD
ATOM     27  H   UNL     1       3.059  -6.559  -7.947  0.00  0.00    +0.143 HD
ENDBRANCH  23  25
ENDBRANCH   3  23
BRANCH   9  28
ATOM     28  O   UNL     1       4.535  -5.223   0.147  0.00  0.00    -0.489 OA
BRANCH  28  29
ATOM     29  C   UNL     1       5.181  -5.168   1.420  0.00  0.00    +0.226 C 
ATOM     30  C   UNL     1       4.270  -4.458   2.424  0.00  0.00    +0.048 C 
ENDBRANCH  28  29
ENDBRANCH   9  28
TORSDOF 7
