REMARK  Name = ZINC39964707
REMARK  8 active torsions:
REMARK  status: ('A' for Active; 'I' for Inactive)
REMARK    1  A    between atoms: C_1  and  N_2
REMARK    2  A    between atoms: N_2  and  C_3
REMARK    3  A    between atoms: C_3  and  N_5
REMARK    4  A    between atoms: C_6  and  C_30
REMARK    5  A    between atoms: C_9  and  C_11
REMARK    6  A    between atoms: C_13  and  C_24
REMARK    7  A    between atoms: C_35  and  O_36
REMARK    8  A    between atoms: O_36  and  C_37
REMARK                            x       y       z     vdW  Elec       q    Type
REMARK                         _______ _______ _______ _____ _____    ______ ____
ROOT
ATOM      1  C   UNL     1      -0.360  -5.038  -0.607  0.00  0.00    +0.152 C 
ATOM      2  C   UNL     1      -0.807  -4.524  -1.962  0.00  0.00    -0.014 C 
ATOM      3  C   UNL     1      -2.094  -4.874  -2.380  0.00  0.00    +0.002 A 
ATOM      4  C   UNL     1      -2.589  -4.439  -3.628  0.00  0.00    +0.030 A 
ATOM      5  C   UNL     1      -3.846  -4.795  -4.011  0.00  0.00    +0.042 A 
ATOM      6  C   UNL     1      -4.657  -5.582  -3.195  0.00  0.00    +0.022 A 
ATOM      7  C   UNL     1      -4.233  -6.031  -1.981  0.00  0.00    +0.025 A 
ATOM      8  C   UNL     1      -2.946  -5.703  -1.521  0.00  0.00    +0.041 A 
ATOM      9  N   UNL     1      -2.532  -6.146  -0.329  0.00  0.00    -0.284 N 
ATOM     10  C   UNL     1      -1.342  -5.882   0.173  0.00  0.00    +0.230 C 
ATOM     11  O   UNL     1      -1.034  -6.319   1.266  0.00  0.00    -0.274 OA
ATOM     12 CL   UNL     1      -4.451  -4.257  -5.547  0.00  0.00    -0.084 Cl
ATOM     13  H   UNL     1      -3.140  -6.691   0.195  0.00  0.00    +0.155 HD
ENDROOT
BRANCH   2  14
ATOM     14  C   UNL     1       0.042  -3.724  -2.768  0.00  0.00    -0.020 A 
ATOM     15  C   UNL     1      -0.325  -2.409  -3.093  0.00  0.00    +0.008 A 
ATOM     16  C   UNL     1       0.507  -1.640  -3.877  0.00  0.00    +0.001 A 
ATOM     17  C   UNL     1       1.702  -2.161  -4.343  0.00  0.00    +0.000 A 
ATOM     18  C   UNL     1       2.074  -3.458  -4.028  0.00  0.00    +0.001 A 
ATOM     19  C   UNL     1       1.260  -4.241  -3.241  0.00  0.00    +0.008 A 
ENDBRANCH   2  14
BRANCH   1  23
ATOM     20  N   UNL     1       0.218  -1.710   0.880  0.00  0.00    -0.197 N 
ATOM     21  C   UNL     1       0.812  -2.438   2.014  0.00  0.00    +0.139 C 
ATOM     22  C   UNL     1       0.675  -3.916   1.595  0.00  0.00    +0.083 C 
ATOM     23  C   UNL     1       0.003  -3.847   0.242  0.00  0.00    +0.055 C 
ATOM     24  N   UNL     1      -0.213  -2.635  -0.068  0.00  0.00    -0.185 NA
BRANCH  21  25
ATOM     25  C   UNL     1       2.262  -2.063   2.186  0.00  0.00    +0.017 A 
ATOM     26  C   UNL     1       2.948  -1.462   1.149  0.00  0.00    +0.009 A 
ATOM     27  C   UNL     1       4.278  -1.119   1.306  0.00  0.00    +0.001 A 
ATOM     28  C   UNL     1       4.924  -1.374   2.501  0.00  0.00    +0.004 A 
ATOM     29  C   UNL     1       4.242  -1.974   3.542  0.00  0.00    +0.046 A 
ATOM     30  C   UNL     1       2.906  -2.316   3.388  0.00  0.00    +0.125 A 
BRANCH  30  31
ATOM     31  O   UNL     1       2.231  -2.901   4.412  0.00  0.00    -0.495 OA
ATOM     32  C   UNL     1       2.958  -3.131   5.621  0.00  0.00    +0.277 C 
ENDBRANCH  30  31
ENDBRANCH  21  25
BRANCH  20  33
ATOM     33  C   UNL     1       0.105  -0.371   0.780  0.00  0.00    +0.153 C 
ATOM     34  S   UNL     1       0.687   0.634   2.038  0.00  0.00    -0.017 S 
BRANCH  33  36
ATOM     35  C   UNL     1      -0.589   1.633  -0.421  0.00  0.00    +0.127 C 
ATOM     36  N   UNL     1      -0.466   0.177  -0.311  0.00  0.00    -0.328 N 
ATOM     37  H   UNL     1      -0.795  -0.393  -1.024  0.00  0.00    +0.147 HD
ENDBRANCH  33  36
ENDBRANCH  20  33
ENDBRANCH   1  23
TORSDOF 6
