REMARK  Name = ZINC16569678
REMARK  11 active torsions:
REMARK  status: ('A' for Active; 'I' for Inactive)
REMARK    1  A    between atoms: C_1  and  C_2
REMARK    2  A    between atoms: C_2  and  C_3
REMARK    3  A    between atoms: C_3  and  C_4
REMARK    4  A    between atoms: C_4  and  N_5
REMARK    5  A    between atoms: N_5  and  C_6
REMARK    6  A    between atoms: C_6  and  C_7
REMARK    7  A    between atoms: C_21  and  C_23
REMARK    8  A    between atoms: N_30  and  C_31
REMARK    9  A    between atoms: C_36  and  O_37
REMARK   10  A    between atoms: O_37  and  C_38
REMARK   11  A    between atoms: C_38  and  C_39
REMARK                            x       y       z     vdW  Elec       q    Type
REMARK                         _______ _______ _______ _____ _____    ______ ____
ROOT
ATOM      1  C   UNL     1       0.766  -3.693  -1.394  0.00  0.00    +0.238 C 
ATOM      2  O   UNL     1       1.904  -3.965  -1.716  0.00  0.00    -0.273 OA
ATOM      3  N   UNL     1       0.528  -2.642  -0.584  0.00  0.00    -0.252 N 
ATOM      4  C   UNL     1       1.599  -1.921  -0.041  0.00  0.00    +0.061 A 
ATOM      5  C   UNL     1       2.808  -1.839  -0.716  0.00  0.00    +0.025 A 
ATOM      6  C   UNL     1       3.860  -1.133  -0.164  0.00  0.00    +0.002 A 
ATOM      7  C   UNL     1       3.716  -0.505   1.060  0.00  0.00    +0.002 A 
ATOM      8  C   UNL     1       2.514  -0.576   1.740  0.00  0.00    +0.028 A 
ATOM      9  C   UNL     1       1.457  -1.277   1.193  0.00  0.00    +0.068 A 
ATOM     10  N   UNL     1       0.215  -1.368   1.839  0.00  0.00    -0.316 N 
ATOM     11  C   UNL     1      -0.132  -1.063   3.112  0.00  0.00    +0.092 A 
ATOM     12  C   UNL     1      -1.448  -1.331   3.265  0.00  0.00    +0.020 A 
ATOM     13  C   UNL     1      -1.930  -1.821   2.031  0.00  0.00    +0.025 A 
ATOM     14  C   UNL     1      -0.901  -1.833   1.177  0.00  0.00    +0.052 A 
ATOM     15  C   UNL     1      -0.858  -2.255  -0.271  0.00  0.00    +0.194 C 
ENDROOT
BRANCH  15  16
ATOM     16  C   UNL     1      -1.278  -1.106  -1.151  0.00  0.00    +0.131 A 
ATOM     17  C   UNL     1      -2.495  -0.940  -1.700  0.00  0.00    +0.047 A 
ATOM     18  C   UNL     1      -2.448   0.262  -2.443  0.00  0.00    +0.041 A 
ATOM     19  C   UNL     1      -1.205   0.758  -2.304  0.00  0.00    +0.195 A 
ATOM     20  O   UNL     1      -0.503  -0.072  -1.516  0.00  0.00    -0.466 OA
ENDBRANCH  15  16
BRANCH   1  21
ATOM     21  C   UNL     1      -0.380  -4.531  -1.899  0.00  0.00    +0.205 C 
BRANCH  21  22
ATOM     22  N   UNL     1       0.144  -5.670  -2.655  0.00  0.00    -0.277 N 
ATOM     23  C   UNL     1       0.352  -5.560  -3.982  0.00  0.00    +0.307 C 
ATOM     24  O   UNL     1       0.105  -4.514  -4.551  0.00  0.00    -0.252 OA
ATOM     25  N   UNL     1       0.834  -6.608  -4.678  0.00  0.00    -0.266 N 
ATOM     26  H   UNL     1       0.967  -7.463  -4.239  0.00  0.00    +0.156 HD
BRANCH  25  27
ATOM     27  C   UNL     1       1.143  -6.465  -6.038  0.00  0.00    +0.077 A 
ATOM     28  C   UNL     1       0.377  -5.633  -6.841  0.00  0.00    +0.027 A 
ATOM     29  C   UNL     1       0.685  -5.489  -8.181  0.00  0.00    +0.002 A 
ATOM     30  C   UNL     1       1.751  -6.181  -8.726  0.00  0.00    +0.004 A 
ATOM     31  C   UNL     1       2.517  -7.016  -7.933  0.00  0.00    +0.047 A 
ATOM     32  C   UNL     1       2.216  -7.161  -6.588  0.00  0.00    +0.142 A 
BRANCH  32  33
ATOM     33  O   UNL     1       2.967  -7.983  -5.807  0.00  0.00    -0.490 OA
BRANCH  33  34
ATOM     34  C   UNL     1       4.053  -8.665  -6.439  0.00  0.00    +0.226 C 
ATOM     35  C   UNL     1       4.776  -9.536  -5.409  0.00  0.00    +0.048 C 
ENDBRANCH  33  34
ENDBRANCH  32  33
ENDBRANCH  25  27
BRANCH  22  36
ATOM     36  C   UNL     1       0.441  -6.931  -1.970  0.00  0.00    +0.110 C 
BRANCH  36  37
ATOM     37  C   UNL     1      -0.802  -7.823  -1.980  0.00  0.00    +0.019 C 
BRANCH  37  39
ATOM     38  C   UNL     1      -1.734 -10.031  -1.275  0.00  0.00    +0.004 C 
ATOM     39  C   UNL     1      -0.491  -9.139  -1.264  0.00  0.00    -0.002 C 
ENDBRANCH  37  39
ENDBRANCH  36  37
ENDBRANCH  22  36
ENDBRANCH  21  22
ENDBRANCH   1  21
TORSDOF 9
