REMARK  Name = ZINC33454890
REMARK  7 active torsions:
REMARK  status: ('A' for Active; 'I' for Inactive)
REMARK    1  A    between atoms: C_1  and  N_2
REMARK    2  A    between atoms: N_2  and  C_3
REMARK    3  A    between atoms: N_2  and  C_10
REMARK    4  A    between atoms: C_6  and  O_9
REMARK    5  A    between atoms: C_10  and  C_12
REMARK    6  A    between atoms: C_10  and  C_14
REMARK    7  A    between atoms: C_12  and  N_13
REMARK                            x       y       z     vdW  Elec       q    Type
REMARK                         _______ _______ _______ _____ _____    ______ ____
ROOT
ATOM      1  C   UNL     1      -1.296  -0.706  -0.009  0.00  0.00    +0.089 C 
ENDROOT
BRANCH   1   2
ATOM      2  C   UNL     1      -0.169   0.284   0.127  0.00  0.00    +0.008 A 
ATOM      3  C   UNL     1      -0.446   1.629   0.295  0.00  0.00    +0.047 A 
ATOM      4  C   UNL     1       0.590   2.538   0.421  0.00  0.00    +0.020 A 
ATOM      5  C   UNL     1       1.901   2.102   0.378  0.00  0.00    +0.003 A 
ATOM      6  C   UNL     1       2.178   0.759   0.210  0.00  0.00    +0.020 A 
ATOM      7  C   UNL     1       1.143  -0.151   0.084  0.00  0.00    +0.047 A 
ATOM      8 CL   UNL     1       1.492  -1.839  -0.126  0.00  0.00    -0.083 Cl
ATOM      9 CL   UNL     1      -2.092   2.177   0.342  0.00  0.00    -0.083 Cl
ENDBRANCH   1   2
BRANCH   1  11
ATOM     10  C   UNL     1      -0.918  -3.196   0.303  0.00  0.00    +0.130 C 
ATOM     11  N   UNL     1      -1.049  -1.852   0.870  0.00  0.00    -0.328 N 
BRANCH  11  12
ATOM     12  C   UNL     1      -0.937  -1.662   2.252  0.00  0.00    +0.030 A 
ATOM     13  C   UNL     1      -1.172  -0.409   2.802  0.00  0.00    +0.027 A 
ATOM     14  C   UNL     1      -1.068  -0.224   4.167  0.00  0.00    +0.047 A 
ATOM     15  C   UNL     1      -0.717  -1.286   4.987  0.00  0.00    +0.117 A 
ATOM     16  C   UNL     1      -0.476  -2.537   4.437  0.00  0.00    +0.047 A 
ATOM     17  C   UNL     1      -0.586  -2.725   3.073  0.00  0.00    +0.027 A 
BRANCH  15  18
ATOM     18  O   UNL     1      -0.609  -1.102   6.330  0.00  0.00    -0.507 OA
ATOM     19  H   UNL     1      -0.330  -1.944   6.980  0.00  0.00    +0.292 HD
ENDBRANCH  15  18
ENDBRANCH  11  12
ENDBRANCH   1  11
BRANCH   1  20
ATOM     20  C   UNL     1      -1.382  -1.186  -1.459  0.00  0.00    -0.059 C 
BRANCH  20  21
ATOM     21  N   UNL     1      -2.559  -2.049  -1.621  0.00  0.00    +0.380 N 
ATOM     22  H   UNL     1      -2.620  -2.394  -2.664  0.00  0.00    -0.090 HD
ATOM     23  H   UNL     1      -3.467  -1.482  -1.368  0.00  0.00    -0.090 HD
ATOM     24  H   UNL     1      -2.471  -2.918  -0.952  0.00  0.00    -0.090 HD
ENDBRANCH  20  21
ENDBRANCH   1  20
TORSDOF 6
