REMARK  Name = ZINC36548602
REMARK  9 active torsions:
REMARK  status: ('A' for Active; 'I' for Inactive)
REMARK    1  A    between atoms: C_1  and  O_2
REMARK    2  A    between atoms: O_2  and  C_3
REMARK    3  A    between atoms: C_7  and  C_9
REMARK    4  A    between atoms: C_9  and  C_11
REMARK    5  A    between atoms: C_9  and  N_20
REMARK    6  A    between atoms: N_13  and  C_14
REMARK    7  A    between atoms: N_20  and  C_21
REMARK    8  A    between atoms: C_28  and  C_30
REMARK    9  A    between atoms: C_34  and  N_36
REMARK                            x       y       z     vdW  Elec       q    Type
REMARK                         _______ _______ _______ _____ _____    ______ ____
ROOT
ATOM      1  C   UNL     1       1.503  -4.267   2.087  0.00  0.00    +0.198 C 
ENDROOT
BRANCH   1   6
ATOM      2  C   UNL     1       0.757  -0.563   2.136  0.00  0.00    +0.120 A 
ATOM      3  C   UNL     1       1.898  -0.061   2.746  0.00  0.00    +0.045 A 
ATOM      4  C   UNL     1       2.904  -0.921   3.139  0.00  0.00    +0.004 A 
ATOM      5  C   UNL     1       2.776  -2.282   2.926  0.00  0.00    +0.006 A 
ATOM      6  C   UNL     1       1.640  -2.784   2.318  0.00  0.00    -0.014 A 
ATOM      7  C   UNL     1       0.628  -1.928   1.928  0.00  0.00    +0.051 A 
BRANCH   2   9
ATOM      8  C   UNL     1      -0.034   1.675   1.994  0.00  0.00    +0.277 C 
ATOM      9  O   UNL     1      -0.235   0.281   1.748  0.00  0.00    -0.495 OA
ENDBRANCH   2   9
ENDBRANCH   1   6
BRANCH   1  10
ATOM     10  C   UNL     1       2.524  -4.713   1.072  0.00  0.00    +0.239 C 
ATOM     11  O   UNL     1       3.329  -5.574   1.359  0.00  0.00    -0.273 OA
ATOM     12  N   UNL     1       2.542  -4.156  -0.155  0.00  0.00    -0.311 N 
ATOM     13  H   UNL     1       1.898  -3.468  -0.385  0.00  0.00    +0.149 HD
BRANCH  12  14
ATOM     14  C   UNL     1       3.534  -4.590  -1.142  0.00  0.00    +0.073 C 
ATOM     15  C   UNL     1       4.836  -3.815  -0.931  0.00  0.00    +0.022 C 
ATOM     16  C   UNL     1       5.872  -4.268  -1.962  0.00  0.00    +0.002 C 
ATOM     17  C   UNL     1       5.341  -3.999  -3.371  0.00  0.00    +0.000 C 
ATOM     18  C   UNL     1       4.039  -4.774  -3.582  0.00  0.00    +0.002 C 
ATOM     19  C   UNL     1       3.003  -4.321  -2.551  0.00  0.00    +0.022 C 
ENDBRANCH  12  14
ENDBRANCH   1  10
BRANCH   1  20
ATOM     20  N   UNL     1       1.724  -4.980   3.347  0.00  0.00    -0.250 N 
ATOM     21  C   UNL     1       0.818  -5.878   3.781  0.00  0.00    +0.252 C 
ATOM     22  O   UNL     1      -0.134  -6.168   3.082  0.00  0.00    -0.270 OA
BRANCH  20  23
ATOM     23  C   UNL     1       2.876  -4.729   4.101  0.00  0.00    +0.056 A 
ATOM     24  C   UNL     1       3.990  -5.545   3.961  0.00  0.00    +0.025 A 
ATOM     25  C   UNL     1       5.126  -5.294   4.706  0.00  0.00    +0.002 A 
ATOM     26  C   UNL     1       5.154  -4.232   5.591  0.00  0.00    +0.002 A 
ATOM     27  C   UNL     1       4.046  -3.417   5.734  0.00  0.00    +0.022 A 
ATOM     28  C   UNL     1       2.909  -3.659   4.987  0.00  0.00    +0.062 A 
ATOM     29 CL   UNL     1       1.520  -2.631   5.161  0.00  0.00    -0.082 Cl
ENDBRANCH  20  23
BRANCH  21  30
ATOM     30  C   UNL     1       0.980  -6.511   5.107  0.00  0.00    +0.039 A 
ATOM     31  C   UNL     1       1.304  -5.733   6.220  0.00  0.00    +0.013 A 
ATOM     32  C   UNL     1       1.454  -6.330   7.455  0.00  0.00    +0.003 A 
ATOM     33  C   UNL     1       1.285  -7.697   7.591  0.00  0.00    +0.033 A 
ATOM     34  C   UNL     1       0.965  -8.474   6.492  0.00  0.00    +0.127 A 
ATOM     35  C   UNL     1       0.805  -7.888   5.253  0.00  0.00    +0.045 A 
BRANCH  34  36
ATOM     36  N   UNL     1       0.787  -9.935   6.647  0.00  0.00    +0.056 N 
ATOM     37  O   UNL     1       0.921 -10.448   7.733  0.00  0.00    -0.126 OA
ATOM     38  O   UNL     1       0.506 -10.615   5.687  0.00  0.00    -0.126 OA
ENDBRANCH  34  36
ENDBRANCH  21  30
ENDBRANCH   1  20
TORSDOF 8
