REMARK  Name = ZINC42868810
REMARK  3 active torsions:
REMARK  status: ('A' for Active; 'I' for Inactive)
REMARK    1  A    between atoms: C_3  and  N_9
REMARK    2  A    between atoms: N_9  and  N_10
REMARK    3  A    between atoms: N_13  and  C_14
REMARK                            x       y       z     vdW  Elec       q    Type
REMARK                         _______ _______ _______ _____ _____    ______ ____
ROOT
ATOM      1  N   UNL     1       3.565   3.527  -0.014  0.00  0.00    -0.220 N 
ATOM      2  C   UNL     1       4.723   4.217  -0.022  0.00  0.00    +0.316 C 
ATOM      3  O   UNL     1       4.707   5.432  -0.015  0.00  0.00    -0.251 OA
ATOM      4  N   UNL     1       5.899   3.558  -0.036  0.00  0.00    -0.294 N 
ATOM      5  H   UNL     1       2.719   4.001  -0.003  0.00  0.00    +0.174 HD
ATOM      6  H   UNL     1       5.912   2.588  -0.042  0.00  0.00    +0.151 HD
ENDROOT
BRANCH   4   7
ATOM      7  C   UNL     1       7.158   4.307  -0.045  0.00  0.00    +0.097 C 
ATOM      8  C   UNL     1       7.543   4.659  -1.492  0.00  0.00    +0.046 C 
ATOM      9  C   UNL     1       9.007   5.159  -1.541  0.00  0.00    +0.168 C 
ATOM     10  S   UNL     1       9.777   4.296  -0.110  0.00  0.00    -0.029 S 
ATOM     11  O   UNL     1      10.213   5.266   0.833  0.00  0.00    -0.174 OA
ATOM     12  O   UNL     1      10.697   3.328  -0.594  0.00  0.00    -0.174 OA
ATOM     13  C   UNL     1       8.294   3.433   0.559  0.00  0.00    +0.188 C 
ENDBRANCH   4   7
BRANCH   1  14
ATOM     14  N   UNL     1       3.583   2.127  -0.021  0.00  0.00    -0.262 N 
ATOM     15  H   UNL     1       4.430   1.653  -0.032  0.00  0.00    +0.170 HD
BRANCH  14  18
ATOM     16  C   UNL     1      -0.017   1.380   0.010  0.00  0.00    +0.040 A 
ATOM     17  C   UNL     1       1.169   2.088   0.002  0.00  0.00    +0.028 A 
ATOM     18  C   UNL     1       2.381   1.411  -0.013  0.00  0.00    +0.059 A 
ATOM     19  C   UNL     1       2.398   0.022  -0.021  0.00  0.00    +0.043 A 
ATOM     20  C   UNL     1       1.209  -0.682  -0.013  0.00  0.00    +0.055 A 
ATOM     21  C   UNL     1       0.002  -0.004   0.002  0.00  0.00    +0.125 A 
ATOM     22  F   UNL     1      -1.159  -0.694   0.010  0.00  0.00    -0.205 F 
ATOM     23 BR   UNL     1       4.047  -0.905  -0.042  0.00  0.00    -0.048 Br
ENDBRANCH  14  18
ENDBRANCH   1  14
TORSDOF 3
