REMARK  Name = ZINC62014746
REMARK  6 active torsions:
REMARK  status: ('A' for Active; 'I' for Inactive)
REMARK    1  A    between atoms: C_1  and  C_2
REMARK    2  A    between atoms: C_2  and  C_4
REMARK    3  A    between atoms: C_2  and  N_11
REMARK    4  A    between atoms: N_11  and  C_12
REMARK    5  A    between atoms: N_11  and  C_13
REMARK    6  A    between atoms: C_16  and  C_20
REMARK                            x       y       z     vdW  Elec       q    Type
REMARK                         _______ _______ _______ _____ _____    ______ ____
ROOT
ATOM      1  C   UNL     1      -1.742  -1.438  -1.012  0.00  0.00    +0.031 A 
ATOM      2  C   UNL     1      -0.829  -1.831  -1.987  0.00  0.00    +0.024 A 
ATOM      3  C   UNL     1      -1.203  -2.728  -2.961  0.00  0.00    +0.014 A 
ATOM      4  C   UNL     1      -2.501  -3.246  -2.972  0.00  0.00    +0.030 A 
ATOM      5  C   UNL     1      -3.416  -2.850  -1.991  0.00  0.00    +0.053 A 
ATOM      6  C   UNL     1      -3.034  -1.956  -1.015  0.00  0.00    +0.043 A 
ATOM      7 CL   UNL     1      -5.030  -3.490  -1.999  0.00  0.00    -0.083 Cl
ENDROOT
BRANCH   4   8
ATOM      8  C   UNL     1      -2.906  -4.207  -4.016  0.00  0.00    +0.096 C 
ATOM      9  N   UNL     1      -3.957  -3.946  -4.792  0.00  0.00    -0.387 N 
ATOM     10  N   UNL     1      -2.219  -5.338  -4.183  0.00  0.00    -0.345 N 
ATOM     11  H   UNL     1      -4.412  -3.092  -4.721  0.00  0.00    +0.157 HD
ATOM     12  H   UNL     1      -1.453  -5.528  -3.619  0.00  0.00    +0.144 HD
ATOM     13  H   UNL     1      -2.484  -5.970  -4.869  0.00  0.00    +0.144 HD
ATOM     14  H   UNL     1      -4.268  -4.609  -5.428  0.00  0.00    +0.157 HD
ENDBRANCH   4   8
BRANCH   1  15
ATOM     15  N   UNL     1      -1.361  -0.531  -0.029  0.00  0.00    -0.326 N 
ATOM     16  C   UNL     1      -2.348  -0.034   0.932  0.00  0.00    +0.130 C 
BRANCH  15  18
ATOM     17  C   UNL     1       0.146   1.032   1.097  0.00  0.00    +0.033 C 
ATOM     18  C   UNL     1       0.029  -0.073   0.045  0.00  0.00    +0.102 C 
BRANCH  18  19
ATOM     19  C   UNL     1       0.919  -1.228   0.428  0.00  0.00    -0.009 A 
ATOM     20  C   UNL     1       0.403  -2.289   1.147  0.00  0.00    +0.007 A 
ATOM     21  C   UNL     1       1.219  -3.349   1.498  0.00  0.00    +0.000 A 
ATOM     22  C   UNL     1       2.552  -3.346   1.130  0.00  0.00    +0.001 A 
ATOM     23  C   UNL     1       3.069  -2.285   0.411  0.00  0.00    +0.020 A 
ATOM     24  C   UNL     1       2.251  -1.228   0.055  0.00  0.00    +0.046 A 
ATOM     25 CL   UNL     1       2.898   0.102  -0.854  0.00  0.00    -0.083 Cl
ENDBRANCH  18  19
ENDBRANCH  15  18
ENDBRANCH   1  15
TORSDOF 4
