REMARK  Name = ZINC55888304
REMARK  8 active torsions:
REMARK  status: ('A' for Active; 'I' for Inactive)
REMARK    1  A    between atoms: C_4  and  O_7
REMARK    2  A    between atoms: O_7  and  C_8
REMARK    3  A    between atoms: C_11  and  N_14
REMARK    4  A    between atoms: C_15  and  C_17
REMARK    5  A    between atoms: C_17  and  N_18
REMARK    6  A    between atoms: N_18  and  C_19
REMARK    7  A    between atoms: C_24  and  N_25
REMARK    8  A    between atoms: C_28  and  O_31
REMARK                            x       y       z     vdW  Elec       q    Type
REMARK                         _______ _______ _______ _____ _____    ______ ____
ROOT
ATOM      1  C   UNL     1       3.989  -8.408   0.315  0.00  0.00    +0.198 C 
ENDROOT
BRANCH   1   3
ATOM      2  N   UNL     1       3.055  -6.134   0.034  0.00  0.00    -0.284 N 
ATOM      3  C   UNL     1       4.144  -6.914   0.186  0.00  0.00    +0.234 C 
ATOM      4  O   UNL     1       5.249  -6.415   0.218  0.00  0.00    -0.274 OA
ATOM      5  H   UNL     1       2.178  -6.538  -0.055  0.00  0.00    +0.155 HD
BRANCH   2   9
ATOM      6  C   UNL     1       3.459  -1.985  -0.052  0.00  0.00    +0.129 A 
ATOM      7  C   UNL     1       4.444  -2.789  -0.608  0.00  0.00    +0.048 A 
ATOM      8  C   UNL     1       4.311  -4.163  -0.580  0.00  0.00    +0.027 A 
ATOM      9  C   UNL     1       3.191  -4.740   0.006  0.00  0.00    +0.034 A 
ATOM     10  C   UNL     1       2.206  -3.935   0.562  0.00  0.00    +0.027 A 
ATOM     11  C   UNL     1       2.343  -2.561   0.538  0.00  0.00    +0.048 A 
BRANCH   6  12
ATOM     12  O   UNL     1       3.591  -0.632  -0.080  0.00  0.00    -0.456 OA
BRANCH  12  16
ATOM     13  C   UNL     1       2.887   1.309  -3.651  0.00  0.00    +0.000 A 
ATOM     14  C   UNL     1       3.147   2.041  -2.507  0.00  0.00    +0.004 A 
ATOM     15  C   UNL     1       3.382   1.393  -1.310  0.00  0.00    +0.046 A 
ATOM     16  C   UNL     1       3.358   0.007  -1.256  0.00  0.00    +0.128 A 
ATOM     17  C   UNL     1       3.097  -0.725  -2.405  0.00  0.00    +0.046 A 
ATOM     18  C   UNL     1       2.863  -0.073  -3.600  0.00  0.00    +0.004 A 
ENDBRANCH  12  16
ENDBRANCH   6  12
ENDBRANCH   2   9
ENDBRANCH   1   3
BRANCH   1  19
ATOM     19  N   UNL     1       5.309  -9.025   0.468  0.00  0.00    -0.334 N 
ATOM     20  H   UNL     1       6.105  -8.471   0.473  0.00  0.00    +0.147 HD
BRANCH  19  21
ATOM     21  C   UNL     1       5.420 -10.410   0.606  0.00  0.00    +0.047 A 
ATOM     22  C   UNL     1       4.293 -11.214   0.491  0.00  0.00    +0.025 A 
ATOM     23  C   UNL     1       4.407 -12.584   0.628  0.00  0.00    +0.002 A 
ATOM     24  C   UNL     1       5.642 -13.155   0.879  0.00  0.00    +0.002 A 
ATOM     25  C   UNL     1       6.765 -12.357   0.994  0.00  0.00    +0.023 A 
ATOM     26  C   UNL     1       6.659 -10.987   0.853  0.00  0.00    +0.035 A 
BRANCH  26  27
ATOM     27  N   UNL     1       7.797 -10.182   0.963  0.00  0.00    -0.392 NA
ATOM     28  C   UNL     1       8.456 -10.442   2.248  0.00  0.00    +0.087 C 
ATOM     29  C   UNL     1       9.655  -9.506   2.410  0.00  0.00    +0.048 C 
ATOM     30  C   UNL     1      10.646  -9.753   1.268  0.00  0.00    +0.117 C 
ATOM     31  C   UNL     1       9.928  -9.551  -0.070  0.00  0.00    +0.048 C 
ATOM     32  C   UNL     1       8.718 -10.485  -0.139  0.00  0.00    +0.087 C 
ATOM     33  H   UNL     1       7.526  -9.211   0.916  0.00  0.00    +0.126 HD
BRANCH  30  34
ATOM     34  O   UNL     1      11.733  -8.831   1.370  0.00  0.00    -0.392 OA
ATOM     35  H   UNL     1      12.399  -8.931   0.677  0.00  0.00    +0.210 HD
ENDBRANCH  30  34
ENDBRANCH  26  27
ENDBRANCH  19  21
ENDBRANCH   1  19
TORSDOF 8
