REMARK  Name = ZINC44737284
REMARK  7 active torsions:
REMARK  status: ('A' for Active; 'I' for Inactive)
REMARK    1  A    between atoms: C_1  and  C_2
REMARK    2  A    between atoms: C_9  and  C_11
REMARK    3  A    between atoms: C_11  and  C_13
REMARK    4  A    between atoms: C_11  and  N_14
REMARK    5  A    between atoms: C_15  and  C_17
REMARK    6  A    between atoms: C_28  and  C_30
REMARK    7  A    between atoms: C_34  and  C_37
REMARK                            x       y       z     vdW  Elec       q    Type
REMARK                         _______ _______ _______ _____ _____    ______ ____
ROOT
ATOM      1  C   UNL     1      -1.623  -8.782   1.003  0.00  0.00    +0.100 C 
ATOM      2  C   UNL     1      -0.558  -9.301   0.011  0.00  0.00    +0.121 C 
ATOM      3  N   UNL     1      -0.008 -10.516   0.655  0.00  0.00    -0.296 N 
ATOM      4  C   UNL     1      -1.187 -11.177   1.265  0.00  0.00    +0.115 C 
ATOM      5  C   UNL     1      -2.036 -10.017   1.821  0.00  0.00    -0.004 C 
ATOM      6  C   UNL     1      -1.726  -9.799   3.299  0.00  0.00    -0.010 C 
ATOM      7  C   UNL     1      -2.197 -11.017   4.099  0.00  0.00    -0.082 C 
ATOM      8  N   UNL     1      -3.639 -11.205   3.904  0.00  0.00    +0.379 N 
ATOM      9  C   UNL     1      -3.919 -11.505   2.495  0.00  0.00    -0.082 C 
ATOM     10  C   UNL     1      -3.521 -10.308   1.627  0.00  0.00    -0.010 C 
ATOM     11  C   UNL     1       1.275 -10.929   0.682  0.00  0.00    +0.252 C 
ATOM     12  O   UNL     1       1.571 -11.958   1.256  0.00  0.00    -0.270 OA
ATOM     13  H   UNL     1      -3.959 -11.970   4.479  0.00  0.00    -0.086 HD
ATOM     14  H   UNL     1      -4.126 -10.362   4.170  0.00  0.00    -0.086 HD
ENDROOT
BRANCH  11  15
ATOM     15  C   UNL     1       2.320 -10.131   0.013  0.00  0.00    +0.107 A 
ATOM     16  C   UNL     1       3.002  -9.132   0.717  0.00  0.00    +0.138 A 
ATOM     17  C   UNL     1       3.980  -8.389   0.083  0.00  0.00    +0.039 A 
ATOM     18  C   UNL     1       4.285  -8.631  -1.244  0.00  0.00    +0.009 A 
ATOM     19  C   UNL     1       3.617  -9.616  -1.948  0.00  0.00    -0.014 A 
ATOM     20  C   UNL     1       2.640 -10.372  -1.328  0.00  0.00    +0.141 A 
ATOM     21  F   UNL     1       1.992 -11.337  -2.015  0.00  0.00    -0.204 F 
ATOM     22  C   UNL     1       3.958  -9.869  -3.394  0.00  0.00    +0.047 C 
ATOM     23  F   UNL     1       2.704  -8.894   2.013  0.00  0.00    -0.205 F 
ENDBRANCH  11  15
BRANCH   1  25
ATOM     24  N   UNL     1      -1.820  -6.765   2.421  0.00  0.00    -0.305 N 
ATOM     25  C   UNL     1      -1.032  -7.728   1.904  0.00  0.00    +0.219 C 
ATOM     26  O   UNL     1       0.152  -7.748   2.164  0.00  0.00    -0.275 OA
ATOM     27  H   UNL     1      -2.768  -6.749   2.213  0.00  0.00    +0.149 HD
BRANCH  24  28
ATOM     28  C   UNL     1      -1.246  -5.741   3.297  0.00  0.00    +0.136 C 
ATOM     29  C   UNL     1      -0.668  -4.608   2.447  0.00  0.00    +0.036 C 
BRANCH  28  38
ATOM     30  C   UNL     1      -5.539  -2.734   8.580  0.00  0.00    +0.044 C 
ATOM     31  C   UNL     1      -5.086  -3.401   7.307  0.00  0.00    -0.048 A 
ATOM     32  C   UNL     1      -6.023  -3.774   6.354  0.00  0.00    +0.005 A 
ATOM     33  C   UNL     1      -5.633  -4.380   5.193  0.00  0.00    +0.030 A 
ATOM     34  C   UNL     1      -4.277  -4.629   4.959  0.00  0.00    +0.089 A 
ATOM     35  C   UNL     1      -3.329  -4.251   5.924  0.00  0.00    +0.067 A 
ATOM     36  C   UNL     1      -3.744  -3.632   7.096  0.00  0.00    +0.031 A 
ATOM     37  N   UNL     1      -2.100  -4.621   5.416  0.00  0.00    -0.340 N 
ATOM     38  C   UNL     1      -2.320  -5.193   4.201  0.00  0.00    +0.128 A 
ATOM     39  N   UNL     1      -3.593  -5.198   3.934  0.00  0.00    -0.231 NA
ATOM     40  H   UNL     1      -1.239  -4.496   5.845  0.00  0.00    +0.167 HD
ENDBRANCH  28  38
ENDBRANCH  24  28
ENDBRANCH   1  25
TORSDOF 4
