REMARK  Name = ZINC38547451
REMARK  6 active torsions:
REMARK  status: ('A' for Active; 'I' for Inactive)
REMARK    1  A    between atoms: C_1  and  C_2
REMARK    2  A    between atoms: N_8  and  C_9
REMARK    3  A    between atoms: C_9  and  C_11
REMARK    4  A    between atoms: C_9  and  C_20
REMARK    5  A    between atoms: C_24  and  N_25
REMARK    6  A    between atoms: C_26  and  C_28
REMARK                            x       y       z     vdW  Elec       q    Type
REMARK                         _______ _______ _______ _____ _____    ______ ____
ROOT
ATOM      1  C   UNL     1      -0.336  -2.085   3.892  0.00  0.00    +0.135 C 
ENDROOT
BRANCH   1   9
ATOM      2  C   UNL     1       2.931  -5.908   2.895  0.00  0.00    +0.044 C 
ATOM      3  C   UNL     1       1.910  -5.141   2.095  0.00  0.00    -0.046 A 
ATOM      4  C   UNL     1       1.716  -5.411   0.746  0.00  0.00    +0.021 A 
ATOM      5  C   UNL     1       0.772  -4.691   0.042  0.00  0.00    +0.084 A 
ATOM      6  N   UNL     1       0.056  -3.753   0.632  0.00  0.00    -0.350 N 
ATOM      7  C   UNL     1       0.212  -3.466   1.915  0.00  0.00    +0.097 A 
ATOM      8  C   UNL     1       1.141  -4.156   2.688  0.00  0.00    +0.045 A 
ATOM      9  N   UNL     1      -0.563  -2.470   2.497  0.00  0.00    -0.320 N 
ATOM     10  H   UNL     1      -1.255  -2.029   1.979  0.00  0.00    +0.148 HD
ATOM     11  H   UNL     1      -0.600  -3.262   0.114  0.00  0.00    +0.166 HD
ENDBRANCH   1   9
BRANCH   1  12
ATOM     12  C   UNL     1      -1.542  -1.347   4.413  0.00  0.00    -0.019 A 
ATOM     13  C   UNL     1      -2.257  -0.514   3.572  0.00  0.00    +0.009 A 
ATOM     14  C   UNL     1      -3.364   0.165   4.045  0.00  0.00    +0.050 A 
ATOM     15  C   UNL     1      -3.760   0.012   5.364  0.00  0.00    +0.166 A 
ATOM     16  C   UNL     1      -3.039  -0.826   6.211  0.00  0.00    +0.167 A 
ATOM     17  C   UNL     1      -1.934  -1.508   5.729  0.00  0.00    +0.055 A 
ATOM     18  O   UNL     1      -3.623  -0.806   7.445  0.00  0.00    -0.453 OA
ATOM     19  C   UNL     1      -4.461   0.365   7.455  0.00  0.00    +0.466 C 
ATOM     20  O   UNL     1      -4.795   0.558   6.067  0.00  0.00    -0.453 OA
ENDBRANCH   1  12
BRANCH   1  21
ATOM     21  C   UNL     1       0.875  -1.192   3.976  0.00  0.00    +0.009 A 
ATOM     22  C   UNL     1       1.814  -1.380   4.991  0.00  0.00    -0.030 A 
ATOM     23  C   UNL     1       2.879  -0.534   5.001  0.00  0.00    -0.005 A 
ATOM     24  S   UNL     1       2.593   0.526   3.609  0.00  0.00    -0.078 S 
ATOM     25  C   UNL     1       1.058  -0.204   3.060  0.00  0.00    +0.078 A 
ATOM     26  C   UNL     1       4.018  -0.515   5.968  0.00  0.00    +0.043 C 
ATOM     27  C   UNL     1       3.632  -1.367   7.186  0.00  0.00    +0.005 C 
ATOM     28  C   UNL     1       3.056  -2.697   6.693  0.00  0.00    +0.005 C 
ATOM     29  C   UNL     1       1.686  -2.469   6.053  0.00  0.00    +0.036 C 
BRANCH  25  30
ATOM     30  N   UNL     1       0.254   0.149   1.974  0.00  0.00    -0.273 N 
ATOM     31  C   UNL     1       0.588   1.202   1.203  0.00  0.00    +0.284 C 
ATOM     32  O   UNL     1       1.637   1.789   1.395  0.00  0.00    -0.266 OA
ATOM     33  H   UNL     1      -0.545  -0.364   1.775  0.00  0.00    +0.156 HD
BRANCH  31  34
ATOM     34  C   UNL     1      -0.312   1.642   0.132  0.00  0.00    +0.189 A 
ATOM     35  C   UNL     1      -0.056   2.628  -0.777  0.00  0.00    +0.054 A 
ATOM     36  C   UNL     1      -1.183   2.712  -1.610  0.00  0.00    +0.042 A 
ATOM     37  C   UNL     1      -2.066   1.784  -1.178  0.00  0.00    +0.196 A 
ATOM     38  O   UNL     1      -1.535   1.138  -0.132  0.00  0.00    -0.458 OA
ENDBRANCH  31  34
ENDBRANCH  25  30
ENDBRANCH   1  21
TORSDOF 5
