REMARK  Name = ZINC06650608
REMARK  6 active torsions:
REMARK  status: ('A' for Active; 'I' for Inactive)
REMARK    1  A    between atoms: C_1  and  C_2
REMARK    2  A    between atoms: C_2  and  N_46
REMARK    3  A    between atoms: C_8  and  C_10
REMARK    4  A    between atoms: C_10  and  C_27
REMARK    5  A    between atoms: N_11  and  N_12
REMARK    6  A    between atoms: N_12  and  C_13
REMARK                            x       y       z     vdW  Elec       q    Type
REMARK                         _______ _______ _______ _____ _____    ______ ____
ROOT
ATOM      1  N   UNL     1      -2.425   1.507   0.275  0.00  0.00    -0.236 N 
ATOM      2  H   UNL     1      -2.444   0.546   0.142  0.00  0.00    +0.174 HD
ENDROOT
BRANCH   1   3
ATOM      3  C   UNL     1      -1.209   2.169   0.393  0.00  0.00    +0.061 A 
ATOM      4  C   UNL     1      -1.170   3.560   0.473  0.00  0.00    +0.025 A 
ATOM      5  C   UNL     1       0.035   4.220   0.596  0.00  0.00    +0.003 A 
ATOM      6  C   UNL     1       1.228   3.514   0.637  0.00  0.00    +0.014 A 
ATOM      7  C   UNL     1       1.212   2.130   0.554  0.00  0.00    +0.055 A 
ATOM      8  C   UNL     1      -0.015   1.447   0.428  0.00  0.00    +0.075 A 
ATOM      9  C   UNL     1       0.001  -0.026   0.343  0.00  0.00    +0.273 A 
ATOM     10  O   UNL     1      -1.040  -0.645   0.234  0.00  0.00    -0.266 OA
ATOM     11  N   UNL     1       1.178  -0.680   0.386  0.00  0.00    -0.263 N 
ATOM     12  H   UNL     1       1.180  -1.649   0.330  0.00  0.00    +0.190 HD
ATOM     13  N   UNL     1       2.394  -0.007   0.511  0.00  0.00    -0.263 N 
ATOM     14  H   UNL     1       3.216  -0.521   0.539  0.00  0.00    +0.190 HD
ATOM     15  C   UNL     1       2.460   1.337   0.595  0.00  0.00    +0.271 A 
ATOM     16  O   UNL     1       3.536   1.892   0.704  0.00  0.00    -0.266 OA
ENDBRANCH   1   3
BRANCH   1  18
ATOM     17  C   UNL     1      -4.681   1.544   0.231  0.00  0.00    +0.219 C 
ATOM     18  N   UNL     1      -3.530   2.170   0.342  0.00  0.00    -0.166 NA
BRANCH  17  24
ATOM     19  C   UNL     1      -7.292   5.462  -0.560  0.00  0.00    -0.060 C 
ATOM     20  C   UNL     1      -7.146   4.422   0.556  0.00  0.00    +0.089 C 
ATOM     21  N   UNL     1      -5.919   3.648   0.315  0.00  0.00    -0.299 N 
ATOM     22  C   UNL     1      -4.666   4.383   0.088  0.00  0.00    +0.089 C 
ATOM     23  C   UNL     1      -4.911   5.425  -1.015  0.00  0.00    -0.060 C 
ATOM     24  C   UNL     1      -5.942   2.300   0.307  0.00  0.00    +0.277 C 
ATOM     25  O   UNL     1      -7.003   1.710   0.364  0.00  0.00    -0.267 OA
ATOM     26  N   UNL     1      -6.056   6.272  -0.619  0.00  0.00    +0.382 N 
ATOM     27  H   UNL     1      -5.872   6.667   0.311  0.00  0.00    -0.082 HD
BRANCH  26  29
ATOM     28  C   UNL     1      -5.026   8.322  -1.464  0.00  0.00    -0.017 C 
ATOM     29  C   UNL     1      -6.223   7.378  -1.585  0.00  0.00    -0.082 C 
ENDBRANCH  26  29
ENDBRANCH  17  24
BRANCH  17  30
ATOM     30  C   UNL     1      -4.709   0.125   0.034  0.00  0.00    +0.126 C 
ATOM     31  N   UNL     1      -4.730  -1.000  -0.122  0.00  0.00    -0.189 NA
ENDBRANCH  17  30
ENDBRANCH   1  18
TORSDOF 5
