REMARK  Name = ZINC12552332
REMARK  5 active torsions:
REMARK  status: ('A' for Active; 'I' for Inactive)
REMARK    1  A    between atoms: C_1  and  C_2
REMARK    2  A    between atoms: C_5  and  N_8
REMARK    3  A    between atoms: C_11  and  C_16
REMARK    4  A    between atoms: C_16  and  N_17
REMARK    5  A    between atoms: C_23  and  C_25
REMARK                            x       y       z     vdW  Elec       q    Type
REMARK                         _______ _______ _______ _____ _____    ______ ____
ROOT
ATOM      1  N   UNL     1      -0.203  -2.491  -2.507  0.00  0.00    -0.284 N 
ATOM      2  C   UNL     1      -0.338  -1.913  -1.260  0.00  0.00    +0.224 A 
ATOM      3  N   UNL     1      -0.327  -0.588  -1.134  0.00  0.00    -0.198 NA
ATOM      4  C   UNL     1      -0.451  -0.035   0.060  0.00  0.00    +0.150 A 
ATOM      5  N   UNL     1      -0.596  -0.794   1.132  0.00  0.00    -0.198 NA
ATOM      6  C   UNL     1      -0.613  -2.119   1.014  0.00  0.00    +0.217 A 
ATOM      7  N   UNL     1      -0.484  -2.680  -0.184  0.00  0.00    -0.181 NA
ATOM      8  N   UNL     1      -0.764  -2.911   2.134  0.00  0.00    -0.327 N 
ATOM      9  H   UNL     1      -0.168  -1.858  -3.406  0.00  0.00    +0.155 HD
ATOM     10  H   UNL     1      -0.778  -4.007   2.035  0.00  0.00    +0.145 HD
ATOM     11  H   UNL     1      -0.871  -2.447   3.125  0.00  0.00    +0.145 HD
ENDROOT
BRANCH   1  16
ATOM     12  C   UNL     1       0.174  -8.130  -2.997  0.00  0.00    +0.044 C 
ATOM     13  C   UNL     1       0.074  -6.632  -2.866  0.00  0.00    -0.050 A 
ATOM     14  C   UNL     1      -0.543  -5.893  -3.859  0.00  0.00    +0.005 A 
ATOM     15  C   UNL     1      -0.636  -4.520  -3.743  0.00  0.00    +0.023 A 
ATOM     16  C   UNL     1      -0.110  -3.881  -2.627  0.00  0.00    +0.034 A 
ATOM     17  C   UNL     1       0.514  -4.626  -1.635  0.00  0.00    +0.023 A 
ATOM     18  C   UNL     1       0.599  -5.999  -1.754  0.00  0.00    +0.005 A 
ENDBRANCH   1  16
BRANCH   4  19
ATOM     19  C   UNL     1      -0.433   1.466   0.198  0.00  0.00    +0.161 C 
BRANCH  19  20
ATOM     20  N   UNL     1       0.948   1.921   0.406  0.00  0.00    -0.292 NA
ATOM     21  C   UNL     1       1.473   1.439   1.691  0.00  0.00    +0.104 C 
ATOM     22  C   UNL     1       2.964   1.779   1.789  0.00  0.00    +0.123 C 
ATOM     23  N   UNL     1       3.131   3.221   1.552  0.00  0.00    -0.299 N 
ATOM     24  C   UNL     1       2.513   3.804   0.351  0.00  0.00    +0.123 C 
ATOM     25  C   UNL     1       1.040   3.384   0.309  0.00  0.00    +0.104 C 
ATOM     26  C   UNL     1       3.832   3.987   2.410  0.00  0.00    +0.213 C 
ATOM     27  O   UNL     1       4.408   3.476   3.348  0.00  0.00    -0.276 OA
ATOM     28  C   UNL     1       3.901   5.478   2.207  0.00  0.00    +0.109 C 
ENDBRANCH  19  20
ENDBRANCH   4  19
TORSDOF 3
