REMARK  Name = ZINC08793078
REMARK  10 active torsions:
REMARK  status: ('A' for Active; 'I' for Inactive)
REMARK    1  A    between atoms: C_1  and  C_2
REMARK    2  A    between atoms: C_2  and  O_3
REMARK    3  A    between atoms: O_3  and  C_4
REMARK    4  A    between atoms: C_4  and  C_6
REMARK    5  A    between atoms: C_10  and  N_11
REMARK    6  A    between atoms: C_12  and  C_14
REMARK    7  A    between atoms: C_15  and  C_16
REMARK    8  A    between atoms: C_26  and  C_27
REMARK    9  A    between atoms: C_26  and  C_28
REMARK   10  A    between atoms: C_26  and  N_54
REMARK                            x       y       z     vdW  Elec       q    Type
REMARK                         _______ _______ _______ _____ _____    ______ ____
ROOT
ATOM      1  C   UNL     1       0.658   3.039  -0.083  0.00  0.00    +0.091 A 
ATOM      2  C   UNL     1       1.085   3.787   1.085  0.00  0.00    -0.025 A 
ATOM      3  C   UNL     1       2.085   4.671   0.871  0.00  0.00    -0.021 A 
ATOM      4  S   UNL     1       2.453   4.529  -0.853  0.00  0.00    -0.079 S 
ATOM      5  C   UNL     1       1.301   3.309  -1.286  0.00  0.00    +0.086 A 
ATOM      6  C   UNL     1       2.715   5.565   1.894  0.00  0.00    -0.035 C 
ATOM      7  C   UNL     1       1.485   4.219   3.490  0.00  0.00    -0.073 C 
ATOM      8  C   UNL     1       0.502   3.615   2.483  0.00  0.00    +0.018 C 
ATOM      9  N   UNL     1       1.823   5.597   3.079  0.00  0.00    +0.384 N 
ATOM     10  H   UNL     1       0.958   6.094   2.833  0.00  0.00    -0.081 HD
ENDROOT
BRANCH   5  11
ATOM     11  N   UNL     1       1.075   2.741  -2.528  0.00  0.00    -0.276 N 
ATOM     12  C   UNL     1       1.805   3.133  -3.591  0.00  0.00    +0.241 C 
ATOM     13  O   UNL     1       2.663   3.987  -3.458  0.00  0.00    -0.270 OA
ATOM     14  H   UNL     1       0.392   2.061  -2.633  0.00  0.00    +0.156 HD
BRANCH  12  15
ATOM     15  C   UNL     1       1.567   2.533  -4.903  0.00  0.00    +0.068 C 
ATOM     16  C   UNL     1       2.382   2.827  -5.938  0.00  0.00    +0.014 C 
BRANCH  16  17
ATOM     17  C   UNL     1       3.631   3.568  -5.702  0.00  0.00    -0.007 A 
ATOM     18  C   UNL     1       4.503   3.171  -4.683  0.00  0.00    +0.009 A 
ATOM     19  C   UNL     1       5.671   3.870  -4.469  0.00  0.00    +0.001 A 
ATOM     20  C   UNL     1       5.984   4.963  -5.260  0.00  0.00    +0.001 A 
ATOM     21  C   UNL     1       5.128   5.363  -6.270  0.00  0.00    +0.020 A 
ATOM     22  C   UNL     1       3.956   4.671  -6.500  0.00  0.00    +0.048 A 
ATOM     23 CL   UNL     1       2.886   5.170  -7.773  0.00  0.00    -0.083 Cl
ENDBRANCH  16  17
ENDBRANCH  12  15
ENDBRANCH   5  11
BRANCH   9  24
ATOM     24  C   UNL     1       2.486   6.309   4.192  0.00  0.00    -0.074 C 
ATOM     25  C   UNL     1       3.791   5.607   4.574  0.00  0.00    -0.014 C 
ATOM     26  C   UNL     1       2.789   7.744   3.755  0.00  0.00    -0.014 C 
ENDBRANCH   9  24
BRANCH   1  27
ATOM     27  C   UNL     1      -0.413   2.044   0.001  0.00  0.00    +0.342 C 
ATOM     28  O   UNL     1      -0.146   0.883   0.248  0.00  0.00    -0.245 OA
BRANCH  27  29
ATOM     29  O   UNL     1      -1.694   2.413  -0.203  0.00  0.00    -0.461 OA
BRANCH  29  31
ATOM     30  C   UNL     1      -4.084   1.976  -0.369  0.00  0.00    +0.048 C 
ATOM     31  C   UNL     1      -2.702   1.372  -0.110  0.00  0.00    +0.229 C 
ENDBRANCH  29  31
ENDBRANCH  27  29
ENDBRANCH   1  27
TORSDOF 7
