REMARK  Name = ZINC23968274
REMARK  9 active torsions:
REMARK  status: ('A' for Active; 'I' for Inactive)
REMARK    1  A    between atoms: C_1  and  C_2
REMARK    2  A    between atoms: C_2  and  N_3
REMARK    3  A    between atoms: C_7  and  S_28
REMARK    4  A    between atoms: C_11  and  C_12
REMARK    5  A    between atoms: C_12  and  N_13
REMARK    6  A    between atoms: N_13  and  C_14
REMARK    7  A    between atoms: N_13  and  C_15
REMARK    8  A    between atoms: C_15  and  C_16
REMARK    9  A    between atoms: S_28  and  N_31
REMARK                            x       y       z     vdW  Elec       q    Type
REMARK                         _______ _______ _______ _____ _____    ______ ____
ROOT
ATOM      1  N   UNL     1      -6.686  -0.806   0.326  0.00  0.00    -0.327 N 
ATOM      2  C   UNL     1      -7.446   0.099  -0.388  0.00  0.00    +0.069 A 
ATOM      3  C   UNL     1      -8.359   1.084  -0.037  0.00  0.00    +0.030 A 
ATOM      4  C   UNL     1      -8.968   1.832  -1.022  0.00  0.00    +0.030 A 
ATOM      5  C   UNL     1      -8.674   1.607  -2.360  0.00  0.00    +0.108 A 
ATOM      6  C   UNL     1      -7.778   0.642  -2.723  0.00  0.00    +0.058 A 
ATOM      7  C   UNL     1      -7.148  -0.129  -1.742  0.00  0.00    +0.091 A 
ATOM      8  N   UNL     1      -6.237  -1.135  -1.784  0.00  0.00    -0.231 NA
ATOM      9  C   UNL     1      -5.964  -1.528  -0.574  0.00  0.00    +0.125 A 
ENDROOT
BRANCH   5  10
ATOM     10  S   UNL     1      -9.465   2.575  -3.601  0.00  0.00    +0.061 S 
ATOM     11  O   UNL     1      -9.434   1.807  -4.796  0.00  0.00    -0.153 OA
ATOM     12  O   UNL     1     -10.677   3.052  -3.034  0.00  0.00    -0.153 OA
BRANCH  10  13
ATOM     13  N   UNL     1      -8.512   3.903  -3.867  0.00  0.00    -0.177 NA
ATOM     14  C   UNL     1      -8.717   5.137  -3.097  0.00  0.00    +0.109 C 
ATOM     15  C   UNL     1      -7.379   5.543  -2.459  0.00  0.00    +0.017 C 
ATOM     16  C   UNL     1      -6.313   5.653  -3.551  0.00  0.00    +0.003 C 
ATOM     17  C   UNL     1      -6.130   4.293  -4.228  0.00  0.00    +0.017 C 
ATOM     18  C   UNL     1      -7.450   3.872  -4.882  0.00  0.00    +0.109 C 
ENDBRANCH  10  13
ENDBRANCH   5  10
BRANCH   1  20
ATOM     19  C   UNL     1      -5.577  -0.047   2.370  0.00  0.00    +0.027 C 
ATOM     20  C   UNL     1      -6.658  -0.957   1.783  0.00  0.00    +0.120 C 
ENDBRANCH   1  20
BRANCH   9  21
ATOM     21  C   UNL     1      -4.996  -2.627  -0.221  0.00  0.00    +0.159 C 
BRANCH  21  22
ATOM     22  N   UNL     1      -5.727  -3.890  -0.055  0.00  0.00    -0.291 NA
ATOM     23  C   UNL     1      -6.208  -4.393  -1.349  0.00  0.00    +0.105 C 
BRANCH  22  24
ATOM     24  C   UNL     1      -4.898  -4.894   0.624  0.00  0.00    +0.158 C 
BRANCH  24  25
ATOM     25  C   UNL     1      -5.749  -6.081   0.995  0.00  0.00    +0.124 A 
ATOM     26  N   UNL     1      -5.157  -7.123   1.637  0.00  0.00    -0.309 N 
ATOM     27  H   UNL     1      -4.083  -7.085   1.872  0.00  0.00    +0.170 HD
ATOM     28  C   UNL     1      -5.878  -8.212   1.992  0.00  0.00    +0.259 A 
ATOM     29  O   UNL     1      -5.361  -9.152   2.566  0.00  0.00    -0.267 OA
ATOM     30  C   UNL     1      -7.310  -8.215   1.655  0.00  0.00    +0.065 A 
ATOM     31  C   UNL     1      -8.139  -9.288   1.976  0.00  0.00    +0.015 A 
ATOM     32  C   UNL     1      -9.474  -9.239   1.637  0.00  0.00    +0.001 A 
ATOM     33  C   UNL     1      -9.995  -8.131   0.981  0.00  0.00    +0.002 A 
ATOM     34  C   UNL     1      -9.193  -7.061   0.655  0.00  0.00    +0.028 A 
ATOM     35  C   UNL     1      -7.837  -7.088   0.988  0.00  0.00    +0.078 A 
ATOM     36  N   UNL     1      -7.009  -6.056   0.686  0.00  0.00    -0.232 NA
ENDBRANCH  24  25
ENDBRANCH  22  24
ENDBRANCH  21  22
ENDBRANCH   9  21
TORSDOF 7
