REMARK  Name = ZINC46857508
REMARK  6 active torsions:
REMARK  status: ('A' for Active; 'I' for Inactive)
REMARK    1  A    between atoms: C_1  and  C_2
REMARK    2  A    between atoms: N_7  and  C_8
REMARK    3  A    between atoms: C_8  and  C_9
REMARK    4  A    between atoms: C_9  and  N_10
REMARK    5  A    between atoms: C_11  and  C_13
REMARK    6  A    between atoms: C_13  and  N_14
REMARK                            x       y       z     vdW  Elec       q    Type
REMARK                         _______ _______ _______ _____ _____    ______ ____
ROOT
ATOM      1  N   UNL     1       0.241   0.185   4.833  0.00  0.00    -0.316 N 
ATOM      2  C   UNL     1       0.783  -0.045   6.046  0.00  0.00    +0.231 C 
ATOM      3  O   UNL     1       1.801  -0.697   6.141  0.00  0.00    -0.274 OA
ATOM      4  H   UNL     1      -0.573   0.707   4.757  0.00  0.00    +0.149 HD
ENDROOT
BRANCH   1   5
ATOM      5  C   UNL     1       0.881  -0.353   3.631  0.00  0.00    +0.086 C 
BRANCH   5   6
ATOM      6  C   UNL     1       0.070   0.050   2.397  0.00  0.00    -0.059 C 
BRANCH   6  13
ATOM      7  C   UNL     1      -0.019   1.526   0.010  0.00  0.00    -0.013 C 
ATOM      8  C   UNL     1       0.002  -0.004   0.002  0.00  0.00    -0.072 C 
ATOM      9  C   UNL     1       0.715  -0.497  -1.259  0.00  0.00    -0.016 C 
ATOM     10  C   UNL     1       0.733  -2.028  -1.263  0.00  0.00    -0.003 C 
ATOM     11  C   UNL     1       1.410  -2.524   0.018  0.00  0.00    -0.019 C 
ATOM     12  C   UNL     1       0.671  -1.956   1.232  0.00  0.00    -0.078 C 
ATOM     13  N   UNL     1       0.712  -0.490   1.191  0.00  0.00    +0.382 N 
ATOM     14  H   UNL     1       1.672  -0.182   1.158  0.00  0.00    -0.081 HD
ENDBRANCH   6  13
ENDBRANCH   5   6
ENDBRANCH   1   5
BRANCH   2  15
ATOM     15  C   UNL     1       0.124   0.509   7.283  0.00  0.00    +0.213 C 
BRANCH  15  16
ATOM     16  N   UNL     1       0.901   0.123   8.464  0.00  0.00    -0.215 N 
ATOM     17  C   UNL     1       0.701  -1.011   9.166  0.00  0.00    +0.247 C 
ATOM     18  O   UNL     1      -0.124  -1.872   8.949  0.00  0.00    -0.273 OA
ATOM     19  C   UNL     1       1.722  -0.982  10.280  0.00  0.00    +0.113 C 
ATOM     20  C   UNL     1       2.667  -2.173  10.166  0.00  0.00    +0.035 C 
ATOM     21  C   UNL     1       3.711  -2.108  11.284  0.00  0.00    +0.003 C 
ATOM     22  C   UNL     1       3.004  -2.124  12.641  0.00  0.00    +0.000 C 
ATOM     23  C   UNL     1       2.078  -0.911  12.750  0.00  0.00    +0.003 C 
ATOM     24  C   UNL     1       1.028  -0.972  11.637  0.00  0.00    +0.035 C 
ATOM     25  N   UNL     1       2.449   0.275  10.064  0.00  0.00    -0.285 N 
ATOM     26  C   UNL     1       1.902   0.850   8.976  0.00  0.00    +0.310 C 
ATOM     27  O   UNL     1       2.272   1.911   8.514  0.00  0.00    -0.252 OA
ATOM     28  H   UNL     1       3.182   0.622  10.598  0.00  0.00    +0.151 HD
ENDBRANCH  15  16
ENDBRANCH   2  15
TORSDOF 5
