REMARK  Name = ZINC37052948
REMARK  8 active torsions:
REMARK  status: ('A' for Active; 'I' for Inactive)
REMARK    1  A    between atoms: C_1  and  N_2
REMARK    2  A    between atoms: N_2  and  C_3
REMARK    3  A    between atoms: N_2  and  C_4
REMARK    4  A    between atoms: C_4  and  C_5
REMARK    5  A    between atoms: C_5  and  N_6
REMARK    6  A    between atoms: N_6  and  S_7
REMARK    7  A    between atoms: S_7  and  C_10
REMARK    8  A    between atoms: C_11  and  N_18
REMARK                            x       y       z     vdW  Elec       q    Type
REMARK                         _______ _______ _______ _____ _____    ______ ____
ROOT
ATOM      1  S   UNL     1      -3.235  -4.587  -0.863  0.00  0.00    +0.061 S 
ATOM      2  O   UNL     1      -4.609  -4.876  -0.647  0.00  0.00    -0.153 OA
ATOM      3  O   UNL     1      -2.571  -4.906  -2.078  0.00  0.00    -0.153 OA
ENDROOT
BRANCH   1   4
ATOM      4  C   UNL     1      -2.343  -5.394   0.425  0.00  0.00    +0.144 A 
ATOM      5  C   UNL     1      -0.990  -5.669   0.267  0.00  0.00    +0.054 A 
ATOM      6  C   UNL     1      -0.290  -6.304   1.284  0.00  0.00    +0.044 A 
ATOM      7  C   UNL     1      -0.940  -6.662   2.450  0.00  0.00    +0.044 A 
ATOM      8  C   UNL     1      -2.287  -6.387   2.605  0.00  0.00    +0.042 A 
ATOM      9  C   UNL     1      -2.986  -5.749   1.595  0.00  0.00    +0.070 A 
ATOM     10 CL   UNL     1      -4.675  -5.400   1.796  0.00  0.00    -0.081 Cl
ATOM     11 CL   UNL     1      -0.065  -7.457   3.721  0.00  0.00    -0.083 Cl
BRANCH   5  12
ATOM     12  N   UNL     1      -0.336  -5.307  -0.913  0.00  0.00    -0.356 N 
ATOM     13  H   UNL     1      -0.736  -4.655  -1.509  0.00  0.00    +0.142 HD
ATOM     14  H   UNL     1       0.519  -5.707  -1.136  0.00  0.00    +0.142 HD
ENDBRANCH   5  12
ENDBRANCH   1   4
BRANCH   1  15
ATOM     15  N   UNL     1      -3.053  -2.957  -0.638  0.00  0.00    -0.192 NA
ATOM     16  H   UNL     1      -3.822  -2.408  -0.421  0.00  0.00    +0.148 HD
BRANCH  15  17
ATOM     17  C   UNL     1      -1.728  -2.343  -0.766  0.00  0.00    +0.087 C 
BRANCH  17  18
ATOM     18  C   UNL     1      -1.879  -0.825  -0.885  0.00  0.00    -0.063 C 
BRANCH  18  20
ATOM     19  C   UNL     1      -0.701   1.232  -1.248  0.00  0.00    -0.097 C 
ATOM     20  N   UNL     1      -0.551  -0.210  -1.014  0.00  0.00    +0.377 N 
ATOM     21  C   UNL     1       0.212  -0.429   0.222  0.00  0.00    -0.097 C 
ATOM     22  H   UNL     1      -0.061  -0.628  -1.791  0.00  0.00    -0.083 HD
ENDBRANCH  18  20
ENDBRANCH  17  18
ENDBRANCH  15  17
ENDBRANCH   1  15
TORSDOF 6
