REMARK  Name = ZINC32913417
REMARK  7 active torsions:
REMARK  status: ('A' for Active; 'I' for Inactive)
REMARK    1  A    between atoms: C_3  and  N_11
REMARK    2  A    between atoms: C_5  and  S_7
REMARK    3  A    between atoms: S_7  and  N_10
REMARK    4  A    between atoms: C_12  and  C_14
REMARK    5  A    between atoms: C_14  and  N_15
REMARK    6  A    between atoms: N_15  and  C_16
REMARK    7  A    between atoms: N_15  and  C_22
REMARK                            x       y       z     vdW  Elec       q    Type
REMARK                         _______ _______ _______ _____ _____    ______ ____
ROOT
ATOM      1  N   UNL     1      -2.822   1.136  -0.197  0.00  0.00    -0.287 N 
ATOM      2  C   UNL     1      -2.663  -0.202  -0.229  0.00  0.00    +0.201 C 
ATOM      3  O   UNL     1      -1.548  -0.680  -0.227  0.00  0.00    -0.278 OA
ATOM      4  H   UNL     1      -3.831   1.568  -0.123  0.00  0.00    +0.155 HD
ENDROOT
BRANCH   1   7
ATOM      5  C   UNL     1       0.587   2.425   0.289  0.00  0.00    +0.004 A 
ATOM      6  C   UNL     1      -0.517   1.597   0.355  0.00  0.00    +0.023 A 
ATOM      7  C   UNL     1      -1.704   1.975  -0.257  0.00  0.00    +0.035 A 
ATOM      8  C   UNL     1      -1.782   3.191  -0.924  0.00  0.00    +0.051 A 
ATOM      9  C   UNL     1      -0.675   4.014  -0.987  0.00  0.00    +0.107 A 
ATOM     10  C   UNL     1       0.508   3.632  -0.381  0.00  0.00    +0.028 A 
BRANCH   9  11
ATOM     11  S   UNL     1      -0.770   5.553  -1.839  0.00  0.00    +0.056 S 
ATOM     12  O   UNL     1      -2.141   5.926  -1.853  0.00  0.00    -0.153 OA
ATOM     13  O   UNL     1       0.240   6.386  -1.288  0.00  0.00    -0.153 OA
BRANCH  11  14
ATOM     14  N   UNL     1      -0.342   5.268  -3.413  0.00  0.00    -0.204 NA
ATOM     15  H   UNL     1      -0.389   6.208  -3.982  0.00  0.00    +0.144 HD
ATOM     16  H   UNL     1      -1.035   4.537  -3.856  0.00  0.00    +0.144 HD
ENDBRANCH  11  14
ENDBRANCH   9  11
ENDBRANCH   1   7
BRANCH   2  17
ATOM     17  C   UNL     1      -3.869  -1.104  -0.268  0.00  0.00    +0.020 C 
BRANCH  17  18
ATOM     18  N   UNL     1      -3.436  -2.505  -0.187  0.00  0.00    +0.389 N 
ATOM     19  H   UNL     1      -2.691  -2.583   0.618  0.00  0.00    -0.080 HD
BRANCH  18  20
ATOM     20  C   UNL     1      -4.562  -3.385   0.153  0.00  0.00    -0.068 C 
ATOM     21  C   UNL     1      -5.656  -3.248  -0.907  0.00  0.00    -0.015 C 
ATOM     22  C   UNL     1      -6.828  -4.165  -0.552  0.00  0.00    -0.002 C 
ATOM     23  C   UNL     1      -7.390  -3.768   0.814  0.00  0.00    -0.000 C 
ATOM     24  C   UNL     1      -6.296  -3.905   1.875  0.00  0.00    -0.002 C 
ATOM     25  C   UNL     1      -5.124  -2.988   1.520  0.00  0.00    -0.015 C 
ENDBRANCH  18  20
BRANCH  18  26
ATOM     26  C   UNL     1      -2.795  -2.931  -1.439  0.00  0.00    -0.068 C 
ATOM     27  C   UNL     1      -3.297  -4.224  -2.085  0.00  0.00    -0.017 C 
ATOM     28  C   UNL     1      -1.931  -4.193  -1.395  0.00  0.00    -0.017 C 
ENDBRANCH  18  26
ENDBRANCH  17  18
ENDBRANCH   2  17
TORSDOF 7
