REMARK  Name = ZINC63486107
REMARK  5 active torsions:
REMARK  status: ('A' for Active; 'I' for Inactive)
REMARK    1  A    between atoms: C_5  and  N_7
REMARK    2  A    between atoms: N_7  and  C_8
REMARK    3  A    between atoms: C_8  and  N_10
REMARK    4  A    between atoms: N_10  and  C_11
REMARK    5  A    between atoms: C_11  and  C_12
REMARK                            x       y       z     vdW  Elec       q    Type
REMARK                         _______ _______ _______ _____ _____    ______ ____
ROOT
ATOM      1  C   UNL     1      -1.136  -4.870   0.300  0.00  0.00    +0.138 C 
ENDROOT
BRANCH   1   2
ATOM      2  C   UNL     1      -0.829  -6.343   0.389  0.00  0.00    -0.030 A 
ATOM      3  C   UNL     1      -0.749  -7.095  -0.792  0.00  0.00    +0.007 A 
ATOM      4  C   UNL     1      -0.474  -8.417  -0.795  0.00  0.00    +0.026 A 
ATOM      5  C   UNL     1      -0.253  -9.110   0.426  0.00  0.00    +0.043 A 
ATOM      6  N   UNL     1       0.003 -10.374   0.678  0.00  0.00    -0.378 N 
ATOM      7  C   UNL     1       0.222 -10.524   2.114  0.00  0.00    +0.106 C 
ATOM      8  C   UNL     1      -0.719 -11.556   2.740  0.00  0.00    +0.029 C 
ATOM      9  C   UNL     1      -0.622 -11.442   4.264  0.00  0.00    +0.003 C 
ATOM     10  C   UNL     1      -1.144 -10.091   4.750  0.00  0.00    +0.004 C 
ATOM     11  C   UNL     1      -0.257  -8.958   4.206  0.00  0.00    +0.033 C 
ATOM     12  C   UNL     1      -0.115  -9.171   2.717  0.00  0.00    -0.038 C 
ATOM     13  C   UNL     1      -0.340  -8.339   1.691  0.00  0.00    -0.001 A 
ATOM     14  C   UNL     1      -0.633  -6.903   1.603  0.00  0.00    +0.015 A 
ATOM     15  H   UNL     1       0.039 -11.087   0.021  0.00  0.00    +0.160 HD
ENDBRANCH   1   2
BRANCH   1  16
ATOM     16  N   UNL     1       0.115  -4.117   0.182  0.00  0.00    -0.322 N 
ATOM     17  H   UNL     1       0.964  -4.586   0.170  0.00  0.00    +0.148 HD
BRANCH  16  18
ATOM     18  C   UNL     1       0.086  -2.773   0.088  0.00  0.00    +0.135 C 
ATOM     19  S   UNL     1      -1.413  -1.946   0.108  0.00  0.00    -0.019 S 
BRANCH  18  20
ATOM     20  N   UNL     1       1.237  -2.080  -0.021  0.00  0.00    -0.296 N 
ATOM     21  H   UNL     1       2.080  -2.551  -0.113  0.00  0.00    +0.154 HD
BRANCH  20  26
ATOM     22  C   UNL     1       0.416   1.372   0.943  0.00  0.00    +0.002 A 
ATOM     23  C   UNL     1       1.173   2.086   0.032  0.00  0.00    +0.002 A 
ATOM     24  C   UNL     1       1.950   1.421  -0.898  0.00  0.00    +0.022 A 
ATOM     25  C   UNL     1       1.974   0.039  -0.918  0.00  0.00    +0.062 A 
ATOM     26  C   UNL     1       1.216  -0.681  -0.003  0.00  0.00    +0.051 A 
ATOM     27  C   UNL     1       0.435  -0.009   0.928  0.00  0.00    +0.025 A 
ATOM     28 CL   UNL     1       2.951  -0.796  -2.086  0.00  0.00    -0.082 Cl
ENDBRANCH  20  26
ENDBRANCH  18  20
ENDBRANCH  16  18
ENDBRANCH   1  16
TORSDOF 5
