REMARK  Name = ZINC34757216
REMARK  5 active torsions:
REMARK  status: ('A' for Active; 'I' for Inactive)
REMARK    1  A    between atoms: C_1  and  C_2
REMARK    2  A    between atoms: C_4  and  O_9
REMARK    3  A    between atoms: O_9  and  C_10
REMARK    4  A    between atoms: N_19  and  C_22
REMARK    5  A    between atoms: N_29  and  C_30
REMARK                            x       y       z     vdW  Elec       q    Type
REMARK                         _______ _______ _______ _____ _____    ______ ____
ROOT
ATOM      1  C   UNL     1      -0.518  -3.603  -2.607  0.00  0.00    +0.230 A 
ATOM      2  C   UNL     1       0.117  -4.501  -3.471  0.00  0.00    +0.053 A 
ATOM      3  C   UNL     1       0.657  -5.651  -2.948  0.00  0.00    +0.056 A 
ATOM      4  N   UNL     1       0.546  -5.876  -1.641  0.00  0.00    -0.219 NA
ATOM      5  C   UNL     1      -0.062  -5.011  -0.846  0.00  0.00    +0.221 A 
ATOM      6  N   UNL     1      -0.581  -3.885  -1.313  0.00  0.00    -0.179 NA
ATOM      7  N   UNL     1      -0.152  -5.286   0.508  0.00  0.00    -0.303 N 
ATOM      8  C   UNL     1       0.520  -6.459   1.088  0.00  0.00    +0.089 C 
ATOM      9  C   UNL     1       1.334  -6.002   2.302  0.00  0.00    -0.060 C 
ATOM     10  N   UNL     1       0.458  -5.282   3.235  0.00  0.00    +0.380 N 
ATOM     11  C   UNL     1      -0.039  -4.052   2.607  0.00  0.00    -0.060 C 
ATOM     12  C   UNL     1      -0.917  -4.410   1.408  0.00  0.00    +0.089 C 
ATOM     13  C   UNL     1       1.213  -4.940   4.448  0.00  0.00    -0.096 C 
ATOM     14  C   UNL     1       1.387  -6.665  -3.785  0.00  0.00    +0.075 C 
ATOM     15  C   UNL     1       1.017  -6.516  -5.261  0.00  0.00    +0.116 C 
ATOM     16  N   UNL     1       1.103  -5.089  -5.611  0.00  0.00    -0.280 N 
ATOM     17  C   UNL     1       0.174  -4.172  -4.939  0.00  0.00    +0.151 C 
ATOM     18  C   UNL     1       2.000  -4.641  -6.512  0.00  0.00    +0.307 C 
ATOM     19  O   UNL     1       2.822  -5.404  -6.982  0.00  0.00    -0.252 OA
ATOM     20  N   UNL     1       1.985  -3.349  -6.893  0.00  0.00    -0.269 N 
ATOM     21  H   UNL     1       1.398  -2.718  -6.446  0.00  0.00    +0.156 HD
ATOM     22  H   UNL     1      -0.323  -5.871   3.483  0.00  0.00    -0.082 HD
ENDROOT
BRANCH  20  23
ATOM     23  C   UNL     1       2.815  -2.916  -7.933  0.00  0.00    +0.036 A 
ATOM     24  C   UNL     1       3.098  -3.763  -8.996  0.00  0.00    +0.023 A 
ATOM     25  C   UNL     1       3.918  -3.333 -10.021  0.00  0.00    +0.003 A 
ATOM     26  C   UNL     1       4.457  -2.060  -9.990  0.00  0.00    +0.020 A 
ATOM     27  C   UNL     1       4.178  -1.213  -8.932  0.00  0.00    +0.043 A 
ATOM     28  C   UNL     1       3.353  -1.636  -7.906  0.00  0.00    +0.043 A 
ATOM     29 CL   UNL     1       4.858   0.384  -8.896  0.00  0.00    -0.083 Cl
ENDBRANCH  20  23
BRANCH   1  30
ATOM     30  O   UNL     1      -1.058  -2.457  -3.086  0.00  0.00    -0.438 OA
BRANCH  30  34
ATOM     31  C   UNL     1      -4.930  -0.212  -1.140  0.00  0.00    +0.047 C 
ATOM     32  C   UNL     1      -3.443  -0.447  -1.213  0.00  0.00    -0.012 A 
ATOM     33  C   UNL     1      -2.931  -1.351  -2.124  0.00  0.00    +0.052 A 
ATOM     34  C   UNL     1      -1.563  -1.567  -2.191  0.00  0.00    +0.131 A 
ATOM     35  C   UNL     1      -0.710  -0.873  -1.344  0.00  0.00    +0.049 A 
ATOM     36  C   UNL     1      -1.225   0.030  -0.435  0.00  0.00    +0.042 A 
ATOM     37  C   UNL     1      -2.591   0.248  -0.373  0.00  0.00    +0.127 A 
ATOM     38  F   UNL     1      -3.092   1.137   0.513  0.00  0.00    -0.205 F 
ENDBRANCH  30  34
ENDBRANCH   1  30
TORSDOF 3
