REMARK  Name = ZINC01956920
REMARK  13 active torsions:
REMARK  status: ('A' for Active; 'I' for Inactive)
REMARK    1  A    between atoms: C_1  and  C_2
REMARK    2  A    between atoms: C_2  and  O_3
REMARK    3  A    between atoms: O_3  and  C_4
REMARK    4  A    between atoms: C_4  and  C_6
REMARK    5  A    between atoms: C_7  and  C_27
REMARK    6  A    between atoms: C_10  and  N_11
REMARK    7  A    between atoms: C_12  and  C_14
REMARK    8  A    between atoms: C_14  and  C_16
REMARK    9  A    between atoms: C_14  and  O_17
REMARK   10  A    between atoms: O_17  and  C_18
REMARK   11  A    between atoms: C_20  and  C_26
REMARK   12  A    between atoms: C_22  and  C_24
REMARK   13  A    between atoms: C_31  and  N_33
REMARK                            x       y       z     vdW  Elec       q    Type
REMARK                         _______ _______ _______ _____ _____    ______ ____
ROOT
ATOM      1  C   UNL     1      -3.420  -2.180  -0.076  0.00  0.00    +0.095 A 
ATOM      2  C   UNL     1      -4.165  -2.596  -1.252  0.00  0.00    +0.005 A 
ATOM      3  C   UNL     1      -5.282  -3.328  -1.004  0.00  0.00    +0.056 A 
ATOM      4  S   UNL     1      -5.312  -3.443   0.771  0.00  0.00    -0.080 S 
ATOM      5  C   UNL     1      -3.926  -2.578   1.151  0.00  0.00    +0.086 A 
ENDROOT
BRANCH   2   6
ATOM      6  C   UNL     1      -3.736  -2.245  -2.626  0.00  0.00    -0.014 A 
ATOM      7  C   UNL     1      -3.415  -0.926  -2.944  0.00  0.00    +0.009 A 
ATOM      8  C   UNL     1      -3.017  -0.606  -4.226  0.00  0.00    +0.003 A 
ATOM      9  C   UNL     1      -2.935  -1.590  -5.194  0.00  0.00    +0.033 A 
ATOM     10  C   UNL     1      -3.252  -2.901  -4.885  0.00  0.00    +0.127 A 
ATOM     11  C   UNL     1      -3.646  -3.234  -3.605  0.00  0.00    +0.041 A 
BRANCH  10  12
ATOM     12  N   UNL     1      -3.163  -3.948  -5.927  0.00  0.00    +0.056 N 
ATOM     13  O   UNL     1      -2.813  -3.658  -7.047  0.00  0.00    -0.126 OA
ATOM     14  O   UNL     1      -3.440  -5.094  -5.658  0.00  0.00    -0.126 OA
ENDBRANCH  10  12
ENDBRANCH   2   6
BRANCH   5  15
ATOM     15  N   UNL     1      -3.405  -2.319   2.409  0.00  0.00    -0.276 N 
ATOM     16  C   UNL     1      -4.031  -2.786   3.507  0.00  0.00    +0.258 C 
ATOM     17  O   UNL     1      -5.050  -3.434   3.394  0.00  0.00    -0.271 OA
ATOM     18  H   UNL     1      -2.590  -1.800   2.499  0.00  0.00    +0.155 HD
BRANCH  16  19
ATOM     19  C   UNL     1      -3.465  -2.504   4.875  0.00  0.00    +0.256 C 
ATOM     20  C   UNL     1      -2.108  -3.197   5.018  0.00  0.00    +0.062 C 
BRANCH  19  21
ATOM     21  O   UNL     1      -4.360  -2.999   5.872  0.00  0.00    -0.480 OA
BRANCH  21  22
ATOM     22  C   UNL     1      -4.305  -2.412   7.097  0.00  0.00    +0.122 A 
ATOM     23  C   UNL     1      -3.336  -1.456   7.366  0.00  0.00    +0.050 A 
ATOM     24  C   UNL     1      -3.281  -0.861   8.611  0.00  0.00    -0.028 A 
ATOM     25  C   UNL     1      -4.192  -1.217   9.590  0.00  0.00    +0.047 A 
ATOM     26  C   UNL     1      -5.159  -2.170   9.324  0.00  0.00    -0.028 A 
ATOM     27  C   UNL     1      -5.221  -2.763   8.078  0.00  0.00    +0.050 A 
ATOM     28  C   UNL     1      -6.149  -2.557  10.392  0.00  0.00    +0.045 C 
ATOM     29 CL   UNL     1      -4.121  -0.468  11.154  0.00  0.00    -0.083 Cl
ATOM     30  C   UNL     1      -2.229   0.177   8.904  0.00  0.00    +0.045 C 
ENDBRANCH  21  22
ENDBRANCH  19  21
ENDBRANCH  16  19
ENDBRANCH   5  15
BRANCH   1  31
ATOM     31  C   UNL     1      -2.195  -1.387  -0.183  0.00  0.00    +0.342 C 
ATOM     32  O   UNL     1      -1.117  -1.943  -0.280  0.00  0.00    -0.245 OA
BRANCH  31  33
ATOM     33  O   UNL     1      -2.261  -0.040  -0.174  0.00  0.00    -0.461 OA
BRANCH  33  35
ATOM     34  C   UNL     1      -1.299   2.176  -0.254  0.00  0.00    +0.048 C 
ATOM     35  C   UNL     1      -1.026   0.671  -0.282  0.00  0.00    +0.229 C 
ENDBRANCH  33  35
ENDBRANCH  31  33
ENDBRANCH   1  31
TORSDOF 9
