REMARK  Name = ZINC13785724
REMARK  6 active torsions:
REMARK  status: ('A' for Active; 'I' for Inactive)
REMARK    1  A    between atoms: C_1  and  C_2
REMARK    2  A    between atoms: C_3  and  N_15
REMARK    3  A    between atoms: N_6  and  C_9
REMARK    4  A    between atoms: N_7  and  C_8
REMARK    5  A    between atoms: C_16  and  C_17
REMARK    6  A    between atoms: N_22  and  C_25
REMARK                            x       y       z     vdW  Elec       q    Type
REMARK                         _______ _______ _______ _____ _____    ______ ____
ROOT
ATOM      1  C   UNL     1      -0.014  -0.518  -4.962  0.00  0.00    +0.122 A 
ATOM      2  C   UNL     1      -0.654   0.688  -5.249  0.00  0.00    +0.266 A 
ATOM      3  N   UNL     1      -1.073   0.930  -6.527  0.00  0.00    -0.274 N 
ATOM      4  C   UNL     1      -0.880   0.031  -7.505  0.00  0.00    +0.337 A 
ATOM      5  O   UNL     1      -1.271   0.291  -8.627  0.00  0.00    -0.246 OA
ATOM      6  N   UNL     1      -0.271  -1.146  -7.288  0.00  0.00    -0.228 N 
ATOM      7  C   UNL     1       0.182  -1.471  -6.059  0.00  0.00    +0.273 A 
ATOM      8  O   UNL     1       0.740  -2.536  -5.864  0.00  0.00    -0.266 OA
ATOM      9  O   UNL     1      -0.856   1.602  -4.279  0.00  0.00    -0.267 OA
ATOM     10  H   UNL     1      -1.518   1.767  -6.731  0.00  0.00    +0.173 HD
ENDROOT
BRANCH   6  11
ATOM     11  C   UNL     1      -0.099  -2.044  -8.350  0.00  0.00    +0.054 A 
ATOM     12  C   UNL     1      -0.995  -3.090  -8.528  0.00  0.00    +0.028 A 
ATOM     13  C   UNL     1      -0.823  -3.973  -9.576  0.00  0.00    +0.022 A 
ATOM     14  C   UNL     1       0.241  -3.818 -10.446  0.00  0.00    +0.041 A 
ATOM     15  C   UNL     1       1.136  -2.777 -10.270  0.00  0.00    +0.022 A 
ATOM     16  C   UNL     1       0.965  -1.887  -9.228  0.00  0.00    +0.028 A 
ATOM     17 CL   UNL     1       0.455  -4.931 -11.761  0.00  0.00    -0.084 Cl
ENDBRANCH   6  11
BRANCH   1  19
ATOM     18  N   UNL     1       0.268   0.042  -2.644  0.00  0.00    -0.247 NA
ATOM     19  C   UNL     1       0.453  -0.821  -3.606  0.00  0.00    +0.130 C 
BRANCH  18  22
ATOM     20  C   UNL     1      -0.062   1.918  -0.248  0.00  0.00    +0.067 C 
ATOM     21  C   UNL     1       0.583   0.556  -0.278  0.00  0.00    +0.064 A 
ATOM     22  C   UNL     1       0.705  -0.242  -1.375  0.00  0.00    +0.150 A 
ATOM     23  C   UNL     1       1.394  -1.465  -0.941  0.00  0.00    +0.298 A 
ATOM     24  O   UNL     1       1.687  -2.420  -1.637  0.00  0.00    -0.264 OA
ATOM     25  N   UNL     1       1.641  -1.326   0.379  0.00  0.00    -0.215 N 
ATOM     26  N   UNL     1       1.149  -0.082   0.789  0.00  0.00    -0.282 N 
ATOM     27  C   UNL     1       1.225   0.451   2.151  0.00  0.00    +0.171 C 
BRANCH  25  28
ATOM     28  C   UNL     1       2.283  -2.262   1.195  0.00  0.00    +0.067 A 
ATOM     29  C   UNL     1       1.693  -2.669   2.385  0.00  0.00    +0.028 A 
ATOM     30  C   UNL     1       2.330  -3.594   3.189  0.00  0.00    +0.002 A 
ATOM     31  C   UNL     1       3.553  -4.115   2.810  0.00  0.00    +0.000 A 
ATOM     32  C   UNL     1       4.143  -3.712   1.626  0.00  0.00    +0.002 A 
ATOM     33  C   UNL     1       3.509  -2.792   0.815  0.00  0.00    +0.028 A 
ENDBRANCH  25  28
ENDBRANCH  18  22
ENDBRANCH   1  19
TORSDOF 4
