REMARK  Name = ZINC39935003
REMARK  9 active torsions:
REMARK  status: ('A' for Active; 'I' for Inactive)
REMARK    1  A    between atoms: C_1  and  O_2
REMARK    2  A    between atoms: O_2  and  C_3
REMARK    3  A    between atoms: C_8  and  C_13
REMARK    4  A    between atoms: C_13  and  C_32
REMARK    5  A    between atoms: C_14  and  C_15
REMARK    6  A    between atoms: C_20  and  O_21
REMARK    7  A    between atoms: O_21  and  C_22
REMARK    8  A    between atoms: C_22  and  C_23
REMARK    9  A    between atoms: C_27  and  N_29
REMARK                            x       y       z     vdW  Elec       q    Type
REMARK                         _______ _______ _______ _____ _____    ______ ____
ROOT
ATOM      1  C   UNL     1       1.830  -4.407  -5.414  0.00  0.00    +0.072 C 
ATOM      2  C   UNL     1       1.844  -5.755  -5.457  0.00  0.00    +0.030 C 
ENDROOT
BRANCH   1   8
ATOM      3  C   UNL     1       2.247   0.826  -3.465  0.00  0.00    +0.122 A 
ATOM      4  C   UNL     1       3.401   0.861  -4.355  0.00  0.00    +0.048 A 
ATOM      5  C   UNL     1       3.912  -0.258  -4.901  0.00  0.00    +0.031 A 
ATOM      6  C   UNL     1       3.301  -1.562  -4.602  0.00  0.00    +0.061 A 
ATOM      7  N   UNL     1       3.588  -2.772  -4.987  0.00  0.00    -0.359 N 
ATOM      8  C   UNL     1       2.620  -3.678  -4.357  0.00  0.00    +0.216 C 
ATOM      9  N   UNL     1       1.727  -2.835  -3.551  0.00  0.00    -0.359 N 
ATOM     10  C   UNL     1       2.124  -1.600  -3.693  0.00  0.00    +0.064 A 
ATOM     11  C   UNL     1       1.633  -0.337  -3.137  0.00  0.00    +0.073 A 
ATOM     12  H   UNL     1       4.310  -3.029  -5.582  0.00  0.00    +0.162 HD
ATOM     13  H   UNL     1       0.981  -3.141  -3.013  0.00  0.00    +0.162 HD
BRANCH   3  15
ATOM     14  C   UNL     1       2.460   3.187  -3.322  0.00  0.00    +0.277 C 
ATOM     15  O   UNL     1       1.779   1.988  -2.946  0.00  0.00    -0.495 OA
ENDBRANCH   3  15
ENDBRANCH   1   8
BRANCH   2  16
ATOM     16  C   UNL     1       0.960  -6.471  -6.388  0.00  0.00    +0.018 A 
ATOM     17  C   UNL     1      -0.300  -5.951  -6.702  0.00  0.00    +0.011 A 
ATOM     18  C   UNL     1      -1.123  -6.627  -7.575  0.00  0.00    +0.001 A 
ATOM     19  C   UNL     1      -0.709  -7.820  -8.145  0.00  0.00    +0.004 A 
ATOM     20  C   UNL     1       0.533  -8.345  -7.845  0.00  0.00    +0.046 A 
ATOM     21  C   UNL     1       1.377  -7.676  -6.973  0.00  0.00    +0.128 A 
BRANCH  21  22
ATOM     22  O   UNL     1       2.600  -8.188  -6.682  0.00  0.00    -0.487 OA
BRANCH  22  23
ATOM     23  C   UNL     1       2.956  -9.419  -7.315  0.00  0.00    +0.264 C 
BRANCH  23  24
ATOM     24  C   UNL     1       4.338  -9.829  -6.875  0.00  0.00    -0.008 A 
ATOM     25  C   UNL     1       5.445  -9.404  -7.586  0.00  0.00    +0.007 A 
ATOM     26  C   UNL     1       6.712  -9.781  -7.182  0.00  0.00    +0.003 A 
ATOM     27  C   UNL     1       6.872 -10.582  -6.066  0.00  0.00    +0.033 A 
ATOM     28  C   UNL     1       5.766 -11.005  -5.355  0.00  0.00    +0.127 A 
ATOM     29  C   UNL     1       4.499 -10.625  -5.756  0.00  0.00    +0.039 A 
BRANCH  28  30
ATOM     30  N   UNL     1       5.938 -11.863  -4.161  0.00  0.00    +0.056 N 
ATOM     31  O   UNL     1       7.046 -12.193  -3.808  0.00  0.00    -0.126 OA
ATOM     32  O   UNL     1       4.970 -12.234  -3.538  0.00  0.00    -0.126 OA
ENDBRANCH  28  30
ENDBRANCH  23  24
ENDBRANCH  22  23
ENDBRANCH  21  22
ENDBRANCH   2  16
BRANCH   1  33
ATOM     33  C   UNL     1       1.065  -3.668  -6.372  0.00  0.00    +0.099 C 
ATOM     34  N   UNL     1       0.457  -3.082  -7.133  0.00  0.00    -0.191 NA
ENDBRANCH   1  33
TORSDOF 8
