REMARK  Name = ZINC20436998
REMARK  7 active torsions:
REMARK  status: ('A' for Active; 'I' for Inactive)
REMARK    1  A    between atoms: C_1  and  O_2
REMARK    2  A    between atoms: O_2  and  C_3
REMARK    3  A    between atoms: C_7  and  N_9
REMARK    4  A    between atoms: N_9  and  C_10
REMARK    5  A    between atoms: C_10  and  C_11
REMARK    6  A    between atoms: N_13  and  C_14
REMARK    7  A    between atoms: C_18  and  C_20
REMARK                            x       y       z     vdW  Elec       q    Type
REMARK                         _______ _______ _______ _____ _____    ______ ____
ROOT
ATOM      1  N   UNL     1       2.430   7.940   0.328  0.00  0.00    -0.273 N 
ATOM      2  C   UNL     1       3.022   8.120   1.559  0.00  0.00    +0.136 C 
ATOM      3  N   UNL     1       4.270   8.509   1.807  0.00  0.00    -0.362 N 
ATOM      4  C   UNL     1       4.686   8.510   3.169  0.00  0.00    +0.117 C 
ATOM      5  C   UNL     1       5.930   9.186   3.712  0.00  0.00    +0.191 C 
ATOM      6  S   UNL     1       5.617   9.030   5.532  0.00  0.00    -0.028 S 
ATOM      7  O   UNL     1       5.597  10.326   6.113  0.00  0.00    -0.174 OA
ATOM      8  O   UNL     1       6.481   8.036   6.067  0.00  0.00    -0.174 OA
ATOM      9  C   UNL     1       3.887   8.363   5.477  0.00  0.00    +0.182 C 
ATOM     10  C   UNL     1       3.478   8.895   4.098  0.00  0.00    +0.099 C 
ATOM     11  S   UNL     1       2.277   7.872   3.178  0.00  0.00    -0.085 S 
ATOM     12  H   UNL     1       4.928   8.811   0.979  0.00  0.00    +0.162 HD
ENDROOT
BRANCH   1  17
ATOM     13  C   UNL     1       3.394   9.645  -2.787  0.00  0.00    +0.122 A 
ATOM     14  C   UNL     1       4.517   8.913  -3.148  0.00  0.00    +0.046 A 
ATOM     15  C   UNL     1       4.942   7.863  -2.357  0.00  0.00    +0.005 A 
ATOM     16  C   UNL     1       4.253   7.539  -1.204  0.00  0.00    +0.024 A 
ATOM     17  C   UNL     1       3.129   8.268  -0.839  0.00  0.00    +0.039 A 
ATOM     18  C   UNL     1       2.696   9.320  -1.635  0.00  0.00    +0.069 A 
BRANCH  13  20
ATOM     19  C   UNL     1       3.740  10.953  -4.742  0.00  0.00    +0.277 C 
ATOM     20  O   UNL     1       2.976  10.677  -3.567  0.00  0.00    -0.495 OA
ENDBRANCH  13  20
ENDBRANCH   1  17
BRANCH   1  21
ATOM     21  C   UNL     1       1.069   7.405   0.241  0.00  0.00    +0.208 C 
BRANCH  21  22
ATOM     22  C   UNL     1       1.125   5.902   0.152  0.00  0.00    +0.235 C 
ATOM     23  O   UNL     1       2.196   5.333   0.162  0.00  0.00    -0.274 OA
ATOM     24  N   UNL     1      -0.015   5.189   0.063  0.00  0.00    -0.284 N 
ATOM     25  H   UNL     1      -0.982   5.707  -0.030  0.00  0.00    +0.155 HD
BRANCH  24  26
ATOM     26  C   UNL     1       0.029   3.791   0.090  0.00  0.00    +0.034 A 
ATOM     27  C   UNL     1       0.997   3.140   0.844  0.00  0.00    +0.023 A 
ATOM     28  C   UNL     1       1.039   1.760   0.867  0.00  0.00    +0.002 A 
ATOM     29  C   UNL     1       0.119   1.026   0.140  0.00  0.00    +0.012 A 
ATOM     30  C   UNL     1      -0.842   1.671  -0.615  0.00  0.00    +0.057 A 
ATOM     31  C   UNL     1      -0.893   3.051  -0.638  0.00  0.00    +0.035 A 
BRANCH  30  32
ATOM     32  C   UNL     1      -1.839   0.868  -1.410  0.00  0.00    +0.417 C 
ATOM     33  F   UNL     1      -1.592  -0.497  -1.225  0.00  0.00    -0.166 F 
ATOM     34  F   UNL     1      -3.134   1.171  -0.976  0.00  0.00    -0.166 F 
ATOM     35  F   UNL     1      -1.716   1.184  -2.768  0.00  0.00    -0.166 F 
ENDBRANCH  30  32
ENDBRANCH  24  26
ENDBRANCH  21  22
ENDBRANCH   1  21
TORSDOF 6
