REMARK  Name = ZINC66844380
REMARK  9 active torsions:
REMARK  status: ('A' for Active; 'I' for Inactive)
REMARK    1  A    between atoms: C_1  and  C_2
REMARK    2  A    between atoms: C_2  and  C_4
REMARK    3  A    between atoms: C_2  and  N_15
REMARK    4  A    between atoms: N_6  and  C_7
REMARK    5  A    between atoms: C_8  and  C_12
REMARK    6  A    between atoms: N_15  and  C_16
REMARK    7  A    between atoms: N_15  and  C_17
REMARK    8  A    between atoms: C_17  and  C_18
REMARK    9  A    between atoms: N_20  and  C_21
REMARK                            x       y       z     vdW  Elec       q    Type
REMARK                         _______ _______ _______ _____ _____    ______ ____
ROOT
ATOM      1  C   UNL     1       0.504   1.418  -0.473  0.00  0.00    -0.004 C 
ATOM      2  C   UNL     1      -0.116   0.107   0.015  0.00  0.00    +0.017 C 
ENDROOT
BRANCH   2   3
ATOM      3  C   UNL     1       0.622  -0.372   1.238  0.00  0.00    +0.204 C 
ATOM      4  O   UNL     1       1.570  -1.120   1.121  0.00  0.00    -0.277 OA
ATOM      5  N   UNL     1       0.230   0.030   2.463  0.00  0.00    -0.281 N 
ATOM      6  H   UNL     1      -0.528   0.628   2.558  0.00  0.00    +0.155 HD
BRANCH   5   7
ATOM      7  C   UNL     1       0.909  -0.411   3.589  0.00  0.00    +0.084 A 
ATOM      8  C   UNL     1       0.645  -0.109   4.917  0.00  0.00    +0.065 A 
ATOM      9  C   UNL     1       1.517  -0.709   5.901  0.00  0.00    +0.022 A 
ATOM     10  C   UNL     1       2.493  -1.499   5.417  0.00  0.00    +0.048 A 
ATOM     11  S   UNL     1       2.233  -1.438   3.658  0.00  0.00    -0.081 S 
BRANCH   8  12
ATOM     12  C   UNL     1      -0.460   0.774   5.302  0.00  0.00    +0.244 C 
ATOM     13  O   UNL     1      -1.175   1.263   4.447  0.00  0.00    -0.270 OA
ATOM     14  N   UNL     1      -0.685   1.044   6.603  0.00  0.00    -0.325 N 
ATOM     15  H   UNL     1      -0.115   0.654   7.285  0.00  0.00    +0.145 HD
ATOM     16  H   UNL     1      -1.416   1.628   6.858  0.00  0.00    +0.145 HD
ENDBRANCH   8  12
ENDBRANCH   5   7
ENDBRANCH   2   3
BRANCH   2  17
ATOM     17  N   UNL     1      -0.018  -0.906  -1.044  0.00  0.00    +0.391 N 
ATOM     18  C   UNL     1      -0.695  -0.417  -2.253  0.00  0.00    -0.094 C 
ATOM     19  H   UNL     1       0.954  -1.083  -1.252  0.00  0.00    -0.080 HD
BRANCH  17  20
ATOM     20  C   UNL     1      -0.657  -2.149  -0.593  0.00  0.00    +0.020 C 
BRANCH  20  21
ATOM     21  C   UNL     1      -0.411  -3.236  -1.608  0.00  0.00    +0.201 C 
ATOM     22  O   UNL     1       0.233  -2.999  -2.608  0.00  0.00    -0.278 OA
ATOM     23  N   UNL     1      -0.907  -4.473  -1.403  0.00  0.00    -0.287 N 
ATOM     24  H   UNL     1      -1.366  -4.681  -0.575  0.00  0.00    +0.155 HD
BRANCH  23  25
ATOM     25  C   UNL     1      -0.760  -5.457  -2.387  0.00  0.00    +0.039 A 
ATOM     26  C   UNL     1      -1.776  -6.378  -2.607  0.00  0.00    +0.061 A 
ATOM     27  C   UNL     1      -1.629  -7.350  -3.580  0.00  0.00    +0.128 A 
ATOM     28  C   UNL     1      -0.469  -7.405  -4.335  0.00  0.00    +0.076 A 
ATOM     29  C   UNL     1       0.545  -6.487  -4.118  0.00  0.00    +0.128 A 
ATOM     30  C   UNL     1       0.399  -5.510  -3.150  0.00  0.00    +0.061 A 
ATOM     31  F   UNL     1       1.675  -6.544  -4.855  0.00  0.00    -0.205 F 
ATOM     32  F   UNL     1      -2.617  -8.246  -3.794  0.00  0.00    -0.205 F 
ENDBRANCH  23  25
ENDBRANCH  20  21
ENDBRANCH  17  20
ENDBRANCH   2  17
TORSDOF 7
