REMARK  Name = ZINC66595885
REMARK  10 active torsions:
REMARK  status: ('A' for Active; 'I' for Inactive)
REMARK    1  A    between atoms: C_1  and  C_2
REMARK    2  A    between atoms: C_2  and  C_3
REMARK    3  A    between atoms: C_3  and  C_4
REMARK    4  A    between atoms: C_4  and  N_5
REMARK    5  A    between atoms: C_10  and  C_12
REMARK    6  A    between atoms: C_12  and  N_13
REMARK    7  A    between atoms: N_16  and  C_17
REMARK    8  A    between atoms: C_17  and  C_18
REMARK    9  A    between atoms: C_21  and  S_23
REMARK   10  A    between atoms: S_23  and  N_26
REMARK                            x       y       z     vdW  Elec       q    Type
REMARK                         _______ _______ _______ _____ _____    ______ ____
ROOT
ATOM      1  N   UNL     1      -2.626  -3.442  -2.605  0.00  0.00    -0.301 N 
ATOM      2  C   UNL     1      -2.223  -3.588  -3.883  0.00  0.00    +0.300 C 
ATOM      3  O   UNL     1      -1.396  -4.433  -4.167  0.00  0.00    -0.253 OA
ATOM      4  N   UNL     1      -2.736  -2.797  -4.846  0.00  0.00    -0.295 N 
ATOM      5  H   UNL     1      -3.286  -2.768  -2.379  0.00  0.00    +0.150 HD
ATOM      6  H   UNL     1      -3.396  -2.123  -4.620  0.00  0.00    +0.151 HD
ENDROOT
BRANCH   1   7
ATOM      7  C   UNL     1      -2.068  -4.302  -1.558  0.00  0.00    +0.090 C 
BRANCH   7  13
ATOM      8  N   UNL     1      -2.688  -2.580   0.067  0.00  0.00    +0.383 N 
ATOM      9  C   UNL     1      -3.296  -2.306   1.374  0.00  0.00    -0.078 C 
ATOM     10  C   UNL     1      -4.785  -2.655   1.331  0.00  0.00    -0.019 C 
ATOM     11  C   UNL     1      -4.947  -4.140   0.993  0.00  0.00    -0.003 C 
ATOM     12  C   UNL     1      -4.244  -4.429  -0.337  0.00  0.00    -0.014 C 
ATOM     13  C   UNL     1      -2.775  -4.014  -0.232  0.00  0.00    -0.051 C 
ATOM     14  H   UNL     1      -3.177  -2.059  -0.645  0.00  0.00    -0.081 HD
BRANCH   8  15
ATOM     15  C   UNL     1      -1.277  -2.171   0.089  0.00  0.00    -0.078 C 
BRANCH  15  16
ATOM     16  C   UNL     1      -1.189  -0.653   0.260  0.00  0.00    -0.019 C 
BRANCH  16  18
ATOM     17  C   UNL     1       0.368   1.291   0.454  0.00  0.00    +0.004 C 
ATOM     18  C   UNL     1       0.280  -0.227   0.284  0.00  0.00    -0.005 C 
ENDBRANCH  16  18
ENDBRANCH  15  16
ENDBRANCH   8  15
ENDBRANCH   7  13
ENDBRANCH   1   7
BRANCH   4  19
ATOM     19  C   UNL     1      -2.297  -2.956  -6.235  0.00  0.00    +0.148 C 
BRANCH  19  20
ATOM     20  C   UNL     1      -3.017  -1.959  -7.106  0.00  0.00    +0.009 A 
ATOM     21  C   UNL     1      -2.652  -0.697  -7.440  0.00  0.00    +0.015 A 
ATOM     22  C   UNL     1      -3.479   0.044  -8.264  0.00  0.00    +0.036 A 
ATOM     23  C   UNL     1      -4.630  -0.513  -8.713  0.00  0.00    +0.142 A 
ATOM     24  S   UNL     1      -4.569  -2.136  -7.972  0.00  0.00    -0.072 S 
BRANCH  23  25
ATOM     25  S   UNL     1      -5.864   0.182  -9.762  0.00  0.00    +0.062 S 
ATOM     26  O   UNL     1      -7.069  -0.521  -9.492  0.00  0.00    -0.153 OA
ATOM     27  O   UNL     1      -5.759   1.593  -9.632  0.00  0.00    -0.153 OA
BRANCH  25  28
ATOM     28  N   UNL     1      -5.442  -0.182 -11.321  0.00  0.00    -0.203 NA
ATOM     29  H   UNL     1      -6.130  -0.295 -11.996  0.00  0.00    +0.144 HD
ATOM     30  H   UNL     1      -4.507  -0.282 -11.560  0.00  0.00    +0.144 HD
ENDBRANCH  25  28
ENDBRANCH  23  25
ENDBRANCH  19  20
ENDBRANCH   4  19
TORSDOF 9
