REMARK  Name = ZINC35524268
REMARK  13 active torsions:
REMARK  status: ('A' for Active; 'I' for Inactive)
REMARK    1  A    between atoms: C_1  and  C_2
REMARK    2  A    between atoms: C_5  and  N_9
REMARK    3  A    between atoms: C_6  and  C_8
REMARK    4  A    between atoms: C_12  and  C_14
REMARK    5  A    between atoms: C_14  and  C_15
REMARK    6  A    between atoms: C_14  and  C_16
REMARK    7  A    between atoms: C_14  and  C_17
REMARK    8  A    between atoms: C_18  and  C_32
REMARK    9  A    between atoms: N_24  and  C_25
REMARK   10  A    between atoms: C_25  and  C_26
REMARK   11  A    between atoms: N_28  and  C_29
REMARK   12  A    between atoms: C_29  and  C_30
REMARK   13  A    between atoms: C_29  and  C_31
REMARK                            x       y       z     vdW  Elec       q    Type
REMARK                         _______ _______ _______ _____ _____    ______ ____
ROOT
ATOM      1  N   UNL     1       0.118  -4.271   1.507  0.00  0.00    -0.217 N 
ATOM      2  C   UNL     1      -1.119  -4.487   1.001  0.00  0.00    +0.136 A 
ATOM      3  C   UNL     1      -1.236  -5.806   0.722  0.00  0.00    +0.034 A 
ATOM      4  C   UNL     1      -0.032  -6.424   1.063  0.00  0.00    +0.075 A 
ATOM      5  N   UNL     1       0.783  -5.508   1.528  0.00  0.00    -0.169 NA
ATOM      6  C   UNL     1      -2.468  -6.459   0.150  0.00  0.00    +0.118 C 
ATOM      7  S   UNL     1      -2.603  -6.000  -1.616  0.00  0.00    -0.138 S 
ATOM      8  C   UNL     1      -2.130  -4.239  -1.584  0.00  0.00    +0.166 C 
ATOM      9  C   UNL     1      -2.751  -3.543  -0.410  0.00  0.00    +0.231 C 
ATOM     10  O   UNL     1      -3.814  -2.975  -0.539  0.00  0.00    -0.274 OA
ATOM     11  N   UNL     1      -2.137  -3.548   0.778  0.00  0.00    -0.246 N 
ENDROOT
BRANCH   1  16
ATOM     12  C   UNL     1       2.236   0.712   3.208  0.00  0.00    +0.044 C 
ATOM     13  C   UNL     1       1.674  -0.612   2.756  0.00  0.00    -0.050 A 
ATOM     14  C   UNL     1       0.648  -1.205   3.470  0.00  0.00    +0.005 A 
ATOM     15  C   UNL     1       0.131  -2.417   3.058  0.00  0.00    +0.028 A 
ATOM     16  C   UNL     1       0.641  -3.041   1.927  0.00  0.00    +0.070 A 
ATOM     17  C   UNL     1       1.670  -2.442   1.213  0.00  0.00    -0.025 A 
ATOM     18  C   UNL     1       2.180  -1.227   1.627  0.00  0.00    +0.008 A 
ATOM     19  C   UNL     1       2.227  -3.115  -0.015  0.00  0.00    +0.046 C 
ENDBRANCH   1  16
BRANCH   6  20
ATOM     20  C   UNL     1      -2.354  -7.956   0.280  0.00  0.00    +0.007 A 
ATOM     21  C   UNL     1      -1.711  -8.836  -0.525  0.00  0.00    +0.012 A 
ATOM     22  C   UNL     1      -1.740 -10.181  -0.206  0.00  0.00    +0.008 A 
ATOM     23  C   UNL     1      -2.410 -10.579   0.903  0.00  0.00    +0.045 A 
ATOM     24  S   UNL     1      -3.024  -9.029   1.540  0.00  0.00    -0.100 S 
ENDBRANCH   6  20
BRANCH   4  25
ATOM     25  C   UNL     1       0.280  -7.891   0.916  0.00  0.00    +0.007 C 
ATOM     26  C   UNL     1       0.293  -8.264  -0.568  0.00  0.00    +0.017 C 
ATOM     27  C   UNL     1       1.651  -8.185   1.528  0.00  0.00    +0.017 C 
ATOM     28  C   UNL     1      -0.788  -8.714   1.640  0.00  0.00    +0.017 C 
ENDBRANCH   4  25
BRANCH  11  29
ATOM     29  C   UNL     1      -2.520  -2.595   1.822  0.00  0.00    +0.210 C 
BRANCH  29  30
ATOM     30  C   UNL     1      -1.825  -1.280   1.583  0.00  0.00    +0.231 C 
ATOM     31  O   UNL     1      -1.103  -1.143   0.618  0.00  0.00    -0.274 OA
ATOM     32  N   UNL     1      -2.005  -0.256   2.440  0.00  0.00    -0.312 N 
ATOM     33  H   UNL     1      -2.523  -0.387   3.249  0.00  0.00    +0.149 HD
BRANCH  32  34
ATOM     34  C   UNL     1      -1.417   1.054   2.150  0.00  0.00    +0.067 C 
ATOM     35  C   UNL     1      -2.388   1.871   1.295  0.00  0.00    +0.027 C 
ATOM     36  C   UNL     1      -1.147   1.793   3.462  0.00  0.00    +0.027 C 
ENDBRANCH  32  34
ENDBRANCH  29  30
ENDBRANCH  11  29
TORSDOF 6
