REMARK  Name = ZINC43170673
REMARK  12 active torsions:
REMARK  status: ('A' for Active; 'I' for Inactive)
REMARK    1  A    between atoms: C_1  and  C_2
REMARK    2  A    between atoms: C_2  and  C_3
REMARK    3  A    between atoms: C_2  and  C_4
REMARK    4  A    between atoms: C_8  and  C_25
REMARK    5  A    between atoms: C_9  and  N_10
REMARK    6  A    between atoms: N_13  and  C_14
REMARK    7  A    between atoms: C_14  and  C_15
REMARK    8  A    between atoms: C_15  and  C_17
REMARK    9  A    between atoms: C_15  and  O_24
REMARK   10  A    between atoms: C_17  and  N_18
REMARK   11  A    between atoms: C_25  and  C_26
REMARK   12  A    between atoms: C_25  and  C_27
REMARK                            x       y       z     vdW  Elec       q    Type
REMARK                         _______ _______ _______ _____ _____    ______ ____
ROOT
ATOM      1  N   UNL     1      -0.356  -0.755  -2.052  0.00  0.00    -0.269 N 
ATOM      2  C   UNL     1      -0.357  -1.660  -3.050  0.00  0.00    +0.304 C 
ATOM      3  O   UNL     1      -1.009  -2.681  -2.945  0.00  0.00    -0.253 OA
ATOM      4  N   UNL     1       0.365  -1.435  -4.166  0.00  0.00    -0.297 N 
ATOM      5  H   UNL     1       0.097   0.095  -2.169  0.00  0.00    +0.156 HD
ATOM      6  H   UNL     1       0.886  -0.620  -4.250  0.00  0.00    +0.150 HD
ENDROOT
BRANCH   1  12
ATOM      7  C   UNL     1      -0.304  -1.021   0.348  0.00  0.00    -0.023 A 
ATOM      8  C   UNL     1      -0.952  -1.297   1.535  0.00  0.00    +0.006 A 
ATOM      9  C   UNL     1      -2.302  -1.599   1.534  0.00  0.00    +0.001 A 
ATOM     10  C   UNL     1      -3.006  -1.625   0.344  0.00  0.00    +0.006 A 
ATOM     11  C   UNL     1      -2.363  -1.350  -0.847  0.00  0.00    -0.023 A 
ATOM     12  C   UNL     1      -1.009  -1.040  -0.848  0.00  0.00    +0.042 A 
BRANCH   7  14
ATOM     13  C   UNL     1       1.411   0.551   1.208  0.00  0.00    +0.012 C 
ATOM     14  C   UNL     1       1.167  -0.692   0.351  0.00  0.00    +0.015 C 
ATOM     15  C   UNL     1       1.952  -1.872   0.928  0.00  0.00    +0.012 C 
ENDBRANCH   7  14
BRANCH  11  16
ATOM     16  C   UNL     1      -3.131  -1.379  -2.143  0.00  0.00    +0.015 C 
ATOM     17  C   UNL     1      -4.232  -2.439  -2.060  0.00  0.00    +0.012 C 
ATOM     18  C   UNL     1      -3.761  -0.008  -2.394  0.00  0.00    +0.012 C 
ENDBRANCH  11  16
ENDBRANCH   1  12
BRANCH   4  19
ATOM     19  C   UNL     1       0.365  -2.419  -5.250  0.00  0.00    +0.135 C 
BRANCH  19  20
ATOM     20  C   UNL     1       1.258  -1.923  -6.390  0.00  0.00    +0.115 C 
BRANCH  20  21
ATOM     21  O   UNL     1       2.612  -1.858  -5.939  0.00  0.00    -0.392 OA
ATOM     22  H   UNL     1       2.970  -2.707  -5.645  0.00  0.00    +0.210 HD
ENDBRANCH  20  21
BRANCH  20  23
ATOM     23  C   UNL     1       1.159  -2.889  -7.572  0.00  0.00    -0.046 C 
BRANCH  23  24
ATOM     24  N   UNL     1       2.010  -2.409  -8.669  0.00  0.00    +0.381 N 
ATOM     25  C   UNL     1       2.033  -3.409  -9.743  0.00  0.00    -0.079 C 
ATOM     26  C   UNL     1       2.982  -2.951 -10.852  0.00  0.00    -0.019 C 
ATOM     27  C   UNL     1       2.495  -1.611 -11.411  0.00  0.00    -0.004 C 
ATOM     28  C   UNL     1       2.403  -0.595 -10.269  0.00  0.00    -0.019 C 
ATOM     29  C   UNL     1       1.476  -1.141  -9.181  0.00  0.00    -0.079 C 
ATOM     30  H   UNL     1       2.948  -2.264  -8.327  0.00  0.00    -0.082 HD
ENDBRANCH  23  24
ENDBRANCH  20  23
ENDBRANCH  19  20
ENDBRANCH   4  19
TORSDOF 8
