REMARK  Name = ZINC22147050
REMARK  5 active torsions:
REMARK  status: ('A' for Active; 'I' for Inactive)
REMARK    1  A    between atoms: C_1  and  C_2
REMARK    2  A    between atoms: C_2  and  C_4
REMARK    3  A    between atoms: C_2  and  N_15
REMARK    4  A    between atoms: N_6  and  C_7
REMARK    5  A    between atoms: C_10  and  N_14
REMARK                            x       y       z     vdW  Elec       q    Type
REMARK                         _______ _______ _______ _____ _____    ______ ____
ROOT
ATOM      1  C   UNL     1      -4.886   5.031   0.232  0.00  0.00    +0.203 C 
ATOM      2  O   UNL     1      -3.922   5.555  -0.285  0.00  0.00    -0.277 OA
ATOM      3  N   UNL     1      -4.777   3.798   0.766  0.00  0.00    -0.286 N 
ATOM      4  H   UNL     1      -5.670   3.288   1.159  0.00  0.00    +0.155 HD
ENDROOT
BRANCH   3   5
ATOM      5  C   UNL     1      -3.527   3.166   0.822  0.00  0.00    +0.052 A 
ATOM      6  C   UNL     1      -2.364   3.918   0.730  0.00  0.00    +0.026 A 
ATOM      7  C   UNL     1      -1.133   3.296   0.790  0.00  0.00    +0.024 A 
ATOM      8  C   UNL     1      -1.058   1.916   0.931  0.00  0.00    +0.026 A 
ATOM      9  C   UNL     1      -2.221   1.163   1.022  0.00  0.00    +0.044 A 
ATOM     10  C   UNL     1      -3.453   1.786   0.968  0.00  0.00    +0.064 A 
ATOM     11 CL   UNL     1      -4.907   0.845   1.083  0.00  0.00    -0.082 Cl
BRANCH   8  12
ATOM     12  N   UNL     1       0.190   1.286   0.985  0.00  0.00    -0.358 N 
ATOM     13  H   UNL     1       0.250   0.193   1.097  0.00  0.00    +0.142 HD
ATOM     14  H   UNL     1       1.111   1.883   0.917  0.00  0.00    +0.142 HD
ENDBRANCH   8  12
ENDBRANCH   3   5
BRANCH   1  16
ATOM     15  C   UNL     1      -7.045   5.366  -0.940  0.00  0.00    -0.004 C 
ATOM     16  C   UNL     1      -6.205   5.758   0.277  0.00  0.00    +0.016 C 
BRANCH  16  17
ATOM     17  N   UNL     1      -5.966   7.207   0.261  0.00  0.00    +0.387 N 
ATOM     18  C   UNL     1      -7.216   7.944   0.040  0.00  0.00    -0.078 C 
ATOM     19  C   UNL     1      -7.002   9.433   0.309  0.00  0.00    -0.019 C 
ATOM     20  C   UNL     1      -6.268  10.064  -0.879  0.00  0.00    -0.002 C 
ATOM     21  C   UNL     1      -4.798   9.639  -0.834  0.00  0.00    -0.000 C 
ATOM     22  C   UNL     1      -4.285   9.744   0.603  0.00  0.00    -0.002 C 
ATOM     23  C   UNL     1      -3.986   8.346   1.143  0.00  0.00    -0.019 C 
ATOM     24  C   UNL     1      -5.302   7.646   1.496  0.00  0.00    -0.078 C 
ATOM     25  H   UNL     1      -5.294   7.431  -0.581  0.00  0.00    -0.081 HD
ENDBRANCH  16  17
ENDBRANCH   1  16
TORSDOF 4
