REMARK  Name = ZINC20411136
REMARK  6 active torsions:
REMARK  status: ('A' for Active; 'I' for Inactive)
REMARK    1  A    between atoms: C_1  and  N_2
REMARK    2  A    between atoms: C_9  and  O_31
REMARK    3  A    between atoms: C_11  and  C_13
REMARK    4  A    between atoms: C_14  and  C_15
REMARK    5  A    between atoms: C_15  and  N_16
REMARK    6  A    between atoms: O_31  and  C_32
REMARK                            x       y       z     vdW  Elec       q    Type
REMARK                         _______ _______ _______ _____ _____    ______ ____
ROOT
ATOM      1  C   UNL     1      -2.740   4.466   1.409  0.00  0.00    -0.076 C 
ATOM      2  C   UNL     1      -2.948   4.833   2.504  0.00  0.00    -0.079 C 
ENDROOT
BRANCH   1  13
ATOM      3  C   UNL     1      -4.871   3.874  -0.317  0.00  0.00    +0.106 C 
ATOM      4  N   UNL     1      -3.590   3.162  -0.427  0.00  0.00    -0.288 NA
ATOM      5  C   UNL     1      -3.618   1.905   0.338  0.00  0.00    +0.090 C 
ATOM      6  C   UNL     1      -2.432   1.046  -0.099  0.00  0.00    +0.051 C 
ATOM      7  C   UNL     1      -1.162   1.857  -0.048  0.00  0.00    -0.033 A 
ATOM      8  C   UNL     1       0.051   1.185  -0.056  0.00  0.00    +0.053 A 
ATOM      9  C   UNL     1       1.244   1.887  -0.023  0.00  0.00    +0.170 A 
ATOM     10  C   UNL     1       1.224   3.277   0.022  0.00  0.00    +0.208 A 
ATOM     11  C   UNL     1       0.009   3.946   0.036  0.00  0.00    +0.171 A 
ATOM     12  C   UNL     1      -1.186   3.234   0.006  0.00  0.00    +0.030 A 
ATOM     13  C   UNL     1      -2.480   4.006   0.035  0.00  0.00    +0.167 C 
ATOM     14  O   UNL     1       2.512   3.731   0.046  0.00  0.00    -0.449 OA
ATOM     15  C   UNL     1       3.312   2.597   0.428  0.00  0.00    +0.467 C 
ATOM     16  O   UNL     1       2.543   1.468  -0.026  0.00  0.00    -0.452 OA
BRANCH  11  17
ATOM     17  O   UNL     1      -0.014   5.305   0.080  0.00  0.00    -0.491 OA
ATOM     18  C   UNL     1      -0.017   5.995  -1.171  0.00  0.00    +0.277 C 
ENDBRANCH  11  17
ENDBRANCH   1  13
BRANCH   2  19
ATOM     19  C   UNL     1      -3.209   5.293   3.878  0.00  0.00    +0.211 C 
BRANCH  19  20
ATOM     20  N   UNL     1      -4.466   6.044   3.911  0.00  0.00    -0.332 N 
ATOM     21  C   UNL     1      -5.639   5.354   4.083  0.00  0.00    +0.054 A 
ATOM     22  C   UNL     1      -5.655   3.969   4.225  0.00  0.00    +0.026 A 
ATOM     23  C   UNL     1      -6.854   3.314   4.396  0.00  0.00    +0.002 A 
ATOM     24  C   UNL     1      -8.049   4.019   4.428  0.00  0.00    +0.001 A 
ATOM     25  C   UNL     1      -8.056   5.380   4.302  0.00  0.00    +0.014 A 
ATOM     26  C   UNL     1      -6.853   6.062   4.122  0.00  0.00    +0.045 A 
ATOM     27  C   UNL     1      -6.806   7.523   3.963  0.00  0.00    +0.193 A 
ATOM     28  O   UNL     1      -7.830   8.186   3.987  0.00  0.00    -0.287 OA
ATOM     29  C   UNL     1      -5.542   8.146   3.778  0.00  0.00    +0.019 A 
ATOM     30  C   UNL     1      -4.421   7.402   3.764  0.00  0.00    +0.027 A 
ATOM     31  C   UNL     1      -3.049   8.010   3.596  0.00  0.00    +0.054 C 
ATOM     32  C   UNL     1      -3.146   9.416   3.011  0.00  0.00    +0.006 C 
ATOM     33  C   UNL     1      -4.148  10.216   3.852  0.00  0.00    +0.005 C 
ATOM     34  C   UNL     1      -5.541   9.642   3.603  0.00  0.00    +0.041 C 
ENDBRANCH  19  20
ENDBRANCH   2  19
TORSDOF 4
