REMARK  Name = ZINC44357914
REMARK  9 active torsions:
REMARK  status: ('A' for Active; 'I' for Inactive)
REMARK    1  A    between atoms: C_1  and  C_2
REMARK    2  A    between atoms: C_2  and  O_3
REMARK    3  A    between atoms: O_3  and  C_4
REMARK    4  A    between atoms: C_4  and  C_6
REMARK    5  A    between atoms: C_6  and  C_8
REMARK    6  A    between atoms: C_6  and  N_18
REMARK    7  A    between atoms: C_8  and  C_9
REMARK    8  A    between atoms: C_11  and  C_17
REMARK    9  A    between atoms: C_14  and  O_15
REMARK                            x       y       z     vdW  Elec       q    Type
REMARK                         _______ _______ _______ _____ _____    ______ ____
ROOT
ATOM      1  C   UNL     1       0.509  -2.323  -3.742  0.00  0.00    +0.033 C 
ENDROOT
BRANCH   1   2
ATOM      2  C   UNL     1       1.238  -2.768  -4.984  0.00  0.00    -0.006 A 
ATOM      3  C   UNL     1       1.087  -4.060  -5.449  0.00  0.00    +0.010 A 
ATOM      4  C   UNL     1       1.755  -4.469  -6.588  0.00  0.00    -0.049 A 
ATOM      5  C   UNL     1       2.576  -3.586  -7.266  0.00  0.00    +0.021 A 
ATOM      6  C   UNL     1       2.730  -2.292  -6.805  0.00  0.00    +0.055 A 
ATOM      7  C   UNL     1       2.057  -1.878  -5.664  0.00  0.00    +0.133 A 
ATOM      8  I   UNL     1       3.974  -0.955  -7.832  0.00  0.00    -0.040 I 
ATOM      9  C   UNL     1       1.589  -5.879  -7.093  0.00  0.00    +0.044 C 
BRANCH   7  10
ATOM     10  O   UNL     1       2.203  -0.605  -5.211  0.00  0.00    -0.505 OA
ATOM     11  H   UNL     1       2.932  -0.491  -4.587  0.00  0.00    +0.292 HD
ENDBRANCH   7  10
ENDBRANCH   1   2
BRANCH   1  12
ATOM     12  C   UNL     1       1.468  -2.353  -2.550  0.00  0.00    +0.040 C 
BRANCH  12  13
ATOM     13  N   UNL     1       1.877  -3.739  -2.285  0.00  0.00    +0.387 N 
ATOM     14  H   UNL     1       1.062  -4.296  -2.076  0.00  0.00    -0.089 HD
ATOM     15  H   UNL     1       2.341  -4.114  -3.099  0.00  0.00    -0.089 HD
ATOM     16  H   UNL     1       2.509  -3.759  -1.499  0.00  0.00    -0.089 HD
ENDBRANCH  12  13
BRANCH  12  17
ATOM     17  C   UNL     1       0.775  -1.794  -1.334  0.00  0.00    +0.293 C 
ATOM     18  O   UNL     1       0.314  -2.540  -0.504  0.00  0.00    -0.253 OA
BRANCH  17  19
ATOM     19  O   UNL     1       0.671  -0.465  -1.174  0.00  0.00    -0.466 OA
BRANCH  19  21
ATOM     20  C   UNL     1      -0.019   1.526   0.010  0.00  0.00    +0.048 C 
ATOM     21  C   UNL     1       0.002  -0.004   0.002  0.00  0.00    +0.228 C 
ENDBRANCH  19  21
ENDBRANCH  17  19
ENDBRANCH  12  17
ENDBRANCH   1  12
TORSDOF 7
