REMARK  Name = ZINC40824748
REMARK  8 active torsions:
REMARK  status: ('A' for Active; 'I' for Inactive)
REMARK    1  A    between atoms: C_1  and  C_2
REMARK    2  A    between atoms: C_6  and  C_7
REMARK    3  A    between atoms: N_9  and  C_10
REMARK    4  A    between atoms: N_9  and  C_11
REMARK    5  A    between atoms: C_16  and  C_17
REMARK    6  A    between atoms: C_17  and  O_19
REMARK    7  A    between atoms: O_19  and  C_20
REMARK    8  A    between atoms: N_25  and  N_26
REMARK                            x       y       z     vdW  Elec       q    Type
REMARK                         _______ _______ _______ _____ _____    ______ ____
ROOT
ATOM      1  C   UNL     1      -0.054   1.501   0.010  0.00  0.00    +0.048 C 
ATOM      2  C   UNL     1      -0.013  -0.005   0.002  0.00  0.00    +0.009 A 
ATOM      3  C   UNL     1       0.002  -0.839  -1.122  0.00  0.00    +0.042 A 
ATOM      4  C   UNL     1       0.040  -2.138  -0.672  0.00  0.00    +0.115 A 
ATOM      5  O   UNL     1       0.051  -2.112   0.658  0.00  0.00    -0.454 OA
ATOM      6  C   UNL     1       0.023  -0.831   1.091  0.00  0.00    +0.193 A 
ATOM      7  C   UNL     1       0.060  -3.327  -1.599  0.00  0.00    +0.075 C 
ATOM      8  C   UNL     1      -0.474  -2.911  -2.972  0.00  0.00    +0.014 C 
ATOM      9  C   UNL     1       0.278  -1.683  -3.495  0.00  0.00    +0.058 C 
ATOM     10  C   UNL     1      -0.015  -0.513  -2.566  0.00  0.00    +0.072 C 
ATOM     11  N   UNL     1      -0.260   0.681  -3.007  0.00  0.00    -0.175 NA
ENDROOT
BRANCH  11  12
ATOM     12  N   UNL     1      -0.262   0.933  -4.385  0.00  0.00    -0.248 N 
ATOM     13  C   UNL     1      -0.521   2.194  -4.851  0.00  0.00    +0.187 C 
ATOM     14  N   UNL     1      -0.524   2.433  -6.162  0.00  0.00    -0.370 N 
ATOM     15  N   UNL     1      -0.771   3.183  -3.993  0.00  0.00    -0.370 N 
ATOM     16  H   UNL     1      -0.081   0.213  -5.010  0.00  0.00    +0.192 HD
ATOM     17  H   UNL     1      -0.342   1.713  -6.787  0.00  0.00    +0.159 HD
ATOM     18  H   UNL     1      -0.769   3.009  -3.038  0.00  0.00    +0.159 HD
ATOM     19  H   UNL     1      -0.954   4.076  -4.323  0.00  0.00    +0.159 HD
ATOM     20  H   UNL     1      -0.707   3.326  -6.492  0.00  0.00    +0.159 HD
ENDBRANCH  11  12
BRANCH   6  21
ATOM     21  C   UNL     1       0.029  -0.400   2.493  0.00  0.00    +0.286 C 
ATOM     22  O   UNL     1       0.102   0.784   2.765  0.00  0.00    -0.266 OA
ATOM     23  N   UNL     1      -0.048  -1.315   3.480  0.00  0.00    -0.267 N 
ATOM     24  C   UNL     1      -0.151  -0.881   4.875  0.00  0.00    +0.139 C 
BRANCH  23  25
ATOM     25  C   UNL     1      -0.029  -2.672   3.173  0.00  0.00    +0.050 A 
ATOM     26  C   UNL     1       1.177  -3.358   3.114  0.00  0.00    +0.024 A 
ATOM     27  C   UNL     1       1.194  -4.704   2.810  0.00  0.00    +0.002 A 
ATOM     28  C   UNL     1       0.011  -5.381   2.561  0.00  0.00    +0.001 A 
ATOM     29  C   UNL     1      -1.196  -4.718   2.614  0.00  0.00    +0.017 A 
ATOM     30  C   UNL     1      -1.229  -3.356   2.927  0.00  0.00    +0.080 A 
BRANCH  30  31
ATOM     31  C   UNL     1      -2.517  -2.642   2.991  0.00  0.00    +0.341 C 
ATOM     32  O   UNL     1      -2.541  -1.457   3.258  0.00  0.00    -0.245 OA
BRANCH  31  33
ATOM     33  O   UNL     1      -3.667  -3.303   2.755  0.00  0.00    -0.464 OA
ATOM     34  C   UNL     1      -4.877  -2.548   2.834  0.00  0.00    +0.280 C 
ENDBRANCH  31  33
ENDBRANCH  30  31
ENDBRANCH  23  25
ENDBRANCH   6  21
TORSDOF 5
