REMARK  Name = ZINC67588882
REMARK  14 active torsions:
REMARK  status: ('A' for Active; 'I' for Inactive)
REMARK    1  A    between atoms: C_1  and  C_2
REMARK    2  A    between atoms: C_6  and  C_29
REMARK    3  A    between atoms: C_7  and  O_8
REMARK    4  A    between atoms: O_8  and  C_9
REMARK    5  A    between atoms: C_9  and  C_10
REMARK    6  A    between atoms: C_10  and  C_12
REMARK    7  A    between atoms: C_10  and  O_28
REMARK    8  A    between atoms: C_12  and  N_13
REMARK    9  A    between atoms: N_16  and  C_17
REMARK   10  A    between atoms: C_17  and  C_18
REMARK   11  A    between atoms: C_18  and  C_20
REMARK   12  A    between atoms: C_18  and  N_25
REMARK   13  A    between atoms: N_25  and  C_26
REMARK   14  A    between atoms: N_25  and  C_27
REMARK                            x       y       z     vdW  Elec       q    Type
REMARK                         _______ _______ _______ _____ _____    ______ ____
ROOT
ATOM      1  N   UNL     1      -1.994   2.053   6.278  0.00  0.00    -0.297 N 
ATOM      2  C   UNL     1      -3.075   2.241   7.062  0.00  0.00    +0.300 C 
ATOM      3  O   UNL     1      -4.149   1.770   6.740  0.00  0.00    -0.253 OA
ATOM      4  N   UNL     1      -2.965   2.950   8.203  0.00  0.00    -0.301 N 
ATOM      5  H   UNL     1      -1.138   2.429   6.535  0.00  0.00    +0.150 HD
ATOM      6  H   UNL     1      -2.108   3.325   8.460  0.00  0.00    +0.150 HD
ENDROOT
BRANCH   1   7
ATOM      7  C   UNL     1      -2.114   1.282   5.038  0.00  0.00    +0.140 C 
BRANCH   7   8
ATOM      8  C   UNL     1      -0.752   1.221   4.343  0.00  0.00    +0.169 C 
BRANCH   8   9
ATOM      9  O   UNL     1      -0.312   2.546   4.040  0.00  0.00    -0.387 OA
ATOM     10  H   UNL     1      -0.908   3.035   3.456  0.00  0.00    +0.210 HD
ENDBRANCH   8   9
BRANCH   8  11
ATOM     11  C   UNL     1      -0.877   0.416   3.048  0.00  0.00    +0.261 C 
BRANCH  11  12
ATOM     12  O   UNL     1       0.415   0.259   2.458  0.00  0.00    -0.489 OA
BRANCH  12  19
ATOM     13  C   UNL     1       0.148   1.716   0.053  0.00  0.00    +0.047 C 
ATOM     14  C   UNL     1       0.357   0.224   0.080  0.00  0.00    -0.009 A 
ATOM     15  C   UNL     1       0.431  -0.485  -1.103  0.00  0.00    +0.007 A 
ATOM     16  C   UNL     1       0.623  -1.854  -1.079  0.00  0.00    +0.001 A 
ATOM     17  C   UNL     1       0.741  -2.517   0.129  0.00  0.00    +0.007 A 
ATOM     18  C   UNL     1       0.668  -1.812   1.315  0.00  0.00    -0.009 A 
ATOM     19  C   UNL     1       0.481  -0.438   1.293  0.00  0.00    +0.126 A 
ATOM     20  C   UNL     1       0.797  -2.535   2.631  0.00  0.00    +0.047 C 
ENDBRANCH  12  19
ENDBRANCH  11  12
ENDBRANCH   8  11
ENDBRANCH   7   8
ENDBRANCH   1   7
BRANCH   4  21
ATOM     21  C   UNL     1      -4.139   3.154   9.055  0.00  0.00    +0.095 C 
BRANCH  21  22
ATOM     22  C   UNL     1      -3.723   3.886  10.331  0.00  0.00    -0.014 C 
BRANCH  22  23
ATOM     23  C   UNL     1      -3.226   5.265   9.980  0.00  0.00    -0.022 A 
ATOM     24  C   UNL     1      -1.951   5.706   9.851  0.00  0.00    +0.009 A 
ATOM     25  C   UNL     1      -1.730   7.029   9.517  0.00  0.00    +0.008 A 
ATOM     26  C   UNL     1      -2.795   7.846   9.327  0.00  0.00    +0.045 A 
ATOM     27  S   UNL     1      -4.165   6.739   9.616  0.00  0.00    -0.103 S 
ENDBRANCH  22  23
BRANCH  22  28
ATOM     28  N   UNL     1      -4.878   3.997  11.232  0.00  0.00    +0.382 N 
ATOM     29  C   UNL     1      -5.341   2.653  11.602  0.00  0.00    -0.096 C 
ATOM     30  C   UNL     1      -4.486   4.730  12.443  0.00  0.00    -0.096 C 
ATOM     31  H   UNL     1      -5.622   4.492  10.765  0.00  0.00    -0.082 HD
ENDBRANCH  22  28
ENDBRANCH  21  22
ENDBRANCH   4  21
TORSDOF 10
