REMARK  Name = ZINC34676722
REMARK  5 active torsions:
REMARK  status: ('A' for Active; 'I' for Inactive)
REMARK    1  A    between atoms: C_1  and  C_2
REMARK    2  A    between atoms: N_17  and  C_20
REMARK    3  A    between atoms: C_25  and  C_27
REMARK    4  A    between atoms: C_27  and  O_28
REMARK    5  A    between atoms: O_28  and  C_29
REMARK                            x       y       z     vdW  Elec       q    Type
REMARK                         _______ _______ _______ _____ _____    ______ ____
ROOT
ATOM      1  C   UNL     1      -1.242  -0.045  -2.295  0.00  0.00    +0.007 C 
ATOM      2  C   UNL     1      -0.589  -0.763  -1.113  0.00  0.00    -0.011 C 
ATOM      3  C   UNL     1      -0.631  -2.275  -1.348  0.00  0.00    +0.022 C 
ATOM      4  C   UNL     1       0.053  -2.989  -0.179  0.00  0.00    +0.107 C 
ATOM      5  N   UNL     1      -0.578  -2.556   1.075  0.00  0.00    -0.315 N 
ATOM      6  C   UNL     1      -0.672  -1.117   1.359  0.00  0.00    +0.107 C 
ATOM      7  C   UNL     1      -1.349  -0.424   0.172  0.00  0.00    +0.022 C 
ATOM      8  C   UNL     1      -1.076  -3.486   1.973  0.00  0.00    +0.131 A 
ATOM      9  C   UNL     1      -0.250  -4.025   2.966  0.00  0.00    +0.031 A 
ATOM     10  C   UNL     1      -0.781  -4.940   3.841  0.00  0.00    +0.054 A 
ATOM     11  N   UNL     1      -2.058  -5.293   3.706  0.00  0.00    -0.219 NA
ATOM     12  C   UNL     1      -2.817  -4.770   2.757  0.00  0.00    +0.220 A 
ATOM     13  N   UNL     1      -2.344  -3.874   1.905  0.00  0.00    -0.199 NA
ATOM     14  N   UNL     1      -4.139  -5.166   2.657  0.00  0.00    -0.303 N 
ATOM     15  C   UNL     1      -5.017  -4.614   1.613  0.00  0.00    +0.089 C 
ATOM     16  C   UNL     1      -5.706  -5.778   0.893  0.00  0.00    -0.060 C 
ATOM     17  N   UNL     1      -6.393  -6.623   1.878  0.00  0.00    +0.380 N 
ATOM     18  C   UNL     1      -5.412  -7.242   2.778  0.00  0.00    -0.060 C 
ATOM     19  C   UNL     1      -4.706  -6.154   3.588  0.00  0.00    +0.089 C 
ATOM     20  C   UNL     1      -7.144  -7.675   1.179  0.00  0.00    -0.096 C 
ATOM     21  C   UNL     1       0.012  -5.555   4.962  0.00  0.00    +0.075 C 
ATOM     22  C   UNL     1       1.512  -5.433   4.695  0.00  0.00    +0.114 C 
ATOM     23  N   UNL     1       1.791  -4.048   4.283  0.00  0.00    -0.295 N 
ATOM     24  C   UNL     1       1.188  -3.583   3.028  0.00  0.00    +0.148 C 
ATOM     25  C   UNL     1       2.569  -3.238   5.028  0.00  0.00    +0.242 C 
ATOM     26  O   UNL     1       2.784  -2.101   4.666  0.00  0.00    -0.273 OA
ATOM     27  H   UNL     1      -7.033  -6.058   2.417  0.00  0.00    -0.082 HD
ENDROOT
BRANCH  25  28
ATOM     28  C   UNL     1       3.173  -3.747   6.312  0.00  0.00    +0.255 C 
BRANCH  28  29
ATOM     29  O   UNL     1       3.951  -2.710   6.915  0.00  0.00    -0.374 OA
ATOM     30  C   UNL     1       4.571  -3.090   8.146  0.00  0.00    +0.194 C 
ENDBRANCH  28  29
ENDBRANCH  25  28
TORSDOF 2
