REMARK  Name = ZINC34957803
REMARK  7 active torsions:
REMARK  status: ('A' for Active; 'I' for Inactive)
REMARK    1  A    between atoms: C_1  and  O_2
REMARK    2  A    between atoms: O_2  and  C_3
REMARK    3  A    between atoms: C_3  and  C_4
REMARK    4  A    between atoms: C_4  and  C_5
REMARK    5  A    between atoms: C_8  and  C_11
REMARK    6  A    between atoms: C_11  and  C_13
REMARK    7  A    between atoms: C_11  and  N_20
REMARK                            x       y       z     vdW  Elec       q    Type
REMARK                         _______ _______ _______ _____ _____    ______ ____
ROOT
ATOM      1  C   UNL     1       3.240  -4.387  -5.650  0.00  0.00    -0.013 C 
ENDROOT
BRANCH   1   2
ATOM      2  C   UNL     1       3.416  -5.869  -5.443  0.00  0.00    -0.058 A 
ATOM      3  C   UNL     1       4.450  -6.339  -4.656  0.00  0.00    +0.003 A 
ATOM      4  C   UNL     1       4.611  -7.699  -4.465  0.00  0.00    +0.014 A 
ATOM      5  C   UNL     1       3.737  -8.589  -5.062  0.00  0.00    +0.013 A 
ATOM      6  C   UNL     1       2.702  -8.118  -5.849  0.00  0.00    +0.014 A 
ATOM      7  C   UNL     1       2.538  -6.758  -6.035  0.00  0.00    +0.003 A 
ATOM      8  I   UNL     1       3.981 -10.649  -4.774  0.00  0.00    -0.044 I 
ENDBRANCH   1   2
BRANCH   1  12
ATOM      9  C   UNL     1       1.298  -2.694  -2.243  0.00  0.00    -0.045 A 
ATOM     10  C   UNL     1       0.571  -2.973  -3.385  0.00  0.00    +0.004 A 
ATOM     11  C   UNL     1       1.200  -3.521  -4.488  0.00  0.00    +0.002 A 
ATOM     12  C   UNL     1       2.555  -3.789  -4.449  0.00  0.00    -0.058 A 
ATOM     13  C   UNL     1       3.283  -3.509  -3.307  0.00  0.00    +0.002 A 
ATOM     14  C   UNL     1       2.655  -2.957  -2.206  0.00  0.00    +0.004 A 
BRANCH   9  15
ATOM     15  C   UNL     1       0.613  -2.097  -1.041  0.00  0.00    +0.063 C 
BRANCH  15  16
ATOM     16  C   UNL     1       0.652  -0.570  -1.138  0.00  0.00    +0.164 C 
BRANCH  16  18
ATOM     17  C   UNL     1      -0.017   1.425   0.010  0.00  0.00    +0.193 C 
ATOM     18  O   UNL     1       0.002  -0.004   0.002  0.00  0.00    -0.383 OA
ENDBRANCH  16  18
ENDBRANCH  15  16
ENDBRANCH   9  15
ENDBRANCH   1  12
BRANCH   1  19
ATOM     19  N   UNL     1       4.556  -3.758  -5.827  0.00  0.00    +0.385 N 
ATOM     20  H   UNL     1       5.119  -3.919  -5.005  0.00  0.00    -0.089 HD
ATOM     21  H   UNL     1       5.015  -4.159  -6.632  0.00  0.00    -0.089 HD
ATOM     22  H   UNL     1       4.439  -2.766  -5.966  0.00  0.00    -0.089 HD
ENDBRANCH   1  19
TORSDOF 6
