REMARK  Name = ZINC63269900
REMARK  9 active torsions:
REMARK  status: ('A' for Active; 'I' for Inactive)
REMARK    1  A    between atoms: C_1  and  C_2
REMARK    2  A    between atoms: C_13  and  O_15
REMARK    3  A    between atoms: N_21  and  O_22
REMARK    4  A    between atoms: O_22  and  C_23
REMARK    5  A    between atoms: C_23  and  C_24
REMARK    6  A    between atoms: N_26  and  C_27
REMARK    7  A    between atoms: C_27  and  C_28
REMARK    8  A    between atoms: C_28  and  C_29
REMARK    9  A    between atoms: C_41  and  C_42
REMARK                            x       y       z     vdW  Elec       q    Type
REMARK                         _______ _______ _______ _____ _____    ______ ____
ROOT
ATOM      1  C   UNL     1      -0.019   1.523   0.010  0.00  0.00    +0.014 C 
ATOM      2  C   UNL     1       0.002  -0.004   0.002  0.00  0.00    -0.003 C 
ATOM      3  C   UNL     1      -1.387  -0.595   0.018  0.00  0.00    +0.010 C 
ATOM      4  C   UNL     1      -1.966  -0.623   1.432  0.00  0.00    +0.005 C 
ATOM      5  C   UNL     1      -1.160   0.177   2.440  0.00  0.00    +0.002 C 
ATOM      6  C   UNL     1       0.298  -0.265   2.505  0.00  0.00    -0.003 C 
ATOM      7  C   UNL     1       0.833  -0.616   1.150  0.00  0.00    +0.001 C 
ATOM      8  C   UNL     1       2.258  -0.171   0.812  0.00  0.00    +0.007 C 
ATOM      9  C   UNL     1       2.301  -0.173  -0.738  0.00  0.00    +0.032 C 
ATOM     10  C   UNL     1       0.852  -0.466  -1.210  0.00  0.00    +0.121 C 
ATOM     11  C   UNL     1       1.151   0.768   3.229  0.00  0.00    +0.008 C 
ATOM     12  C   UNL     1       0.403   1.328   4.439  0.00  0.00    +0.031 C 
ATOM     13  C   UNL     1      -0.692   0.370   4.845  0.00  0.00    -0.062 C 
ATOM     14  C   UNL     1      -0.696  -0.162   6.058  0.00  0.00    +0.026 C 
ATOM     15  C   UNL     1      -1.743  -1.102   6.473  0.00  0.00    +0.080 C 
ATOM     16  N   UNL     1      -1.759  -1.552   7.689  0.00  0.00    -0.089 NA
ATOM     17  C   UNL     1      -2.796  -1.549   5.493  0.00  0.00    +0.059 C 
ATOM     18  C   UNL     1      -2.282  -1.377   4.062  0.00  0.00    +0.017 C 
ATOM     19  C   UNL     1      -1.774   0.043   3.845  0.00  0.00    -0.007 C 
ATOM     20  C   UNL     1      -2.921   1.047   3.986  0.00  0.00    +0.016 C 
ENDROOT
BRANCH  10  21
ATOM     21  O   UNL     1       0.524   0.305  -2.364  0.00  0.00    -0.391 OA
ATOM     22  H   UNL     1       1.024   0.062  -3.155  0.00  0.00    +0.210 HD
ENDBRANCH  10  21
BRANCH  16  23
ATOM     23  O   UNL     1      -0.768  -1.135   8.611  0.00  0.00    -0.384 OA
BRANCH  23  24
ATOM     24  C   UNL     1      -0.907  -1.708   9.912  0.00  0.00    +0.358 C 
BRANCH  24  25
ATOM     25  C   UNL     1       0.193  -1.198  10.807  0.00  0.00    +0.253 C 
ATOM     26  O   UNL     1       1.016  -0.420  10.372  0.00  0.00    -0.272 OA
ATOM     27  N   UNL     1       0.263  -1.606  12.089  0.00  0.00    -0.312 N 
ATOM     28  H   UNL     1      -0.395  -2.228  12.437  0.00  0.00    +0.149 HD
BRANCH  27  29
ATOM     29  C   UNL     1       1.333  -1.110  12.958  0.00  0.00    +0.106 C 
BRANCH  29  30
ATOM     30  C   UNL     1       1.184  -1.724  14.352  0.00  0.00    +0.047 C 
BRANCH  30  31
ATOM     31  C   UNL     1       2.301  -1.206  15.260  0.00  0.00    +0.104 C 
ATOM     32  C   UNL     1       2.206  -1.852  16.624  0.00  0.00    +0.007 C 
ATOM     33  C   UNL     1       2.013  -0.843  17.503  0.00  0.00    -0.004 A 
ATOM     34  C   UNL     1       1.845  -0.813  18.961  0.00  0.00    +0.010 A 
ATOM     35  C   UNL     1       1.665   0.378  19.577  0.00  0.00    +0.001 A 
ATOM     36  C   UNL     1       1.635   1.581  18.859  0.00  0.00    +0.002 A 
ATOM     37  C   UNL     1       1.783   1.635  17.518  0.00  0.00    +0.026 A 
ATOM     38  C   UNL     1       1.978   0.442  16.769  0.00  0.00    +0.043 A 
ATOM     39  N   UNL     1       2.144   0.235  15.483  0.00  0.00    -0.378 N 
ATOM     40  H   UNL     1       2.160   0.920  14.796  0.00  0.00    +0.160 HD
ENDBRANCH  30  31
ENDBRANCH  29  30
ENDBRANCH  27  29
ENDBRANCH  24  25
ENDBRANCH  23  24
ENDBRANCH  16  23
TORSDOF 7
