REMARK  Name = ZINC52831762
REMARK  11 active torsions:
REMARK  status: ('A' for Active; 'I' for Inactive)
REMARK    1  A    between atoms: C_1  and  C_2
REMARK    2  A    between atoms: C_2  and  C_3
REMARK    3  A    between atoms: C_3  and  C_4
REMARK    4  A    between atoms: C_7  and  C_10
REMARK    5  A    between atoms: C_10  and  C_11
REMARK    6  A    between atoms: C_10  and  N_16
REMARK    7  A    between atoms: C_17  and  C_19
REMARK    8  A    between atoms: C_19  and  N_20
REMARK    9  A    between atoms: N_20  and  C_21
REMARK   10  A    between atoms: N_20  and  C_22
REMARK   11  A    between atoms: C_22  and  C_23
REMARK                            x       y       z     vdW  Elec       q    Type
REMARK                         _______ _______ _______ _____ _____    ______ ____
ROOT
ATOM      1  C   UNL     1      -1.355  -6.312  -0.019  0.00  0.00    +0.140 C 
ENDROOT
BRANCH   1   5
ATOM      2  C   UNL     1      -1.413  -2.041   0.005  0.00  0.00    -0.047 A 
ATOM      3  C   UNL     1      -1.409  -2.725  -1.196  0.00  0.00    +0.004 A 
ATOM      4  C   UNL     1      -1.391  -4.107  -1.204  0.00  0.00    +0.006 A 
ATOM      5  C   UNL     1      -1.375  -4.805  -0.011  0.00  0.00    -0.022 A 
ATOM      6  C   UNL     1      -1.378  -4.120   1.190  0.00  0.00    +0.006 A 
ATOM      7  C   UNL     1      -1.392  -2.738   1.198  0.00  0.00    +0.004 A 
BRANCH   2   8
ATOM      8  C   UNL     1      -1.433  -0.534   0.013  0.00  0.00    +0.035 C 
BRANCH   8  10
ATOM      9  C   UNL     1      -0.019   1.526   0.010  0.00  0.00    +0.004 C 
ATOM     10  C   UNL     1       0.002  -0.004   0.002  0.00  0.00    +0.001 C 
ENDBRANCH   8  10
ENDBRANCH   2   8
ENDBRANCH   1   5
BRANCH   1  11
ATOM     11  C   UNL     1      -2.747  -6.833   0.233  0.00  0.00    +0.014 A 
ATOM     12  C   UNL     1      -3.656  -7.302  -0.656  0.00  0.00    +0.013 A 
ATOM     13  C   UNL     1      -4.885  -7.735  -0.193  0.00  0.00    +0.008 A 
ATOM     14  C   UNL     1      -5.144  -7.677   1.136  0.00  0.00    +0.045 A 
ATOM     15  S   UNL     1      -3.622  -7.002   1.780  0.00  0.00    -0.099 S 
ENDBRANCH   1  11
BRANCH   1  16
ATOM     16  N   UNL     1      -0.456  -6.794   1.032  0.00  0.00    -0.306 N 
ATOM     17  C   UNL     1       0.119  -8.008   0.921  0.00  0.00    +0.197 C 
ATOM     18  O   UNL     1      -0.109  -8.701  -0.048  0.00  0.00    -0.278 OA
ATOM     19  H   UNL     1      -0.273  -6.240   1.806  0.00  0.00    +0.150 HD
BRANCH  17  20
ATOM     20  C   UNL     1       1.045  -8.505   2.002  0.00  0.00    +0.019 C 
BRANCH  20  21
ATOM     21  N   UNL     1       1.536  -9.843   1.649  0.00  0.00    +0.389 N 
ATOM     22  C   UNL     1       0.413 -10.790   1.635  0.00  0.00    -0.095 C 
ATOM     23  H   UNL     1       1.964  -9.815   0.735  0.00  0.00    -0.081 HD
BRANCH  21  24
ATOM     24  C   UNL     1       2.530 -10.277   2.640  0.00  0.00    +0.019 C 
BRANCH  24  25
ATOM     25  C   UNL     1       3.124 -11.595   2.213  0.00  0.00    +0.194 C 
ATOM     26  O   UNL     1       2.756 -12.120   1.183  0.00  0.00    -0.278 OA
ATOM     27  N   UNL     1       4.064 -12.189   2.974  0.00  0.00    -0.331 N 
ATOM     28  H   UNL     1       4.358 -11.769   3.797  0.00  0.00    +0.145 HD
ATOM     29  H   UNL     1       4.446 -13.037   2.699  0.00  0.00    +0.145 HD
ENDBRANCH  24  25
ENDBRANCH  21  24
ENDBRANCH  20  21
ENDBRANCH  17  20
ENDBRANCH   1  16
TORSDOF 9
