REMARK  Name = ZINC13817452
REMARK  9 active torsions:
REMARK  status: ('A' for Active; 'I' for Inactive)
REMARK    1  A    between atoms: C_4  and  C_7
REMARK    2  A    between atoms: C_7  and  C_8
REMARK    3  A    between atoms: C_8  and  C_9
REMARK    4  A    between atoms: C_9  and  N_10
REMARK    5  A    between atoms: N_10  and  C_11
REMARK    6  A    between atoms: C_11  and  N_13
REMARK    7  A    between atoms: N_13  and  C_14
REMARK    8  A    between atoms: C_17  and  S_20
REMARK    9  A    between atoms: S_20  and  N_23
REMARK                            x       y       z     vdW  Elec       q    Type
REMARK                         _______ _______ _______ _____ _____    ______ ____
ROOT
ATOM      1  N   UNL     1       7.511  -2.829   4.253  0.00  0.00    -0.297 N 
ATOM      2  H   UNL     1       6.856  -2.704   4.957  0.00  0.00    +0.154 HD
ENDROOT
BRANCH   1   3
ATOM      3  C   UNL     1       8.659  -3.592   4.494  0.00  0.00    +0.033 A 
ATOM      4  C   UNL     1       9.902  -3.127   4.086  0.00  0.00    +0.025 A 
ATOM      5  C   UNL     1      11.034  -3.882   4.326  0.00  0.00    +0.030 A 
ATOM      6  C   UNL     1      10.929  -5.100   4.972  0.00  0.00    +0.105 A 
ATOM      7  C   UNL     1       9.693  -5.566   5.380  0.00  0.00    +0.030 A 
ATOM      8  C   UNL     1       8.558  -4.813   5.148  0.00  0.00    +0.025 A 
BRANCH   6   9
ATOM      9  S   UNL     1      12.374  -6.061   5.276  0.00  0.00    +0.056 S 
ATOM     10  O   UNL     1      11.945  -7.409   5.408  0.00  0.00    -0.153 OA
ATOM     11  O   UNL     1      13.339  -5.660   4.312  0.00  0.00    -0.153 OA
BRANCH   9  12
ATOM     12  N   UNL     1      12.964  -5.605   6.754  0.00  0.00    -0.204 NA
ATOM     13  H   UNL     1      12.508  -4.920   7.268  0.00  0.00    +0.144 HD
ATOM     14  H   UNL     1      13.766  -6.022   7.107  0.00  0.00    +0.144 HD
ENDBRANCH   9  12
ENDBRANCH   6   9
ENDBRANCH   1   3
BRANCH   1  15
ATOM     15  C   UNL     1       7.317  -2.269   3.043  0.00  0.00    +0.135 C 
ATOM     16  S   UNL     1       8.524  -2.398   1.835  0.00  0.00    -0.019 S 
BRANCH  15  17
ATOM     17  N   UNL     1       6.173  -1.606   2.783  0.00  0.00    -0.326 N 
ATOM     18  H   UNL     1       5.489  -1.532   3.467  0.00  0.00    +0.148 HD
BRANCH  17  19
ATOM     19  C   UNL     1       5.961  -0.997   1.468  0.00  0.00    +0.103 C 
BRANCH  19  20
ATOM     20  C   UNL     1       4.593  -0.312   1.437  0.00  0.00    +0.023 C 
BRANCH  20  21
ATOM     21  C   UNL     1       4.372   0.324   0.063  0.00  0.00    +0.036 C 
BRANCH  21  25
ATOM     22  C   UNL     1       0.554   2.236  -0.026  0.00  0.00    +0.000 A 
ATOM     23  C   UNL     1       1.671   2.942   0.379  0.00  0.00    +0.000 A 
ATOM     24  C   UNL     1       2.907   2.324   0.408  0.00  0.00    +0.003 A 
ATOM     25  C   UNL     1       3.025   0.999   0.032  0.00  0.00    -0.047 A 
ATOM     26  C   UNL     1       1.908   0.292  -0.372  0.00  0.00    +0.003 A 
ATOM     27  C   UNL     1       0.672   0.912  -0.403  0.00  0.00    +0.000 A 
ENDBRANCH  21  25
ENDBRANCH  20  21
ENDBRANCH  19  20
ENDBRANCH  17  19
ENDBRANCH  15  17
ENDBRANCH   1  15
TORSDOF 9
