REMARK  Name = ZINC35954558
REMARK  14 active torsions:
REMARK  status: ('A' for Active; 'I' for Inactive)
REMARK    1  A    between atoms: C_1  and  C_2
REMARK    2  A    between atoms: C_2  and  C_3
REMARK    3  A    between atoms: C_4  and  C_22
REMARK    4  A    between atoms: C_5  and  N_15
REMARK    5  A    between atoms: N_6  and  C_8
REMARK    6  A    between atoms: N_18  and  C_21
REMARK    7  A    between atoms: C_22  and  N_23
REMARK    8  A    between atoms: N_23  and  C_24
REMARK    9  A    between atoms: N_23  and  C_31
REMARK   10  A    between atoms: C_24  and  C_25
REMARK   11  A    between atoms: C_28  and  C_30
REMARK   12  A    between atoms: C_31  and  C_33
REMARK   13  A    between atoms: C_31  and  C_34
REMARK   14  A    between atoms: C_34  and  C_35
REMARK                            x       y       z     vdW  Elec       q    Type
REMARK                         _______ _______ _______ _____ _____    ______ ____
ROOT
ATOM      1  C   UNL     1      -0.317  -0.173  -0.758  0.00  0.00    +0.066 A 
ATOM      2  C   UNL     1      -0.695  -0.525  -2.057  0.00  0.00    -0.001 A 
ATOM      3  C   UNL     1       0.286  -1.314  -2.578  0.00  0.00    +0.126 A 
ATOM      4  N   UNL     1       1.249  -1.449  -1.627  0.00  0.00    -0.218 N 
ATOM      5  N   UNL     1       0.845  -0.719  -0.502  0.00  0.00    -0.169 NA
ENDROOT
BRANCH   3   6
ATOM      6  N   UNL     1       0.299  -1.879  -3.850  0.00  0.00    -0.318 N 
ATOM      7  C   UNL     1       0.771  -1.111  -5.014  0.00  0.00    +0.088 C 
ATOM      8  C   UNL     1       1.801  -1.958  -5.769  0.00  0.00    -0.060 C 
ATOM      9  N   UNL     1       1.213  -3.261  -6.101  0.00  0.00    +0.380 N 
ATOM     10  C   UNL     1       0.917  -4.005  -4.870  0.00  0.00    -0.060 C 
ATOM     11  C   UNL     1      -0.152  -3.262  -4.069  0.00  0.00    +0.088 C 
ATOM     12  C   UNL     1       2.161  -4.030  -6.919  0.00  0.00    -0.096 C 
ATOM     13  H   UNL     1       0.360  -3.121  -6.621  0.00  0.00    -0.082 HD
ENDBRANCH   3   6
BRANCH   4  14
ATOM     14  C   UNL     1       2.436  -2.185  -1.752  0.00  0.00    +0.068 A 
ATOM     15  C   UNL     1       2.398  -3.495  -2.209  0.00  0.00    +0.030 A 
ATOM     16  C   UNL     1       3.568  -4.217  -2.332  0.00  0.00    +0.040 A 
ATOM     17  C   UNL     1       4.780  -3.635  -2.000  0.00  0.00    +0.124 A 
ATOM     18  C   UNL     1       4.821  -2.329  -1.543  0.00  0.00    +0.040 A 
ATOM     19  C   UNL     1       3.653  -1.601  -1.424  0.00  0.00    +0.030 A 
ATOM     20  F   UNL     1       5.924  -4.344  -2.120  0.00  0.00    -0.205 F 
ENDBRANCH   4  14
BRANCH   1  22
ATOM     21  C   UNL     1      -0.747   2.162  -0.043  0.00  0.00    +0.010 C 
ATOM     22  C   UNL     1      -1.110   0.693   0.185  0.00  0.00    +0.054 C 
ENDBRANCH   1  22
BRANCH   2  23
ATOM     23  C   UNL     1      -1.962  -0.106  -2.757  0.00  0.00    -0.037 C 
BRANCH  23  24
ATOM     24  N   UNL     1      -3.120  -0.673  -2.053  0.00  0.00    +0.387 N 
ATOM     25  H   UNL     1      -2.970  -0.614  -1.057  0.00  0.00    -0.080 HD
BRANCH  24  26
ATOM     26  C   UNL     1      -3.288  -2.080  -2.441  0.00  0.00    -0.071 C 
ATOM     27  C   UNL     1      -3.187  -2.205  -3.962  0.00  0.00    -0.013 C 
BRANCH  26  28
ATOM     28  C   UNL     1      -2.193  -2.924  -1.786  0.00  0.00    -0.019 C 
ATOM     29  C   UNL     1      -2.374  -2.903  -0.266  0.00  0.00    +0.002 C 
ENDBRANCH  26  28
ENDBRANCH  24  26
BRANCH  24  30
ATOM     30  C   UNL     1      -4.329   0.082  -2.412  0.00  0.00    -0.035 C 
BRANCH  30  31
ATOM     31  C   UNL     1      -5.488  -0.400  -1.578  0.00  0.00    -0.026 A 
ATOM     32  C   UNL     1      -5.954   0.088  -0.403  0.00  0.00    +0.009 A 
ATOM     33  C   UNL     1      -7.045  -0.520   0.190  0.00  0.00    +0.011 A 
ATOM     34  C   UNL     1      -7.616  -1.587  -0.422  0.00  0.00    -0.013 A 
ATOM     35  S   UNL     1      -6.607  -1.756  -1.885  0.00  0.00    -0.100 S 
ATOM     36  C   UNL     1      -8.798  -2.412   0.016  0.00  0.00    +0.051 C 
ENDBRANCH  30  31
ENDBRANCH  24  30
ENDBRANCH  23  24
ENDBRANCH   2  23
TORSDOF 9
