REMARK  Name = ZINC08747225
REMARK  5 active torsions:
REMARK  status: ('A' for Active; 'I' for Inactive)
REMARK    1  A    between atoms: C_1  and  C_2
REMARK    2  A    between atoms: C_2  and  C_4
REMARK    3  A    between atoms: C_2  and  N_54
REMARK    4  A    between atoms: N_14  and  C_17
REMARK    5  A    between atoms: C_20  and  N_27
REMARK                            x       y       z     vdW  Elec       q    Type
REMARK                         _______ _______ _______ _____ _____    ______ ____
ROOT
ATOM      1  C   UNL     1      -1.051  -0.612  -4.644  0.00  0.00    -0.059 C 
ATOM      2  C   UNL     1      -1.491  -1.801  -5.501  0.00  0.00    +0.086 C 
ATOM      3  N   UNL     1      -2.287  -1.315  -6.636  0.00  0.00    -0.333 N 
ATOM      4  C   UNL     1      -3.474  -0.586  -6.170  0.00  0.00    +0.086 C 
ATOM      5  C   UNL     1      -3.034   0.604  -5.313  0.00  0.00    -0.059 C 
ATOM      6  N   UNL     1      -2.254   0.100  -4.163  0.00  0.00    +0.389 N 
ATOM      7  H   UNL     1      -2.836  -0.554  -3.625  0.00  0.00    -0.081 HD
ENDROOT
BRANCH   3   8
ATOM      8  C   UNL     1      -2.645  -2.365  -7.480  0.00  0.00    +0.038 A 
ATOM      9  C   UNL     1      -2.437  -3.673  -7.094  0.00  0.00    +0.026 A 
ATOM     10  C   UNL     1      -2.796  -4.727  -7.928  0.00  0.00    +0.035 A 
ATOM     11  C   UNL     1      -3.353  -4.501  -9.151  0.00  0.00    +0.135 A 
ATOM     12  C   UNL     1      -3.576  -3.185  -9.584  0.00  0.00    +0.032 A 
ATOM     13  C   UNL     1      -3.219  -2.102  -8.739  0.00  0.00    +0.008 A 
ATOM     14  C   UNL     1      -3.454  -0.795  -9.198  0.00  0.00    +0.030 A 
ATOM     15  C   UNL     1      -4.012  -0.624 -10.428  0.00  0.00    +0.111 A 
ATOM     16  N   UNL     1      -4.338  -1.653 -11.198  0.00  0.00    -0.263 NA
ATOM     17  C   UNL     1      -4.147  -2.900 -10.835  0.00  0.00    +0.121 A 
BRANCH  11  18
ATOM     18  N   UNL     1      -3.720  -5.641 -10.021  0.00  0.00    +0.057 N 
ATOM     19  O   UNL     1      -4.180  -6.657  -9.532  0.00  0.00    -0.126 OA
ATOM     20  O   UNL     1      -3.562  -5.563 -11.226  0.00  0.00    -0.126 OA
ENDBRANCH  11  18
ENDBRANCH   3   8
BRANCH   6  22
ATOM     21  C   UNL     1      -3.120   1.958  -2.823  0.00  0.00    -0.004 C 
ATOM     22  C   UNL     1      -1.860   1.224  -3.288  0.00  0.00    +0.016 C 
BRANCH  22  23
ATOM     23  C   UNL     1      -1.127   0.678  -2.090  0.00  0.00    +0.202 C 
ATOM     24  O   UNL     1      -1.263  -0.485  -1.774  0.00  0.00    -0.277 OA
ATOM     25  N   UNL     1      -0.319   1.482  -1.370  0.00  0.00    -0.298 N 
ATOM     26  C   UNL     1       0.324   1.001  -0.137  0.00  0.00    +0.136 C 
ATOM     27  C   UNL     1       0.056   2.020   0.977  0.00  0.00    +0.179 C 
ATOM     28  O   UNL     1       0.439   3.321   0.526  0.00  0.00    -0.377 OA
ATOM     29  C   UNL     1      -0.304   3.793  -0.600  0.00  0.00    +0.179 C 
ATOM     30  C   UNL     1      -0.054   2.865  -1.794  0.00  0.00    +0.136 C 
ENDBRANCH  22  23
ENDBRANCH   6  22
TORSDOF 4
