REMARK  Name = ZINC12197731
REMARK  13 active torsions:
REMARK  status: ('A' for Active; 'I' for Inactive)
REMARK    1  A    between atoms: C_1  and  C_2
REMARK    2  A    between atoms: C_2  and  C_6
REMARK    3  A    between atoms: C_6  and  N_65
REMARK    4  A    between atoms: C_7  and  C_8
REMARK    5  A    between atoms: C_7  and  N_65
REMARK    6  A    between atoms: C_11  and  O_27
REMARK    7  A    between atoms: C_13  and  O_14
REMARK    8  A    between atoms: O_14  and  C_15
REMARK    9  A    between atoms: C_15  and  C_16
REMARK   10  A    between atoms: C_16  and  C_18
REMARK   11  A    between atoms: C_16  and  O_26
REMARK   12  A    between atoms: C_18  and  N_68
REMARK   13  A    between atoms: O_27  and  C_28
REMARK                            x       y       z     vdW  Elec       q    Type
REMARK                         _______ _______ _______ _____ _____    ______ ____
ROOT
ATOM      1  C   UNL     1       1.175   1.782   0.000  0.00  0.00    -0.022 A 
ATOM      2  C   UNL     1      -0.013   1.076   0.008  0.00  0.00    +0.009 A 
ATOM      3  C   UNL     1      -1.219   1.749   0.017  0.00  0.00    +0.046 A 
ATOM      4  C   UNL     1      -1.240   3.137   0.031  0.00  0.00    +0.124 A 
ATOM      5  C   UNL     1      -0.050   3.847   0.024  0.00  0.00    +0.091 A 
ATOM      6  C   UNL     1       1.159   3.169   0.009  0.00  0.00    +0.125 A 
ENDROOT
BRANCH   4   7
ATOM      7  O   UNL     1      -2.427   3.799   0.045  0.00  0.00    -0.495 OA
ATOM      8  C   UNL     1      -3.614   3.002   0.052  0.00  0.00    +0.277 C 
ENDBRANCH   4   7
BRANCH   1   9
ATOM      9  C   UNL     1       2.490   1.044  -0.016  0.00  0.00    -0.043 C 
BRANCH   9  10
ATOM     10  N   UNL     1       3.042   1.011   1.351  0.00  0.00    +0.382 N 
ATOM     11  H   UNL     1       3.187   1.973   1.681  0.00  0.00    -0.085 HD
ATOM     12  H   UNL     1       2.381   0.531   1.972  0.00  0.00    -0.085 HD
BRANCH  10  13
ATOM     13  C   UNL     1       4.331   0.294   1.365  0.00  0.00    -0.071 C 
BRANCH  13  15
ATOM     14  C   UNL     1       3.854  -0.204   3.821  0.00  0.00    +0.014 C 
ATOM     15  C   UNL     1       4.880   0.276   2.793  0.00  0.00    -0.000 C 
ATOM     16  C   UNL     1       5.605   1.573   3.197  0.00  0.00    +0.166 C 
ATOM     17  O   UNL     1       6.595   0.700   3.784  0.00  0.00    -0.379 OA
ATOM     18  C   UNL     1       6.255  -0.405   2.923  0.00  0.00    +0.166 C 
ENDBRANCH  13  15
ENDBRANCH  10  13
ENDBRANCH   9  10
ENDBRANCH   1   9
BRANCH   6  19
ATOM     19  O   UNL     1       2.328   3.863   0.002  0.00  0.00    -0.489 OA
BRANCH  19  20
ATOM     20  C   UNL     1       2.236   5.289   0.011  0.00  0.00    +0.258 C 
BRANCH  20  21
ATOM     21  C   UNL     1       3.642   5.891   0.002  0.00  0.00    +0.135 C 
BRANCH  21  22
ATOM     22  O   UNL     1       4.315   5.548   1.215  0.00  0.00    -0.390 OA
ATOM     23  H   UNL     1       3.873   5.867   2.014  0.00  0.00    +0.210 HD
ENDBRANCH  21  22
BRANCH  21  24
ATOM     24  C   UNL     1       3.545   7.413  -0.114  0.00  0.00    -0.044 C 
BRANCH  24  32
ATOM     25  C   UNL     1       5.690   7.230  -1.220  0.00  0.00    -0.079 C 
ATOM     26  C   UNL     1       6.971   7.994  -1.552  0.00  0.00    -0.019 C 
ATOM     27  C   UNL     1       7.975   7.824  -0.406  0.00  0.00    -0.002 C 
ATOM     28  C   UNL     1       7.527   8.689   0.775  0.00  0.00    -0.000 C 
ATOM     29  C   UNL     1       7.086  10.059   0.261  0.00  0.00    -0.002 C 
ATOM     30  C   UNL     1       5.580  10.223   0.466  0.00  0.00    -0.019 C 
ATOM     31  C   UNL     1       4.832   9.408  -0.594  0.00  0.00    -0.079 C 
ATOM     32  N   UNL     1       4.906   7.979  -0.217  0.00  0.00    +0.381 N 
ATOM     33  H   UNL     1       5.370   7.899   0.696  0.00  0.00    -0.082 HD
ENDBRANCH  24  32
ENDBRANCH  21  24
ENDBRANCH  20  21
ENDBRANCH  19  20
ENDBRANCH   6  19
TORSDOF 11
