REMARK  Name = ZINC48255445
REMARK  12 active torsions:
REMARK  status: ('A' for Active; 'I' for Inactive)
REMARK    1  A    between atoms: C_1  and  C_2
REMARK    2  A    between atoms: C_5  and  N_23
REMARK    3  A    between atoms: C_7  and  N_8
REMARK    4  A    between atoms: N_11  and  C_12
REMARK    5  A    between atoms: C_12  and  C_13
REMARK    6  A    between atoms: C_13  and  C_15
REMARK    7  A    between atoms: C_13  and  N_20
REMARK    8  A    between atoms: N_20  and  C_21
REMARK    9  A    between atoms: N_20  and  C_22
REMARK   10  A    between atoms: C_24  and  C_26
REMARK   11  A    between atoms: C_26  and  C_27
REMARK   12  A    between atoms: C_26  and  C_28
REMARK                            x       y       z     vdW  Elec       q    Type
REMARK                         _______ _______ _______ _____ _____    ______ ____
ROOT
ATOM      1  N   UNL     1       0.930  -1.699   2.847  0.00  0.00    -0.269 N 
ATOM      2  C   UNL     1       1.434  -2.849   3.338  0.00  0.00    +0.304 C 
ATOM      3  O   UNL     1       1.470  -3.844   2.640  0.00  0.00    -0.253 OA
ATOM      4  N   UNL     1       1.899  -2.895   4.602  0.00  0.00    -0.300 N 
ATOM      5  H   UNL     1       0.959  -0.890   3.381  0.00  0.00    +0.156 HD
ATOM      6  H   UNL     1       1.870  -2.101   5.159  0.00  0.00    +0.150 HD
ENDROOT
BRANCH   1  13
ATOM      7  C   UNL     1      -1.132   0.189   2.329  0.00  0.00    +0.045 C 
ATOM      8  C   UNL     1      -0.645  -0.767   1.271  0.00  0.00    -0.029 A 
ATOM      9  C   UNL     1      -1.200  -0.737   0.006  0.00  0.00    +0.007 A 
ATOM     10  C   UNL     1      -0.757  -1.612  -0.967  0.00  0.00    +0.024 A 
ATOM     11  C   UNL     1       0.249  -2.525  -0.675  0.00  0.00    +0.035 A 
ATOM     12  C   UNL     1       0.808  -2.558   0.594  0.00  0.00    +0.047 A 
ATOM     13  C   UNL     1       0.364  -1.674   1.567  0.00  0.00    +0.039 A 
BRANCH  11  14
ATOM     14  N   UNL     1       0.697  -3.412  -1.661  0.00  0.00    -0.285 N 
ATOM     15  C   UNL     1       0.723  -3.027  -2.952  0.00  0.00    +0.220 C 
ATOM     16  O   UNL     1       0.445  -1.884  -3.250  0.00  0.00    -0.275 OA
ATOM     17  H   UNL     1       0.989  -4.303  -1.415  0.00  0.00    +0.155 HD
BRANCH  15  18
ATOM     18  C   UNL     1       1.096  -4.016  -4.026  0.00  0.00    +0.069 C 
ATOM     19  C   UNL     1       0.109  -5.185  -4.008  0.00  0.00    +0.017 C 
ATOM     20  C   UNL     1       1.048  -3.328  -5.392  0.00  0.00    +0.017 C 
ENDBRANCH  15  18
ENDBRANCH  11  14
ENDBRANCH   1  13
BRANCH   4  21
ATOM     21  C   UNL     1       2.447  -4.144   5.136  0.00  0.00    +0.095 C 
BRANCH  21  22
ATOM     22  C   UNL     1       3.019  -3.894   6.533  0.00  0.00    -0.020 C 
BRANCH  22  23
ATOM     23  C   UNL     1       4.179  -2.936   6.436  0.00  0.00    -0.052 A 
ATOM     24  C   UNL     1       4.010  -1.598   6.741  0.00  0.00    +0.009 A 
ATOM     25  C   UNL     1       5.074  -0.763   6.644  0.00  0.00    +0.045 A 
ATOM     26  S   UNL     1       6.366  -1.872   6.108  0.00  0.00    -0.105 S 
ATOM     27  C   UNL     1       5.403  -3.374   6.055  0.00  0.00    +0.047 A 
ENDBRANCH  22  23
BRANCH  22  28
ATOM     28  N   UNL     1       3.481  -5.165   7.107  0.00  0.00    +0.382 N 
ATOM     29  C   UNL     1       3.983  -4.933   8.469  0.00  0.00    -0.096 C 
ATOM     30  C   UNL     1       2.362  -6.116   7.154  0.00  0.00    -0.096 C 
ATOM     31  H   UNL     1       4.221  -5.543   6.536  0.00  0.00    -0.082 HD
ENDBRANCH  22  28
ENDBRANCH  21  22
ENDBRANCH   4  21
TORSDOF 7
