REMARK  Name = ZINC66740827
REMARK  5 active torsions:
REMARK  status: ('A' for Active; 'I' for Inactive)
REMARK    1  A    between atoms: C_1  and  C_2
REMARK    2  A    between atoms: C_5  and  C_7
REMARK    3  A    between atoms: C_8  and  C_18
REMARK    4  A    between atoms: N_10  and  C_12
REMARK    5  A    between atoms: C_22  and  C_30
REMARK                            x       y       z     vdW  Elec       q    Type
REMARK                         _______ _______ _______ _____ _____    ______ ____
ROOT
ATOM      1  C   UNL     1       1.719  -3.189   0.049  0.00  0.00    +0.135 A 
ATOM      2  C   UNL     1       2.867  -3.321  -0.761  0.00  0.00    +0.039 A 
ATOM      3  C   UNL     1       3.366  -4.562  -0.574  0.00  0.00    +0.122 A 
ATOM      4  N   UNL     1       2.570  -5.202   0.323  0.00  0.00    -0.239 N 
ATOM      5  N   UNL     1       1.549  -4.322   0.703  0.00  0.00    -0.163 NA
ENDROOT
BRANCH   2   6
ATOM      6  C   UNL     1       3.434  -2.266  -1.675  0.00  0.00    +0.193 C 
ATOM      7  N   UNL     1       2.692  -2.285  -2.945  0.00  0.00    -0.319 N 
ATOM      8  C   UNL     1       3.064  -3.263  -3.879  0.00  0.00    +0.082 A 
ATOM      9  C   UNL     1       2.443  -3.877  -4.890  0.00  0.00    +0.055 A 
ATOM     10  N   UNL     1       3.341  -4.753  -5.430  0.00  0.00    -0.279 N 
ATOM     11  H   UNL     1       3.161  -5.339  -6.182  0.00  0.00    +0.189 HD
ATOM     12  N   UNL     1       4.464  -4.691  -4.795  0.00  0.00    -0.167 NA
ATOM     13  C   UNL     1       4.388  -3.810  -3.842  0.00  0.00    +0.168 A 
ATOM     14  C   UNL     1       5.348  -3.322  -2.834  0.00  0.00    +0.268 C 
ATOM     15  O   UNL     1       6.525  -3.628  -2.874  0.00  0.00    -0.268 OA
ATOM     16  N   UNL     1       4.857  -2.519  -1.863  0.00  0.00    -0.288 N 
ATOM     17  C   UNL     1       1.025  -3.647  -5.347  0.00  0.00    +0.067 C 
ATOM     18  H   UNL     1       1.979  -1.653  -3.128  0.00  0.00    +0.148 HD
ATOM     19  H   UNL     1       5.485  -2.089  -1.262  0.00  0.00    +0.151 HD
ENDBRANCH   2   6
BRANCH   1  24
ATOM     20  C   UNL     1       0.292   1.615   0.329  0.00  0.00    +0.086 C 
ATOM     21  C   UNL     1       0.232   0.110   0.275  0.00  0.00    +0.103 A 
ATOM     22  C   UNL     1      -0.890  -0.633   0.320  0.00  0.00    +0.045 A 
ATOM     23  C   UNL     1      -0.494  -1.984   0.242  0.00  0.00    +0.052 A 
ATOM     24  C   UNL     1       0.862  -1.990   0.152  0.00  0.00    +0.155 A 
ATOM     25  O   UNL     1       1.289  -0.712   0.168  0.00  0.00    -0.458 OA
ENDBRANCH   1  24
BRANCH   4  26
ATOM     26  C   UNL     1       2.743  -6.512   0.789  0.00  0.00    +0.065 A 
ATOM     27  C   UNL     1       3.810  -7.276   0.335  0.00  0.00    +0.028 A 
ATOM     28  C   UNL     1       3.978  -8.567   0.797  0.00  0.00    +0.002 A 
ATOM     29  C   UNL     1       3.086  -9.098   1.709  0.00  0.00    +0.000 A 
ATOM     30  C   UNL     1       2.022  -8.339   2.163  0.00  0.00    +0.002 A 
ATOM     31  C   UNL     1       1.852  -7.046   1.710  0.00  0.00    +0.028 A 
ENDBRANCH   4  26
TORSDOF 3
