REMARK  Name = ZINC08781618
REMARK  5 active torsions:
REMARK  status: ('A' for Active; 'I' for Inactive)
REMARK    1  A    between atoms: C_3  and  S_9
REMARK    2  A    between atoms: S_9  and  C_10
REMARK    3  A    between atoms: C_10  and  C_11
REMARK    4  A    between atoms: N_12  and  N_13
REMARK    5  A    between atoms: C_17  and  C_20
REMARK                            x       y       z     vdW  Elec       q    Type
REMARK                         _______ _______ _______ _____ _____    ______ ____
ROOT
ATOM      1  C   UNL     1       4.589   4.939  -0.017  0.00  0.00    +0.093 C 
ATOM      2  N   UNL     1       4.449   6.224  -0.009  0.00  0.00    -0.296 N 
ATOM      3  N   UNL     1       5.857   4.380  -0.032  0.00  0.00    -0.346 N 
ATOM      4  H   UNL     1       5.962   3.416  -0.038  0.00  0.00    +0.143 HD
ATOM      5  H   UNL     1       6.640   4.953  -0.037  0.00  0.00    +0.143 HD
ATOM      6  H   UNL     1       3.562   6.616   0.002  0.00  0.00    +0.185 HD
ENDROOT
BRANCH   2   7
ATOM      7  N   UNL     1       5.580   7.052  -0.016  0.00  0.00    -0.241 N 
ATOM      8  C   UNL     1       5.430   8.432  -0.007  0.00  0.00    +0.155 A 
ATOM      9  C   UNL     1       6.558   9.250  -0.020  0.00  0.00    +0.083 A 
ATOM     10  C   UNL     1       6.393  10.624  -0.012  0.00  0.00    +0.037 A 
ATOM     11  C   UNL     1       5.101  11.136   0.009  0.00  0.00    +0.074 A 
ATOM     12  C   UNL     1       4.029  10.267   0.021  0.00  0.00    +0.125 A 
ATOM     13  N   UNL     1       4.215   8.961   0.007  0.00  0.00    -0.237 NA
ATOM     14 CL   UNL     1       8.149   8.555  -0.046  0.00  0.00    -0.080 Cl
ATOM     15  H   UNL     1       6.467   6.661  -0.026  0.00  0.00    +0.174 HD
BRANCH  11  16
ATOM     16  C   UNL     1       4.874  12.626   0.020  0.00  0.00    +0.419 C 
ATOM     17  F   UNL     1       4.785  13.093  -1.296  0.00  0.00    -0.166 F 
ATOM     18  F   UNL     1       3.684  12.911   0.698  0.00  0.00    -0.166 F 
ATOM     19  F   UNL     1       5.942  13.256   0.667  0.00  0.00    -0.166 F 
ENDBRANCH  11  16
ENDBRANCH   2   7
BRANCH   1  20
ATOM     20  C   UNL     1       3.373   4.048  -0.009  0.00  0.00    +0.144 C 
BRANCH  20  21
ATOM     21  S   UNL     1       3.896   2.311  -0.023  0.00  0.00    -0.116 S 
BRANCH  21  24
ATOM     22  C   UNL     1      -0.017   1.379   0.010  0.00  0.00    +0.021 A 
ATOM     23  C   UNL     1       1.169   2.088   0.002  0.00  0.00    +0.017 A 
ATOM     24  C   UNL     1       2.381   1.411  -0.013  0.00  0.00    +0.027 A 
ATOM     25  C   UNL     1       2.398   0.020  -0.021  0.00  0.00    +0.056 A 
ATOM     26  C   UNL     1       1.208  -0.683  -0.013  0.00  0.00    +0.041 A 
ATOM     27  C   UNL     1       0.002  -0.004   0.002  0.00  0.00    +0.042 A 
ATOM     28 CL   UNL     1      -1.490  -0.891   0.011  0.00  0.00    -0.083 Cl
ATOM     29 CL   UNL     1       3.910  -0.831  -0.040  0.00  0.00    -0.082 Cl
ENDBRANCH  21  24
ENDBRANCH  20  21
ENDBRANCH   1  20
TORSDOF 5
