REMARK  Name = ZINC43741069
REMARK  7 active torsions:
REMARK  status: ('A' for Active; 'I' for Inactive)
REMARK    1  A    between atoms: N_15  and  C_17
REMARK    2  A    between atoms: C_17  and  C_18
REMARK    3  A    between atoms: C_18  and  C_20
REMARK    4  A    between atoms: C_18  and  O_29
REMARK    5  A    between atoms: C_20  and  N_21
REMARK    6  A    between atoms: N_21  and  C_22
REMARK    7  A    between atoms: C_25  and  O_28
REMARK                            x       y       z     vdW  Elec       q    Type
REMARK                         _______ _______ _______ _____ _____    ______ ____
ROOT
ATOM      1  C   UNL     1      -0.533   1.263  -0.712  0.00  0.00    +0.007 A 
ATOM      2  C   UNL     1       0.644   2.003  -0.549  0.00  0.00    +0.022 A 
ATOM      3  C   UNL     1       1.829   1.376  -0.332  0.00  0.00    +0.023 A 
ATOM      4  N   UNL     1       1.883   0.029  -0.214  0.00  0.00    -0.312 N 
ATOM      5  C   UNL     1       0.777  -0.715  -0.462  0.00  0.00    +0.251 A 
ATOM      6  O   UNL     1       0.862  -1.932  -0.497  0.00  0.00    -0.268 OA
ATOM      7  C   UNL     1      -0.464  -0.099  -0.679  0.00  0.00    +0.070 A 
ATOM      8  C   UNL     1       3.079  -0.689   0.232  0.00  0.00    +0.126 C 
ATOM      9  C   UNL     1       4.342   0.142   0.078  0.00  0.00    -0.007 C 
ATOM     10  C   UNL     1       4.101   1.542   0.652  0.00  0.00    +0.011 C 
ATOM     11  C   UNL     1       3.070   2.236  -0.246  0.00  0.00    +0.020 C 
ATOM     12  C   UNL     1       3.663   2.331  -1.662  0.00  0.00    -0.069 C 
ATOM     13  N   UNL     1       3.815   0.965  -2.186  0.00  0.00    +0.382 N 
ATOM     14  C   UNL     1       4.773   0.248  -1.378  0.00  0.00    -0.074 C 
ATOM     15  H   UNL     1       2.924   0.493  -2.153  0.00  0.00    -0.082 HD
ENDROOT
BRANCH  13  16
ATOM     16  C   UNL     1       4.284   1.025  -3.576  0.00  0.00    -0.046 C 
BRANCH  16  17
ATOM     17  C   UNL     1       4.298  -0.385  -4.171  0.00  0.00    +0.115 C 
BRANCH  17  18
ATOM     18  O   UNL     1       2.974  -0.924  -4.149  0.00  0.00    -0.392 OA
ATOM     19  H   UNL     1       2.331  -0.408  -4.654  0.00  0.00    +0.210 HD
ENDBRANCH  17  18
BRANCH  17  20
ATOM     20  C   UNL     1       4.800  -0.325  -5.615  0.00  0.00    +0.131 C 
BRANCH  20  21
ATOM     21  N   UNL     1       4.813  -1.675  -6.184  0.00  0.00    -0.341 N 
ATOM     22  H   UNL     1       4.528  -2.430  -5.647  0.00  0.00    +0.146 HD
BRANCH  21  23
ATOM     23  C   UNL     1       5.238  -1.874  -7.502  0.00  0.00    +0.027 A 
ATOM     24  C   UNL     1       5.652  -0.793  -8.270  0.00  0.00    +0.026 A 
ATOM     25  C   UNL     1       6.071  -0.991  -9.570  0.00  0.00    +0.047 A 
ATOM     26  C   UNL     1       6.079  -2.268 -10.111  0.00  0.00    +0.117 A 
ATOM     27  C   UNL     1       5.665  -3.348  -9.345  0.00  0.00    +0.047 A 
ATOM     28  C   UNL     1       5.251  -3.153  -8.042  0.00  0.00    +0.026 A 
BRANCH  26  29
ATOM     29  O   UNL     1       6.492  -2.462 -11.392  0.00  0.00    -0.507 OA
ATOM     30  H   UNL     1       7.439  -2.634 -11.478  0.00  0.00    +0.292 HD
ENDBRANCH  26  29
ENDBRANCH  21  23
ENDBRANCH  20  21
ENDBRANCH  17  20
ENDBRANCH  16  17
ENDBRANCH  13  16
TORSDOF 7
