REMARK  Name = ZINC22325135
REMARK  11 active torsions:
REMARK  status: ('A' for Active; 'I' for Inactive)
REMARK    1  A    between atoms: C_1  and  C_2
REMARK    2  A    between atoms: C_5  and  S_8
REMARK    3  A    between atoms: S_8  and  N_11
REMARK    4  A    between atoms: N_11  and  C_12
REMARK    5  A    between atoms: N_11  and  C_30
REMARK    6  A    between atoms: C_12  and  C_13
REMARK    7  A    between atoms: N_15  and  C_16
REMARK    8  A    between atoms: C_19  and  C_28
REMARK    9  A    between atoms: C_19  and  C_29
REMARK   10  A    between atoms: C_25  and  C_27
REMARK   11  A    between atoms: C_35  and  C_36
REMARK                            x       y       z     vdW  Elec       q    Type
REMARK                         _______ _______ _______ _____ _____    ______ ____
ROOT
ATOM      1  N   UNL     1      -0.923   1.790  -1.338  0.00  0.00    -0.194 N 
ENDROOT
BRANCH   1   2
ATOM      2  C   UNL     1      -1.842   0.944  -1.965  0.00  0.00    +0.055 A 
ATOM      3  C   UNL     1      -1.415   0.058  -2.946  0.00  0.00    +0.026 A 
ATOM      4  C   UNL     1      -2.325  -0.779  -3.561  0.00  0.00    +0.022 A 
ATOM      5  C   UNL     1      -3.662  -0.730  -3.209  0.00  0.00    +0.041 A 
ATOM      6  C   UNL     1      -4.091   0.156  -2.236  0.00  0.00    +0.025 A 
ATOM      7  C   UNL     1      -3.185   0.993  -1.614  0.00  0.00    -0.026 A 
ATOM      8  C   UNL     1      -3.653   1.956  -0.554  0.00  0.00    +0.046 C 
ATOM      9 CL   UNL     1      -4.804  -1.780  -3.989  0.00  0.00    -0.084 Cl
ENDBRANCH   1   2
BRANCH   1  10
ATOM     10  S   UNL     1      -0.194   1.319   0.072  0.00  0.00    +0.075 S 
ATOM     11  O   UNL     1      -0.390  -0.085   0.182  0.00  0.00    -0.150 OA
ATOM     12  O   UNL     1       1.097   1.911   0.079  0.00  0.00    -0.150 OA
BRANCH  10  17
ATOM     13  C   UNL     1      -3.274   3.847   4.603  0.00  0.00    +0.044 C 
ATOM     14  C   UNL     1      -2.504   3.215   3.472  0.00  0.00    -0.050 A 
ATOM     15  C   UNL     1      -2.771   1.911   3.098  0.00  0.00    +0.005 A 
ATOM     16  C   UNL     1      -2.066   1.332   2.059  0.00  0.00    +0.029 A 
ATOM     17  C   UNL     1      -1.093   2.057   1.396  0.00  0.00    +0.109 A 
ATOM     18  C   UNL     1      -0.823   3.359   1.774  0.00  0.00    +0.029 A 
ATOM     19  C   UNL     1      -1.532   3.939   2.809  0.00  0.00    +0.005 A 
ENDBRANCH  10  17
ENDBRANCH   1  10
BRANCH   1  20
ATOM     20  C   UNL     1      -0.605   3.092  -1.927  0.00  0.00    +0.227 C 
BRANCH  20  21
ATOM     21  C   UNL     1       0.476   2.924  -2.964  0.00  0.00    +0.233 C 
ATOM     22  O   UNL     1       0.936   1.825  -3.187  0.00  0.00    -0.274 OA
ATOM     23  N   UNL     1       0.932   3.996  -3.641  0.00  0.00    -0.307 N 
ATOM     24  H   UNL     1       0.515   4.994  -3.438  0.00  0.00    +0.149 HD
BRANCH  23  25
ATOM     25  C   UNL     1       1.984   3.833  -4.649  0.00  0.00    +0.110 C 
ATOM     26  C   UNL     1       1.890   4.968  -5.671  0.00  0.00    +0.074 C 
ATOM     27  C   UNL     1       3.160   4.947  -6.531  0.00  0.00    +0.107 C 
ATOM     28  O   UNL     1       4.277   5.244  -5.692  0.00  0.00    -0.486 OA
ATOM     29  C   UNL     1       4.397   4.556  -4.527  0.00  0.00    +0.126 A 
ATOM     30  C   UNL     1       3.332   3.864  -3.976  0.00  0.00    +0.015 A 
ATOM     31  C   UNL     1       3.498   3.184  -2.781  0.00  0.00    +0.009 A 
ATOM     32  C   UNL     1       4.721   3.189  -2.139  0.00  0.00    +0.004 A 
ATOM     33  C   UNL     1       5.787   3.876  -2.689  0.00  0.00    -0.047 A 
ATOM     34  C   UNL     1       5.628   4.557  -3.879  0.00  0.00    +0.049 A 
ATOM     35  C   UNL     1       7.122   3.881  -1.990  0.00  0.00    +0.044 C 
ATOM     36  C   UNL     1       3.052   6.000  -7.636  0.00  0.00    +0.055 C 
ATOM     37  C   UNL     1       3.339   3.562  -7.155  0.00  0.00    +0.055 C 
ENDBRANCH  23  25
ENDBRANCH  20  21
ENDBRANCH   1  20
TORSDOF 6
