REMARK  Name = ZINC37724863
REMARK  11 active torsions:
REMARK  status: ('A' for Active; 'I' for Inactive)
REMARK    1  A    between atoms: C_1  and  C_2
REMARK    2  A    between atoms: C_2  and  C_4
REMARK    3  A    between atoms: C_2  and  N_22
REMARK    4  A    between atoms: C_4  and  C_5
REMARK    5  A    between atoms: C_7  and  O_20
REMARK    6  A    between atoms: C_8  and  O_12
REMARK    7  A    between atoms: O_12  and  C_13
REMARK    8  A    between atoms: C_13  and  C_14
REMARK    9  A    between atoms: N_16  and  C_17
REMARK   10  A    between atoms: C_17  and  C_18
REMARK   11  A    between atoms: O_20  and  C_21
REMARK                            x       y       z     vdW  Elec       q    Type
REMARK                         _______ _______ _______ _____ _____    ______ ____
ROOT
ATOM      1  C   UNL     1       0.657  -2.014   1.298  0.00  0.00    -0.044 A 
ATOM      2  C   UNL     1      -0.397  -2.621   1.956  0.00  0.00    +0.053 A 
ATOM      3  C   UNL     1      -0.477  -4.003   2.009  0.00  0.00    +0.163 A 
ATOM      4  C   UNL     1       0.504  -4.779   1.398  0.00  0.00    +0.176 A 
ATOM      5  C   UNL     1       1.557  -4.164   0.740  0.00  0.00    +0.063 A 
ATOM      6  C   UNL     1       1.629  -2.784   0.687  0.00  0.00    +0.022 A 
ATOM      7 BR   UNL     1       2.893  -5.213  -0.092  0.00  0.00    -0.046 Br
ENDROOT
BRANCH   3   8
ATOM      8  O   UNL     1      -1.513  -4.601   2.656  0.00  0.00    -0.491 OA
ATOM      9  C   UNL     1      -2.483  -3.743   3.260  0.00  0.00    +0.277 C 
ENDBRANCH   3   8
BRANCH   1  10
ATOM     10  C   UNL     1       0.742  -0.511   1.242  0.00  0.00    +0.019 C 
BRANCH  10  12
ATOM     11  C   UNL     1      -0.019   1.526   0.010  0.00  0.00    -0.014 C 
ATOM     12  C   UNL     1       0.002  -0.004   0.002  0.00  0.00    -0.074 C 
BRANCH  12  13
ATOM     13  N   UNL     1       0.690  -0.478  -1.207  0.00  0.00    +0.380 N 
ATOM     14  H   UNL     1       1.636  -0.129  -1.214  0.00  0.00    -0.090 HD
ATOM     15  H   UNL     1       0.703  -1.487  -1.212  0.00  0.00    -0.090 HD
ATOM     16  H   UNL     1       0.202  -0.144  -2.024  0.00  0.00    -0.090 HD
ENDBRANCH  12  13
ENDBRANCH  10  12
ENDBRANCH   1  10
BRANCH   4  17
ATOM     17  O   UNL     1       0.429  -6.136   1.448  0.00  0.00    -0.478 OA
BRANCH  17  18
ATOM     18  C   UNL     1      -0.280  -6.786   0.391  0.00  0.00    +0.324 C 
BRANCH  18  19
ATOM     19  C   UNL     1      -0.257  -8.276   0.613  0.00  0.00    +0.251 C 
ATOM     20  O   UNL     1       0.311  -8.736   1.581  0.00  0.00    -0.272 OA
ATOM     21  N   UNL     1      -0.868  -9.097  -0.264  0.00  0.00    -0.309 N 
ATOM     22  H   UNL     1      -1.322  -8.729  -1.038  0.00  0.00    +0.149 HD
BRANCH  21  23
ATOM     23  C   UNL     1      -0.846 -10.546  -0.048  0.00  0.00    +0.131 C 
BRANCH  23  24
ATOM     24  C   UNL     1      -1.594 -11.232  -1.162  0.00  0.00    -0.016 C 
ATOM     25  C   UNL     1      -1.008 -12.168  -1.865  0.00  0.00    +0.005 C 
ENDBRANCH  23  24
ENDBRANCH  21  23
ENDBRANCH  18  19
ENDBRANCH  17  18
ENDBRANCH   4  17
TORSDOF 9
