REMARK  Name = ZINC03188668
REMARK  2 active torsions:
REMARK  status: ('A' for Active; 'I' for Inactive)
REMARK    1  A    between atoms: C_4  and  S_7
REMARK    2  A    between atoms: S_7  and  N_10
REMARK                            x       y       z     vdW  Elec       q    Type
REMARK                         _______ _______ _______ _____ _____    ______ ____
ROOT
ATOM      1  N   UNL     1       4.378  -1.079   1.536  0.00  0.00    -0.108 NA
ATOM      2  C   UNL     1       5.445  -1.772   1.861  0.00  0.00    +0.183 C 
ATOM      3  C   UNL     1       6.296  -2.227   0.750  0.00  0.00    +0.025 A 
ATOM      4  C   UNL     1       6.463  -1.405  -0.368  0.00  0.00    +0.012 A 
ATOM      5  C   UNL     1       7.290  -1.798  -1.399  0.00  0.00    +0.001 A 
ATOM      6  C   UNL     1       7.962  -3.006  -1.329  0.00  0.00    +0.000 A 
ATOM      7  C   UNL     1       7.788  -3.832  -0.234  0.00  0.00    +0.006 A 
ATOM      8  C   UNL     1       6.944  -3.457   0.792  0.00  0.00    -0.019 A 
ATOM      9  C   UNL     1       6.678  -4.404   1.925  0.00  0.00    +0.147 C 
ATOM     10  N   UNL     1       7.080  -3.850   3.212  0.00  0.00    -0.287 N 
ATOM     11  C   UNL     1       8.134  -4.440   3.852  0.00  0.00    +0.077 C 
ATOM     12  C   UNL     1       8.462  -4.102   5.117  0.00  0.00    +0.015 C 
ATOM     13  C   UNL     1       7.725  -3.116   5.788  0.00  0.00    +0.005 C 
ATOM     14  C   UNL     1       6.720  -2.475   5.133  0.00  0.00    +0.044 C 
ATOM     15  C   UNL     1       6.448  -2.791   3.780  0.00  0.00    +0.128 C 
ATOM     16  N   UNL     1       5.637  -1.978   3.133  0.00  0.00    -0.211 NA
ENDROOT
BRANCH   1  17
ATOM     17  S   UNL     1       3.812  -1.111  -0.021  0.00  0.00    +0.101 S 
ATOM     18  O   UNL     1       4.148  -2.387  -0.548  0.00  0.00    -0.146 OA
ATOM     19  O   UNL     1       4.234   0.101  -0.631  0.00  0.00    -0.146 OA
BRANCH  17  23
ATOM     20  C   UNL     1      -0.706  -0.946   0.191  0.00  0.00    +0.000 A 
ATOM     21  C   UNL     1       0.025   0.224   0.120  0.00  0.00    +0.002 A 
ATOM     22  C   UNL     1       1.405   0.174   0.055  0.00  0.00    +0.029 A 
ATOM     23  C   UNL     1       2.054  -1.047   0.063  0.00  0.00    +0.113 A 
ATOM     24  C   UNL     1       1.322  -2.217   0.135  0.00  0.00    +0.029 A 
ATOM     25  C   UNL     1      -0.058  -2.167   0.198  0.00  0.00    +0.002 A 
ENDBRANCH  17  23
ENDBRANCH   1  17
TORSDOF 2
