REMARK  Name = ZINC54381745
REMARK  6 active torsions:
REMARK  status: ('A' for Active; 'I' for Inactive)
REMARK    1  A    between atoms: C_1  and  C_2
REMARK    2  A    between atoms: C_4  and  C_19
REMARK    3  A    between atoms: C_6  and  O_8
REMARK    4  A    between atoms: O_8  and  C_9
REMARK    5  A    between atoms: C_10  and  C_15
REMARK    6  A    between atoms: N_16  and  O_17
REMARK                            x       y       z     vdW  Elec       q    Type
REMARK                         _______ _______ _______ _____ _____    ______ ____
ROOT
ATOM      1  C   UNL     1      -1.030  -2.676   3.168  0.00  0.00    +0.250 A 
ATOM      2  C   UNL     1      -1.018  -3.276   4.436  0.00  0.00    +0.168 A 
ATOM      3  N   UNL     1      -2.084  -3.173   5.223  0.00  0.00    -0.245 NA
ATOM      4  C   UNL     1      -3.147  -2.509   4.810  0.00  0.00    +0.131 A 
ATOM      5  C   UNL     1      -3.158  -1.917   3.558  0.00  0.00    +0.134 A 
ATOM      6  N   UNL     1      -2.102  -2.008   2.768  0.00  0.00    -0.218 NA
ENDROOT
BRANCH   2   7
ATOM      7  C   UNL     1       0.175  -4.020   4.895  0.00  0.00    +0.186 C 
ATOM      8  N   UNL     1       1.217  -4.119   4.122  0.00  0.00    -0.070 NA
ATOM      9  N   UNL     1       0.184  -4.611   6.148  0.00  0.00    -0.339 N 
ATOM     10  H   UNL     1      -0.593  -4.537   6.724  0.00  0.00    +0.144 HD
ATOM     11  H   UNL     1       0.966  -5.099   6.449  0.00  0.00    +0.144 HD
BRANCH   8  12
ATOM     12  O   UNL     1       2.360  -4.831   4.562  0.00  0.00    -0.408 OA
ATOM     13  H   UNL     1       3.082  -4.850   3.920  0.00  0.00    +0.328 HD
ENDBRANCH   8  12
ENDBRANCH   2   7
BRANCH   1  14
ATOM     14  O   UNL     1       0.052  -2.776   2.359  0.00  0.00    -0.436 OA
BRANCH  14  20
ATOM     15  C   UNL     1       0.482   1.463  -0.024  0.00  0.00    +0.044 C 
ATOM     16  C   UNL     1       0.241  -0.025  -0.015  0.00  0.00    -0.047 A 
ATOM     17  C   UNL     1       0.003  -0.693  -1.202  0.00  0.00    +0.007 A 
ATOM     18  C   UNL     1      -0.218  -2.058  -1.198  0.00  0.00    -0.047 A 
ATOM     19  C   UNL     1      -0.202  -2.758  -0.007  0.00  0.00    +0.049 A 
ATOM     20  C   UNL     1       0.036  -2.090   1.186  0.00  0.00    +0.131 A 
ATOM     21  C   UNL     1       0.263  -0.721   1.178  0.00  0.00    +0.049 A 
ATOM     22  C   UNL     1      -0.477  -2.783  -2.494  0.00  0.00    +0.044 C 
ENDBRANCH  14  20
ENDBRANCH   1  14
TORSDOF 4
