REMARK  Name = ZINC38970885
REMARK  5 active torsions:
REMARK  status: ('A' for Active; 'I' for Inactive)
REMARK    1  A    between atoms: C_1  and  C_2
REMARK    2  A    between atoms: C_4  and  N_9
REMARK    3  A    between atoms: N_9  and  C_10
REMARK    4  A    between atoms: N_13  and  S_14
REMARK    5  A    between atoms: S_14  and  C_17
REMARK                            x       y       z     vdW  Elec       q    Type
REMARK                         _______ _______ _______ _____ _____    ______ ____
ROOT
ATOM      1  C   UNL     1       0.158  -4.229  -2.426  0.00  0.00    +0.235 C 
ATOM      2  C   UNL     1       1.318  -4.584  -3.330  0.00  0.00    +0.170 C 
ATOM      3  N   UNL     1       2.506  -4.112  -3.094  0.00  0.00    -0.111 NA
ATOM      4  N   UNL     1       1.102  -5.393  -4.379  0.00  0.00    -0.338 N 
ATOM      5  C   UNL     1      -0.092  -5.884  -4.639  0.00  0.00    +0.064 A 
ATOM      6  C   UNL     1      -0.283  -6.735  -5.756  0.00  0.00    +0.028 A 
ATOM      7  C   UNL     1      -1.506  -7.241  -6.028  0.00  0.00    +0.002 A 
ATOM      8  C   UNL     1      -2.635  -6.962  -5.241  0.00  0.00    +0.002 A 
ATOM      9  C   UNL     1      -2.564  -6.162  -4.154  0.00  0.00    +0.027 A 
ATOM     10  C   UNL     1      -1.268  -5.572  -3.790  0.00  0.00    +0.061 A 
ATOM     11  N   UNL     1      -1.161  -4.796  -2.748  0.00  0.00    -0.359 N 
ATOM     12  H   UNL     1      -1.934  -4.597  -2.198  0.00  0.00    +0.162 HD
ATOM     13  H   UNL     1       1.844  -5.622  -4.960  0.00  0.00    +0.167 HD
ENDROOT
BRANCH   3  14
ATOM     14  S   UNL     1       3.768  -4.508  -4.091  0.00  0.00    +0.107 S 
ATOM     15  O   UNL     1       3.990  -5.902  -3.931  0.00  0.00    -0.146 OA
ATOM     16  O   UNL     1       3.486  -3.921  -5.354  0.00  0.00    -0.146 OA
BRANCH  14  17
ATOM     17  C   UNL     1       5.200  -3.695  -3.466  0.00  0.00    +0.150 A 
ATOM     18  C   UNL     1       6.111  -4.140  -2.566  0.00  0.00    +0.037 A 
ATOM     19  C   UNL     1       7.169  -3.321  -2.221  0.00  0.00    +0.010 A 
ATOM     20  C   UNL     1       7.265  -2.095  -2.793  0.00  0.00    +0.047 A 
ATOM     21  S   UNL     1       5.835  -2.073  -3.861  0.00  0.00    -0.076 S 
ENDBRANCH  14  17
ENDBRANCH   3  14
BRANCH   1  22
ATOM     22  N   UNL     1       0.028  -2.770  -2.418  0.00  0.00    -0.318 N 
ATOM     23  H   UNL     1      -0.020  -2.283  -3.255  0.00  0.00    +0.148 HD
BRANCH  22  27
ATOM     24  C   UNL     1       0.012   1.492   0.029  0.00  0.00    +0.045 C 
ATOM     25  C   UNL     1      -0.037  -0.014   0.013  0.00  0.00    -0.035 A 
ATOM     26  C   UNL     1       0.018  -0.693  -1.189  0.00  0.00    +0.027 A 
ATOM     27  C   UNL     1      -0.027  -2.081  -1.204  0.00  0.00    +0.029 A 
ATOM     28  C   UNL     1      -0.128  -2.782  -0.009  0.00  0.00    +0.024 A 
ATOM     29  C   UNL     1      -0.183  -2.098   1.189  0.00  0.00    +0.017 A 
ATOM     30  C   UNL     1      -0.132  -0.716   1.201  0.00  0.00    +0.021 A 
ATOM     31 BR   UNL     1      -0.199   0.217   2.845  0.00  0.00    -0.050 Br
ENDBRANCH  22  27
ENDBRANCH   1  22
TORSDOF 4
