REMARK  Name = ZINC59310763
REMARK  11 active torsions:
REMARK  status: ('A' for Active; 'I' for Inactive)
REMARK    1  A    between atoms: C_1  and  C_2
REMARK    2  A    between atoms: C_2  and  C_3
REMARK    3  A    between atoms: C_3  and  C_4
REMARK    4  A    between atoms: C_4  and  S_5
REMARK    5  A    between atoms: S_5  and  C_6
REMARK    6  A    between atoms: C_12  and  C_14
REMARK    7  A    between atoms: C_14  and  S_15
REMARK    8  A    between atoms: S_15  and  C_16
REMARK    9  A    between atoms: N_21  and  N_22
REMARK   10  A    between atoms: C_23  and  C_24
REMARK   11  A    between atoms: C_23  and  C_25
REMARK                            x       y       z     vdW  Elec       q    Type
REMARK                         _______ _______ _______ _____ _____    ______ ____
ROOT
ATOM      1  C   UNL     1       0.935 -13.374  -1.407  0.00  0.00    +0.211 A 
ATOM      2  N   UNL     1       0.533 -14.431  -0.694  0.00  0.00    -0.186 NA
ATOM      3  C   UNL     1       0.895 -15.540  -1.304  0.00  0.00    +0.232 A 
ATOM      4  N   UNL     1       1.547 -15.200  -2.436  0.00  0.00    -0.245 N 
ATOM      5  N   UNL     1       1.556 -13.796  -2.483  0.00  0.00    -0.144 NA
ATOM      6  N   UNL     1       0.652 -16.828  -0.862  0.00  0.00    -0.205 N 
ATOM      7  H   UNL     1       0.961 -17.586  -1.383  0.00  0.00    +0.177 HD
ATOM      8  H   UNL     1       1.931 -15.805  -3.090  0.00  0.00    +0.192 HD
ENDROOT
BRANCH   6   9
ATOM      9  N   UNL     1      -0.039 -17.038   0.338  0.00  0.00    -0.189 NA
ATOM     10  C   UNL     1      -0.264 -18.230   0.747  0.00  0.00    +0.040 C 
ATOM     11  C   UNL     1       0.215 -19.408  -0.062  0.00  0.00    +0.063 C 
BRANCH  10  12
ATOM     12  C   UNL     1      -1.008 -18.456   2.038  0.00  0.00    +0.011 C 
ATOM     13  C   UNL     1      -0.120 -19.235   3.010  0.00  0.00    +0.016 C 
ATOM     14  C   UNL     1      -0.875 -19.464   4.320  0.00  0.00    -0.010 C 
ATOM     15  C   UNL     1      -1.246 -18.114   4.938  0.00  0.00    +0.007 C 
ATOM     16  C   UNL     1      -2.135 -17.335   3.967  0.00  0.00    -0.010 C 
ATOM     17  C   UNL     1      -1.379 -17.106   2.656  0.00  0.00    +0.016 C 
ATOM     18  C   UNL     1      -3.409 -18.136   3.688  0.00  0.00    +0.007 C 
ATOM     19  C   UNL     1      -3.038 -19.485   3.070  0.00  0.00    -0.010 C 
ATOM     20  C   UNL     1      -2.149 -20.264   4.041  0.00  0.00    +0.007 C 
ATOM     21  C   UNL     1      -2.282 -19.256   1.759  0.00  0.00    +0.016 C 
ENDBRANCH  10  12
ENDBRANCH   6   9
BRANCH   1  22
ATOM     22  S   UNL     1       0.668 -11.687  -0.975  0.00  0.00    -0.075 S 
BRANCH  22  23
ATOM     23  C   UNL     1       1.435 -10.759  -2.333  0.00  0.00    +0.173 C 
BRANCH  23  30
ATOM     24  C   UNL     1       1.529  -4.368  -2.621  0.00  0.00    +0.160 A 
ATOM     25  N   UNL     1       0.998  -5.132  -1.678  0.00  0.00    -0.133 NA
ATOM     26  N   UNL     1       1.044  -6.391  -1.734  0.00  0.00    -0.125 NA
ATOM     27  C   UNL     1       1.626  -7.027  -2.738  0.00  0.00    +0.189 A 
ATOM     28  S   UNL     1       2.164  -5.630  -3.721  0.00  0.00    -0.024 S 
ATOM     29  N   UNL     1       1.772  -8.393  -2.968  0.00  0.00    -0.263 N 
ATOM     30  C   UNL     1       1.277  -9.281  -2.084  0.00  0.00    +0.229 C 
ATOM     31  O   UNL     1       0.702  -8.892  -1.089  0.00  0.00    -0.275 OA
ATOM     32  H   UNL     1       2.232  -8.704  -3.763  0.00  0.00    +0.157 HD
BRANCH  24  33
ATOM     33  S   UNL     1       1.588  -2.612  -2.758  0.00  0.00    -0.097 S 
BRANCH  33  34
ATOM     34  C   UNL     1       0.739  -2.027  -1.265  0.00  0.00    +0.076 C 
BRANCH  34  35
ATOM     35  C   UNL     1       0.718  -0.497  -1.257  0.00  0.00    +0.011 C 
BRANCH  35  37
ATOM     36  C   UNL     1      -0.019   1.526   0.010  0.00  0.00    +0.004 C 
ATOM     37  C   UNL     1       0.002  -0.004   0.002  0.00  0.00    -0.003 C 
ENDBRANCH  35  37
ENDBRANCH  34  35
ENDBRANCH  33  34
ENDBRANCH  24  33
ENDBRANCH  23  30
ENDBRANCH  22  23
ENDBRANCH   1  22
TORSDOF 9
