REMARK  Name = ZINC59990028
REMARK  11 active torsions:
REMARK  status: ('A' for Active; 'I' for Inactive)
REMARK    1  A    between atoms: C_1  and  C_2
REMARK    2  A    between atoms: C_5  and  C_36
REMARK    3  A    between atoms: N_8  and  C_10
REMARK    4  A    between atoms: C_10  and  C_11
REMARK    5  A    between atoms: C_10  and  C_12
REMARK    6  A    between atoms: C_10  and  C_13
REMARK    7  A    between atoms: C_13  and  N_14
REMARK    8  A    between atoms: C_15  and  C_17
REMARK    9  A    between atoms: C_22  and  S_23
REMARK   10  A    between atoms: S_23  and  C_24
REMARK   11  A    between atoms: C_24  and  C_25
REMARK                            x       y       z     vdW  Elec       q    Type
REMARK                         _______ _______ _______ _____ _____    ______ ____
ROOT
ATOM      1  C   UNL     1       3.765   1.871   2.163  0.00  0.00    +0.050 A 
ATOM      2  C   UNL     1       2.535   2.463   2.461  0.00  0.00    +0.014 A 
ATOM      3  C   UNL     1       2.431   3.835   2.527  0.00  0.00    +0.001 A 
ATOM      4  C   UNL     1       3.542   4.634   2.300  0.00  0.00    +0.001 A 
ATOM      5  C   UNL     1       4.763   4.065   2.006  0.00  0.00    +0.015 A 
ATOM      6  C   UNL     1       4.889   2.682   1.940  0.00  0.00    +0.020 A 
ENDROOT
BRANCH   1   8
ATOM      7  N   UNL     1       2.801  -0.371   2.305  0.00  0.00    -0.313 N 
ATOM      8  C   UNL     1       3.883   0.403   2.090  0.00  0.00    +0.245 C 
ATOM      9  O   UNL     1       4.956  -0.108   1.836  0.00  0.00    -0.270 OA
ATOM     10  H   UNL     1       1.945   0.037   2.508  0.00  0.00    +0.149 HD
BRANCH   7  11
ATOM     11  C   UNL     1       2.918  -1.830   2.232  0.00  0.00    +0.092 C 
BRANCH  11  12
ATOM     12  C   UNL     1       1.589  -2.469   2.639  0.00  0.00    -0.055 C 
ATOM     13  C   UNL     1       1.737  -3.992   2.646  0.00  0.00    -0.008 C 
ATOM     14  C   UNL     1       0.503  -2.067   1.640  0.00  0.00    -0.008 C 
BRANCH  12  20
ATOM     15  C   UNL     1       3.028  -2.192   7.310  0.00  0.00    +0.005 C 
ATOM     16  C   UNL     1       1.925  -1.816   6.319  0.00  0.00    -0.031 C 
ATOM     17  C   UNL     1       0.595  -2.417   6.782  0.00  0.00    +0.003 C 
ATOM     18  C   UNL     1      -0.486  -2.101   5.744  0.00  0.00    -0.031 C 
ATOM     19  C   UNL     1      -0.049  -2.640   4.381  0.00  0.00    -0.075 C 
ATOM     20  N   UNL     1       1.214  -2.007   3.982  0.00  0.00    +0.384 N 
ATOM     21  C   UNL     1       2.273  -2.364   4.934  0.00  0.00    -0.075 C 
ATOM     22  C   UNL     1      -0.682  -0.586   5.657  0.00  0.00    +0.005 C 
ATOM     23  H   UNL     1       1.098  -1.005   3.971  0.00  0.00    -0.081 HD
ENDBRANCH  12  20
ENDBRANCH  11  12
ENDBRANCH   7  11
ENDBRANCH   1   8
BRANCH   6  24
ATOM     24  S   UNL     1       6.450   1.952   1.572  0.00  0.00    -0.115 S 
BRANCH  24  25
ATOM     25  C   UNL     1       7.562   3.370   1.371  0.00  0.00    +0.170 C 
BRANCH  25  26
ATOM     26  C   UNL     1       8.950   2.879   1.048  0.00  0.00    +0.230 C 
ATOM     27  O   UNL     1       9.167   1.689   0.963  0.00  0.00    -0.274 OA
ATOM     28  N   UNL     1       9.949   3.762   0.855  0.00  0.00    -0.270 N 
ATOM     29  C   UNL     1      11.334   3.407   0.532  0.00  0.00    +0.118 C 
ATOM     30  C   UNL     1      12.077   4.747   0.412  0.00  0.00    +0.056 C 
ATOM     31  C   UNL     1      11.021   5.794   0.686  0.00  0.00    -0.024 A 
ATOM     32  C   UNL     1       9.816   5.152   0.928  0.00  0.00    +0.039 A 
ATOM     33  C   UNL     1       8.682   5.920   1.203  0.00  0.00    +0.024 A 
ATOM     34  C   UNL     1       8.764   7.296   1.228  0.00  0.00    +0.002 A 
ATOM     35  C   UNL     1       9.969   7.926   0.982  0.00  0.00    +0.000 A 
ATOM     36  C   UNL     1      11.098   7.173   0.718  0.00  0.00    +0.005 A 
ENDBRANCH  25  26
ENDBRANCH  24  25
ENDBRANCH   6  24
TORSDOF 7
