REMARK  Name = ZINC45740442
REMARK  13 active torsions:
REMARK  status: ('A' for Active; 'I' for Inactive)
REMARK    1  A    between atoms: C_1  and  C_2
REMARK    2  A    between atoms: C_2  and  C_3
REMARK    3  A    between atoms: C_3  and  N_4
REMARK    4  A    between atoms: C_5  and  C_7
REMARK    5  A    between atoms: C_11  and  N_13
REMARK    6  A    between atoms: N_16  and  C_17
REMARK    7  A    between atoms: C_17  and  C_18
REMARK    8  A    between atoms: C_18  and  C_20
REMARK    9  A    between atoms: C_18  and  N_28
REMARK   10  A    between atoms: C_25  and  O_26
REMARK   11  A    between atoms: O_26  and  C_27
REMARK   12  A    between atoms: N_28  and  C_29
REMARK   13  A    between atoms: N_28  and  C_30
REMARK                            x       y       z     vdW  Elec       q    Type
REMARK                         _______ _______ _______ _____ _____    ______ ____
ROOT
ATOM      1  N   UNL     1      -4.288  -7.553  -0.194  0.00  0.00    -0.269 N 
ATOM      2  C   UNL     1      -4.503  -8.876  -0.336  0.00  0.00    +0.304 C 
ATOM      3  O   UNL     1      -3.562  -9.634  -0.470  0.00  0.00    -0.253 OA
ATOM      4  N   UNL     1      -5.761  -9.359  -0.328  0.00  0.00    -0.300 N 
ATOM      5  H   UNL     1      -5.032  -6.957  -0.014  0.00  0.00    +0.156 HD
ATOM      6  H   UNL     1      -6.512  -8.754  -0.221  0.00  0.00    +0.150 HD
ENDROOT
BRANCH   1  11
ATOM      7  C   UNL     1      -0.799  -7.102  -1.296  0.00  0.00    +0.038 A 
ATOM      8  C   UNL     1      -0.422  -6.005  -0.519  0.00  0.00    +0.013 A 
ATOM      9  C   UNL     1      -1.327  -5.436   0.354  0.00  0.00    +0.003 A 
ATOM     10  C   UNL     1      -2.607  -5.947   0.462  0.00  0.00    +0.023 A 
ATOM     11  C   UNL     1      -2.991  -7.039  -0.308  0.00  0.00    +0.035 A 
ATOM     12  C   UNL     1      -2.091  -7.614  -1.192  0.00  0.00    +0.036 A 
BRANCH   7  14
ATOM     13  N   UNL     1       1.417  -7.218  -2.332  0.00  0.00    -0.311 N 
ATOM     14  C   UNL     1       0.169  -7.715  -2.232  0.00  0.00    +0.244 C 
ATOM     15  O   UNL     1      -0.163  -8.667  -2.912  0.00  0.00    -0.270 OA
ATOM     16  H   UNL     1       1.682  -6.459  -1.789  0.00  0.00    +0.149 HD
BRANCH  13  17
ATOM     17  C   UNL     1       2.376  -7.825  -3.259  0.00  0.00    +0.104 C 
BRANCH  17  19
ATOM     18  C   UNL     1       4.709  -7.711  -4.145  0.00  0.00    +0.005 C 
ATOM     19  C   UNL     1       3.708  -7.077  -3.177  0.00  0.00    +0.015 C 
ENDBRANCH  17  19
ENDBRANCH  13  17
ENDBRANCH   7  14
ENDBRANCH   1  11
BRANCH   4  20
ATOM     20  C   UNL     1      -5.995 -10.797  -0.482  0.00  0.00    +0.095 C 
BRANCH  20  21
ATOM     21  C   UNL     1      -7.499 -11.063  -0.569  0.00  0.00    -0.017 C 
BRANCH  21  22
ATOM     22  C   UNL     1      -8.149 -10.705   0.743  0.00  0.00    -0.018 A 
ATOM     23  C   UNL     1      -8.809  -9.499   0.881  0.00  0.00    +0.005 A 
ATOM     24  C   UNL     1      -9.405  -9.170   2.085  0.00  0.00    +0.000 A 
ATOM     25  C   UNL     1      -9.342 -10.046   3.152  0.00  0.00    +0.004 A 
ATOM     26  C   UNL     1      -8.684 -11.253   3.019  0.00  0.00    +0.046 A 
ATOM     27  C   UNL     1      -8.089 -11.588   1.811  0.00  0.00    +0.122 A 
BRANCH  27  28
ATOM     28  O   UNL     1      -7.446 -12.777   1.675  0.00  0.00    -0.495 OA
ATOM     29  C   UNL     1      -7.425 -13.637   2.817  0.00  0.00    +0.277 C 
ENDBRANCH  27  28
ENDBRANCH  21  22
BRANCH  21  30
ATOM     30  N   UNL     1      -8.080 -10.245  -1.642  0.00  0.00    +0.382 N 
ATOM     31  C   UNL     1      -7.368 -10.510  -2.900  0.00  0.00    -0.096 C 
ATOM     32  C   UNL     1      -9.500 -10.584  -1.802  0.00  0.00    -0.096 C 
ATOM     33  H   UNL     1      -7.992  -9.268  -1.405  0.00  0.00    -0.082 HD
ENDBRANCH  21  30
ENDBRANCH  20  21
ENDBRANCH   4  20
TORSDOF 9
