REMARK  Name = ZINC16241291
REMARK  9 active torsions:
REMARK  status: ('A' for Active; 'I' for Inactive)
REMARK    1  A    between atoms: C_1  and  O_2
REMARK    2  A    between atoms: O_2  and  C_3
REMARK    3  A    between atoms: C_8  and  C_9
REMARK    4  A    between atoms: C_9  and  C_11
REMARK    5  A    between atoms: C_9  and  N_23
REMARK    6  A    between atoms: C_11  and  N_12
REMARK    7  A    between atoms: N_12  and  C_13
REMARK    8  A    between atoms: C_13  and  N_15
REMARK    9  A    between atoms: N_15  and  C_16
REMARK                            x       y       z     vdW  Elec       q    Type
REMARK                         _______ _______ _______ _____ _____    ______ ____
ROOT
ATOM      1  C   UNL     1       0.070  -3.307  -0.087  0.00  0.00    -0.017 C 
ENDROOT
BRANCH   1   7
ATOM      2  C   UNL     1       0.327  -0.822   0.128  0.00  0.00    +0.122 A 
ATOM      3  C   UNL     1       0.756   0.301   0.821  0.00  0.00    +0.046 A 
ATOM      4  C   UNL     1       1.396   0.159   2.036  0.00  0.00    +0.004 A 
ATOM      5  C   UNL     1       1.611  -1.102   2.563  0.00  0.00    +0.000 A 
ATOM      6  C   UNL     1       1.185  -2.222   1.874  0.00  0.00    +0.005 A 
ATOM      7  C   UNL     1       0.539  -2.085   0.661  0.00  0.00    -0.018 A 
BRANCH   2   9
ATOM      8  C   UNL     1      -0.487   0.647  -1.555  0.00  0.00    +0.277 C 
ATOM      9  O   UNL     1      -0.304  -0.684  -1.068  0.00  0.00    -0.495 OA
ENDBRANCH   2   9
ENDBRANCH   1   7
BRANCH   1  10
ATOM     10  N   UNL     1      -0.152  -4.406   0.862  0.00  0.00    +0.385 N 
ATOM     11  C   UNL     1      -1.273  -4.074   1.778  0.00  0.00    -0.078 C 
ATOM     12  C   UNL     1      -1.737  -5.462   2.288  0.00  0.00    -0.020 C 
ATOM     13  C   UNL     1      -1.585  -6.358   1.037  0.00  0.00    -0.020 C 
ATOM     14  C   UNL     1      -0.569  -5.627   0.140  0.00  0.00    -0.078 C 
ATOM     15  H   UNL     1       0.689  -4.585   1.391  0.00  0.00    -0.081 HD
ENDBRANCH   1  10
BRANCH   1  16
ATOM     16  C   UNL     1       1.132  -3.720  -1.107  0.00  0.00    +0.092 C 
BRANCH  16  17
ATOM     17  N   UNL     1       2.355  -4.117  -0.405  0.00  0.00    -0.328 N 
ATOM     18  H   UNL     1       2.368  -4.155   0.564  0.00  0.00    +0.148 HD
BRANCH  17  19
ATOM     19  C   UNL     1       3.463  -4.429  -1.106  0.00  0.00    +0.135 C 
ATOM     20  S   UNL     1       3.441  -4.363  -2.816  0.00  0.00    -0.019 S 
BRANCH  19  21
ATOM     21  N   UNL     1       4.588  -4.795  -0.460  0.00  0.00    -0.295 N 
ATOM     22  H   UNL     1       4.622  -4.768   0.509  0.00  0.00    +0.154 HD
BRANCH  21  23
ATOM     23  C   UNL     1       5.709  -5.213  -1.188  0.00  0.00    +0.068 A 
ATOM     24  C   UNL     1       6.142  -4.477  -2.282  0.00  0.00    +0.026 A 
ATOM     25  C   UNL     1       7.248  -4.892  -2.998  0.00  0.00    +0.002 A 
ATOM     26  C   UNL     1       7.925  -6.039  -2.626  0.00  0.00    +0.003 A 
ATOM     27  C   UNL     1       7.497  -6.776  -1.537  0.00  0.00    +0.040 A 
ATOM     28  C   UNL     1       6.394  -6.364  -0.812  0.00  0.00    +0.144 A 
ATOM     29  F   UNL     1       5.979  -7.080   0.255  0.00  0.00    -0.204 F 
ENDBRANCH  21  23
ENDBRANCH  19  21
ENDBRANCH  17  19
ENDBRANCH  16  17
ENDBRANCH   1  16
TORSDOF 8
