REMARK  Name = ZINC43093082
REMARK  7 active torsions:
REMARK  status: ('A' for Active; 'I' for Inactive)
REMARK    1  A    between atoms: C_1  and  C_2
REMARK    2  A    between atoms: C_2  and  C_4
REMARK    3  A    between atoms: C_2  and  N_23
REMARK    4  A    between atoms: C_4  and  C_6
REMARK    5  A    between atoms: C_4  and  N_13
REMARK    6  A    between atoms: C_17  and  C_19
REMARK    7  A    between atoms: N_21  and  C_22
REMARK                            x       y       z     vdW  Elec       q    Type
REMARK                         _______ _______ _______ _____ _____    ______ ____
ROOT
ATOM      1  C   UNL     1      -1.427  -0.534   0.139  0.00  0.00    +0.074 C 
ENDROOT
BRANCH   1   2
ATOM      2  C   UNL     1      -1.192  -2.022   0.090  0.00  0.00    -0.018 A 
ATOM      3  C   UNL     1       0.076  -2.514  -0.154  0.00  0.00    +0.006 A 
ATOM      4  C   UNL     1       0.292  -3.879  -0.199  0.00  0.00    +0.000 A 
ATOM      5  C   UNL     1      -0.761  -4.752   0.001  0.00  0.00    +0.001 A 
ATOM      6  C   UNL     1      -2.030  -4.261   0.245  0.00  0.00    +0.015 A 
ATOM      7  C   UNL     1      -2.245  -2.895   0.294  0.00  0.00    +0.022 A 
ATOM      8 BR   UNL     1      -3.979  -2.223   0.635  0.00  0.00    -0.050 Br
ENDBRANCH   1   2
BRANCH   1   9
ATOM      9  N   UNL     1      -2.048  -0.095  -1.118  0.00  0.00    -0.286 NA
ATOM     10  C   UNL     1      -2.774   1.188  -0.933  0.00  0.00    +0.086 C 
ATOM     11  C   UNL     1      -2.889   1.741  -2.375  0.00  0.00    +0.017 C 
ATOM     12  C   UNL     1      -1.536   1.340  -3.008  0.00  0.00    +0.029 C 
ATOM     13  C   UNL     1      -1.025   0.166  -2.153  0.00  0.00    +0.144 C 
BRANCH  13  14
ATOM     14  C   UNL     1      -0.842  -1.056  -3.015  0.00  0.00    +0.230 C 
ATOM     15  O   UNL     1      -1.496  -2.054  -2.798  0.00  0.00    -0.274 OA
ATOM     16  N   UNL     1       0.047  -1.040  -4.027  0.00  0.00    -0.317 N 
ATOM     17  C   UNL     1       0.224  -2.229  -4.865  0.00  0.00    +0.128 C 
ATOM     18  H   UNL     1       0.570  -0.242  -4.201  0.00  0.00    +0.148 HD
ENDBRANCH  13  14
ENDBRANCH   1   9
BRANCH   1  20
ATOM     19  C   UNL     1      -0.310   1.698   0.239  0.00  0.00    -0.012 C 
ATOM     20  C   UNL     1      -0.090   0.187   0.326  0.00  0.00    -0.056 C 
BRANCH  20  21
ATOM     21  N   UNL     1       0.469  -0.152   1.641  0.00  0.00    +0.381 N 
ATOM     22  H   UNL     1      -0.173   0.136   2.364  0.00  0.00    -0.090 HD
ATOM     23  H   UNL     1       0.614  -1.149   1.698  0.00  0.00    -0.090 HD
ATOM     24  H   UNL     1       1.351   0.323   1.764  0.00  0.00    -0.090 HD
ENDBRANCH  20  21
ENDBRANCH   1  20
TORSDOF 5
