REMARK  Name = ZINC33106582
REMARK  4 active torsions:
REMARK  status: ('A' for Active; 'I' for Inactive)
REMARK    1  A    between atoms: C_4  and  C_7
REMARK    2  A    between atoms: C_7  and  N_8
REMARK    3  A    between atoms: N_25  and  C_26
REMARK    4  A    between atoms: C_31  and  C_32
REMARK                            x       y       z     vdW  Elec       q    Type
REMARK                         _______ _______ _______ _____ _____    ______ ____
ROOT
ATOM      1  N   UNL     1       0.230   5.862   2.176  0.00  0.00    -0.309 N 
ATOM      2  C   UNL     1       0.949   6.643   3.066  0.00  0.00    +0.068 A 
ATOM      3  C   UNL     1       0.662   7.792   3.786  0.00  0.00    +0.028 A 
ATOM      4  C   UNL     1       1.623   8.347   4.606  0.00  0.00    +0.002 A 
ATOM      5  C   UNL     1       2.875   7.762   4.716  0.00  0.00    +0.002 A 
ATOM      6  C   UNL     1       3.178   6.620   4.008  0.00  0.00    +0.028 A 
ATOM      7  C   UNL     1       2.216   6.046   3.173  0.00  0.00    +0.065 A 
ATOM      8  N   UNL     1       2.212   4.952   2.368  0.00  0.00    -0.327 N 
ATOM      9  C   UNL     1       1.046   4.840   1.783  0.00  0.00    +0.177 A 
ATOM     10  N   UNL     1       0.695   3.842   0.898  0.00  0.00    -0.299 N 
ATOM     11  C   UNL     1       1.877   3.087   0.461  0.00  0.00    +0.127 C 
ATOM     12  C   UNL     1       1.475   2.113  -0.651  0.00  0.00    +0.128 C 
ATOM     13  N   UNL     1       0.355   1.291  -0.170  0.00  0.00    -0.282 N 
ATOM     14  C   UNL     1      -0.814   1.974   0.405  0.00  0.00    +0.128 C 
ATOM     15  C   UNL     1      -0.319   2.954   1.481  0.00  0.00    +0.127 C 
ATOM     16  C   UNL     1       0.396  -0.053  -0.257  0.00  0.00    +0.307 C 
ATOM     17  O   UNL     1       1.329  -0.598  -0.815  0.00  0.00    -0.252 OA
ATOM     18  N   UNL     1      -0.598  -0.794   0.273  0.00  0.00    -0.269 N 
ATOM     19  H   UNL     1      -1.489  -0.302   0.689  0.00  0.00    +0.156 HD
ATOM     20  H   UNL     1       3.111   4.322   2.292  0.00  0.00    +0.169 HD
ENDROOT
BRANCH  18  21
ATOM     21  C   UNL     1      -0.495  -2.190   0.295  0.00  0.00    +0.046 A 
ATOM     22  C   UNL     1       0.742  -2.799   0.126  0.00  0.00    +0.024 A 
ATOM     23  C   UNL     1       0.840  -4.176   0.153  0.00  0.00    +0.002 A 
ATOM     24  C   UNL     1      -0.292  -4.949   0.337  0.00  0.00    +0.001 A 
ATOM     25  C   UNL     1      -1.525  -4.345   0.500  0.00  0.00    +0.014 A 
ATOM     26  C   UNL     1      -1.630  -2.968   0.479  0.00  0.00    +0.076 A 
BRANCH  26  27
ATOM     27  C   UNL     1      -2.974  -2.311   0.657  0.00  0.00    +0.419 C 
ATOM     28  F   UNL     1      -3.955  -3.294   0.824  0.00  0.00    -0.166 F 
ATOM     29  F   UNL     1      -2.945  -1.485   1.785  0.00  0.00    -0.166 F 
ATOM     30  F   UNL     1      -3.271  -1.544  -0.475  0.00  0.00    -0.166 F 
ENDBRANCH  26  27
ENDBRANCH  18  21
BRANCH   1  31
ATOM     31  C   UNL     1      -1.150   6.089   1.740  0.00  0.00    +0.160 C 
BRANCH  31  35
ATOM     32  C   UNL     1      -1.147   8.353  -1.882  0.00  0.00    +0.000 A 
ATOM     33  C   UNL     1      -1.218   6.973  -1.929  0.00  0.00    +0.000 A 
ATOM     34  C   UNL     1      -1.219   6.240  -0.757  0.00  0.00    +0.005 A 
ATOM     35  C   UNL     1      -1.149   6.887   0.462  0.00  0.00    -0.028 A 
ATOM     36  C   UNL     1      -1.083   8.267   0.510  0.00  0.00    +0.005 A 
ATOM     37  C   UNL     1      -1.076   9.000  -0.662  0.00  0.00    +0.000 A 
ENDBRANCH  31  35
ENDBRANCH   1  31
TORSDOF 4
