REMARK  Name = ZINC06857342
REMARK  15 active torsions:
REMARK  status: ('A' for Active; 'I' for Inactive)
REMARK    1  A    between atoms: C_1  and  C_2
REMARK    2  A    between atoms: C_2  and  C_3
REMARK    3  A    between atoms: C_2  and  C_4
REMARK    4  A    between atoms: C_2  and  C_5
REMARK    5  A    between atoms: C_5  and  C_6
REMARK    6  A    between atoms: C_6  and  C_7
REMARK    7  A    between atoms: C_6  and  C_8
REMARK    8  A    between atoms: C_6  and  N_52
REMARK    9  A    between atoms: C_9  and  C_10
REMARK   10  A    between atoms: C_9  and  N_52
REMARK   11  A    between atoms: C_12  and  O_22
REMARK   12  A    between atoms: C_13  and  O_17
REMARK   13  A    between atoms: O_17  and  C_18
REMARK   14  A    between atoms: C_18  and  C_19
REMARK   15  A    between atoms: O_22  and  C_23
REMARK                            x       y       z     vdW  Elec       q    Type
REMARK                         _______ _______ _______ _____ _____    ______ ____
ROOT
ATOM      1  C   UNL     1       0.863   1.715   5.875  0.00  0.00    -0.059 A 
ATOM      2  C   UNL     1       1.611   2.862   5.685  0.00  0.00    +0.051 A 
ATOM      3  C   UNL     1       1.232   3.785   4.723  0.00  0.00    +0.163 A 
ATOM      4  C   UNL     1       0.099   3.554   3.949  0.00  0.00    +0.181 A 
ATOM      5  C   UNL     1      -0.649   2.404   4.147  0.00  0.00    +0.086 A 
ATOM      6  C   UNL     1      -0.262   1.484   5.106  0.00  0.00    +0.025 A 
ATOM      7 CL   UNL     1      -2.067   2.115   3.189  0.00  0.00    -0.080 Cl
ENDROOT
BRANCH   3   8
ATOM      8  O   UNL     1       1.967   4.914   4.535  0.00  0.00    -0.491 OA
ATOM      9  C   UNL     1       3.117   5.085   5.366  0.00  0.00    +0.277 C 
ENDBRANCH   3   8
BRANCH   1  10
ATOM     10  C   UNL     1       1.277   0.713   6.921  0.00  0.00    -0.046 C 
BRANCH  10  11
ATOM     11  N   UNL     1       0.629   1.056   8.202  0.00  0.00    +0.385 N 
ATOM     12  H   UNL     1       0.921   1.998   8.487  0.00  0.00    -0.085 HD
ATOM     13  H   UNL     1      -0.390   1.034   8.082  0.00  0.00    -0.085 HD
BRANCH  11  14
ATOM     14  C   UNL     1       1.017   0.090   9.247  0.00  0.00    -0.073 C 
ATOM     15  C   UNL     1       0.582  -1.318   8.833  0.00  0.00    -0.010 C 
ATOM     16  C   UNL     1       2.535   0.119   9.436  0.00  0.00    -0.010 C 
BRANCH  14  17
ATOM     17  C   UNL     1       0.332   0.470  10.560  0.00  0.00    -0.007 C 
BRANCH  17  19
ATOM     18  C   UNL     1      -0.436   2.709   9.759  0.00  0.00    +0.010 C 
ATOM     19  C   UNL     1       0.445   1.981  10.776  0.00  0.00    -0.039 C 
ATOM     20  C   UNL     1      -0.016   2.330  12.193  0.00  0.00    +0.010 C 
ATOM     21  C   UNL     1       1.901   2.414  10.592  0.00  0.00    +0.010 C 
ENDBRANCH  17  19
ENDBRANCH  14  17
ENDBRANCH  11  14
ENDBRANCH  10  11
ENDBRANCH   1  10
BRANCH   4  22
ATOM     22  O   UNL     1      -0.277   4.457   3.004  0.00  0.00    -0.478 OA
BRANCH  22  23
ATOM     23  C   UNL     1       0.257   4.282   1.690  0.00  0.00    +0.324 C 
BRANCH  23  24
ATOM     24  C   UNL     1      -0.266   5.367   0.786  0.00  0.00    +0.248 C 
ATOM     25  O   UNL     1      -1.022   6.209   1.223  0.00  0.00    -0.272 OA
ATOM     26  N   UNL     1       0.106   5.404  -0.509  0.00  0.00    -0.327 N 
ATOM     27  H   UNL     1       0.711   4.731  -0.859  0.00  0.00    +0.145 HD
ATOM     28  H   UNL     1      -0.231   6.103  -1.091  0.00  0.00    +0.145 HD
ENDBRANCH  23  24
ENDBRANCH  22  23
ENDBRANCH   4  22
TORSDOF 9
