REMARK  Name = ZINC67298356
REMARK  3 active torsions:
REMARK  status: ('A' for Active; 'I' for Inactive)
REMARK    1  A    between atoms: C_3  and  O_23
REMARK    2  A    between atoms: C_8  and  C_20
REMARK    3  A    between atoms: N_10  and  C_11
REMARK                            x       y       z     vdW  Elec       q    Type
REMARK                         _______ _______ _______ _____ _____    ______ ____
ROOT
ATOM      1  C   UNL     1      -0.189   1.311   1.482  0.00  0.00    +0.015 A 
ATOM      2  C   UNL     1       0.932   1.932   1.949  0.00  0.00    +0.046 A 
ATOM      3  C   UNL     1       2.148   1.253   1.995  0.00  0.00    +0.120 A 
ATOM      4  C   UNL     1       2.238  -0.059   1.554  0.00  0.00    +0.092 A 
ATOM      5  C   UNL     1       1.111  -0.702   1.072  0.00  0.00    +0.141 A 
ATOM      6  C   UNL     1      -0.123  -0.023   1.055  0.00  0.00    +0.018 A 
ATOM      7  C   UNL     1      -1.290  -0.691   0.601  0.00  0.00    +0.030 A 
ATOM      8  C   UNL     1      -1.219  -2.059   0.383  0.00  0.00    +0.097 A 
ATOM      9  C   UNL     1       0.066  -2.727   0.674  0.00  0.00    +0.212 A 
ATOM     10  N   UNL     1       0.115  -4.004   0.983  0.00  0.00    -0.324 N 
ATOM     11  O   UNL     1       1.195  -1.974   0.610  0.00  0.00    -0.438 OA
ATOM     12  H   UNL     1      -0.705  -4.519   1.047  0.00  0.00    +0.169 HD
ENDROOT
BRANCH  10  13
ATOM     13  C   UNL     1       1.321  -4.606   1.216  0.00  0.00    +0.061 A 
ATOM     14  C   UNL     1       2.364  -4.464   0.298  0.00  0.00    +0.030 A 
ATOM     15  C   UNL     1       3.578  -5.073   0.537  0.00  0.00    +0.040 A 
ATOM     16  C   UNL     1       3.765  -5.824   1.687  0.00  0.00    +0.125 A 
ATOM     17  C   UNL     1       2.735  -5.969   2.602  0.00  0.00    +0.060 A 
ATOM     18  C   UNL     1       1.518  -5.359   2.376  0.00  0.00    +0.067 A 
ATOM     19 CL   UNL     1       0.230  -5.535   3.527  0.00  0.00    -0.081 Cl
ATOM     20  F   UNL     1       4.957  -6.418   1.916  0.00  0.00    -0.205 F 
ENDBRANCH  10  13
BRANCH   8  21
ATOM     21  C   UNL     1      -2.378  -2.816  -0.117  0.00  0.00    +0.247 C 
ATOM     22  O   UNL     1      -2.261  -3.993  -0.399  0.00  0.00    -0.270 OA
ATOM     23  N   UNL     1      -3.570  -2.204  -0.263  0.00  0.00    -0.325 N 
ATOM     24  H   UNL     1      -3.682  -1.285   0.027  0.00  0.00    +0.145 HD
ATOM     25  H   UNL     1      -4.316  -2.682  -0.658  0.00  0.00    +0.145 HD
ENDBRANCH   8  21
BRANCH   3  26
ATOM     26  O   UNL     1       3.252   1.880   2.474  0.00  0.00    -0.507 OA
ATOM     27  H   UNL     1       3.382   1.776   3.426  0.00  0.00    +0.292 HD
ENDBRANCH   3  26
TORSDOF 3
