REMARK  Name = ZINC08671380
REMARK  3 active torsions:
REMARK  status: ('A' for Active; 'I' for Inactive)
REMARK    1  A    between atoms: C_1  and  C_2
REMARK    2  A    between atoms: C_5  and  N_8
REMARK    3  A    between atoms: C_26  and  C_29
REMARK                            x       y       z     vdW  Elec       q    Type
REMARK                         _______ _______ _______ _____ _____    ______ ____
ROOT
ATOM      1  N   UNL     1       0.059  -4.172  -0.021  0.00  0.00    -0.210 N 
ATOM      2  C   UNL     1       0.167  -4.900   1.096  0.00  0.00    +0.233 C 
ATOM      3  O   UNL     1       0.260  -4.450   2.218  0.00  0.00    -0.274 OA
ATOM      4  C   UNL     1       0.155  -6.370   0.744  0.00  0.00    +0.120 C 
ATOM      5  C   UNL     1       0.019  -6.363  -0.809  0.00  0.00    +0.123 C 
ATOM      6  C   UNL     1      -0.036  -4.891  -1.145  0.00  0.00    +0.233 C 
ATOM      7  O   UNL     1      -0.147  -4.431  -2.262  0.00  0.00    -0.274 OA
ATOM      8  C   UNL     1       1.393  -6.929  -1.274  0.00  0.00    +0.175 C 
ATOM      9  C   UNL     1       1.344  -8.453  -0.953  0.00  0.00    +0.245 C 
ATOM     10  C   UNL     1       1.472  -8.478   0.599  0.00  0.00    +0.117 C 
ATOM     11  C   UNL     1       1.583  -6.946   0.979  0.00  0.00    +0.144 C 
ATOM     12  O   UNL     1       2.283  -6.425  -0.226  0.00  0.00    -0.367 OA
ATOM     13  C   UNL     1       2.808  -9.142   0.837  0.00  0.00    +0.098 C 
ATOM     14  N   UNL     1       3.341  -9.436  -0.294  0.00  0.00    -0.088 NA
ATOM     15  O   UNL     1       2.556  -9.055  -1.422  0.00  0.00    -0.387 OA
ENDROOT
BRANCH  13  16
ATOM     16  C   UNL     1       3.405  -9.409   2.159  0.00  0.00    +0.018 A 
ATOM     17  C   UNL     1       2.725  -9.046   3.323  0.00  0.00    +0.012 A 
ATOM     18  C   UNL     1       3.288  -9.300   4.556  0.00  0.00    +0.021 A 
ATOM     19  C   UNL     1       4.528  -9.913   4.642  0.00  0.00    +0.042 A 
ATOM     20  C   UNL     1       5.209 -10.275   3.493  0.00  0.00    +0.040 A 
ATOM     21  C   UNL     1       4.653 -10.033   2.252  0.00  0.00    +0.051 A 
ATOM     22 CL   UNL     1       5.504 -10.494   0.811  0.00  0.00    -0.083 Cl
ATOM     23 CL   UNL     1       5.230 -10.228   6.198  0.00  0.00    -0.083 Cl
ENDBRANCH  13  16
BRANCH   1  28
ATOM     24  C   UNL     1      -0.016   1.503   0.009  0.00  0.00    +0.044 C 
ATOM     25  C   UNL     1       0.004  -0.004   0.001  0.00  0.00    -0.050 A 
ATOM     26  C   UNL     1       1.156  -0.681   0.356  0.00  0.00    +0.005 A 
ATOM     27  C   UNL     1       1.177  -2.062   0.350  0.00  0.00    +0.024 A 
ATOM     28  C   UNL     1       0.040  -2.771  -0.013  0.00  0.00    +0.044 A 
ATOM     29  C   UNL     1      -1.115  -2.088  -0.369  0.00  0.00    +0.024 A 
ATOM     30  C   UNL     1      -1.132  -0.707  -0.356  0.00  0.00    +0.005 A 
ENDBRANCH   1  28
TORSDOF 2
