REMARK  Name = ZINC66278290
REMARK  9 active torsions:
REMARK  status: ('A' for Active; 'I' for Inactive)
REMARK    1  A    between atoms: C_1  and  S_2
REMARK    2  A    between atoms: S_2  and  C_3
REMARK    3  A    between atoms: C_3  and  C_4
REMARK    4  A    between atoms: C_4  and  C_5
REMARK    5  A    between atoms: C_5  and  C_7
REMARK    6  A    between atoms: C_5  and  N_24
REMARK    7  A    between atoms: N_9  and  N_10
REMARK    8  A    between atoms: C_11  and  C_12
REMARK    9  A    between atoms: C_11  and  C_18
REMARK                            x       y       z     vdW  Elec       q    Type
REMARK                         _______ _______ _______ _____ _____    ______ ____
ROOT
ATOM      1  C   UNL     1      -1.541  -4.854  -0.068  0.00  0.00    +0.253 C 
ATOM      2  O   UNL     1      -1.379  -5.797   0.677  0.00  0.00    -0.272 OA
ATOM      3  N   UNL     1      -2.281  -4.997  -1.186  0.00  0.00    -0.205 N 
ATOM      4  H   UNL     1      -2.410  -4.242  -1.781  0.00  0.00    +0.177 HD
ENDROOT
BRANCH   3   5
ATOM      5  N   UNL     1      -2.862  -6.235  -1.487  0.00  0.00    -0.179 NA
ATOM      6  C   UNL     1      -3.482  -6.406  -2.624  0.00  0.00    +0.096 C 
BRANCH   6   7
ATOM      7  C   UNL     1      -3.444  -5.345  -3.655  0.00  0.00    +0.002 A 
ATOM      8  C   UNL     1      -2.251  -4.675  -3.927  0.00  0.00    +0.010 A 
ATOM      9  C   UNL     1      -2.222  -3.687  -4.889  0.00  0.00    +0.001 A 
ATOM     10  C   UNL     1      -3.373  -3.359  -5.584  0.00  0.00    +0.000 A 
ATOM     11  C   UNL     1      -4.559  -4.019  -5.318  0.00  0.00    +0.001 A 
ATOM     12  C   UNL     1      -4.600  -5.014  -4.363  0.00  0.00    +0.010 A 
ENDBRANCH   6   7
BRANCH   6  13
ATOM     13  C   UNL     1      -4.224  -7.662  -2.881  0.00  0.00    +0.002 A 
ATOM     14  C   UNL     1      -4.713  -7.937  -4.158  0.00  0.00    +0.010 A 
ATOM     15  C   UNL     1      -5.404  -9.109  -4.391  0.00  0.00    +0.001 A 
ATOM     16  C   UNL     1      -5.611 -10.010  -3.361  0.00  0.00    +0.000 A 
ATOM     17  C   UNL     1      -5.128  -9.742  -2.093  0.00  0.00    +0.001 A 
ATOM     18  C   UNL     1      -4.431  -8.577  -1.848  0.00  0.00    +0.010 A 
ENDBRANCH   6  13
ENDBRANCH   3   5
BRANCH   1  19
ATOM     19  C   UNL     1      -0.916  -3.521   0.256  0.00  0.00    +0.163 C 
BRANCH  19  20
ATOM     20  N   UNL     1      -0.589  -3.469   1.683  0.00  0.00    -0.288 N 
ATOM     21  C   UNL     1       0.266  -4.367   2.212  0.00  0.00    +0.298 C 
ATOM     22  O   UNL     1       0.766  -5.221   1.504  0.00  0.00    -0.253 OA
ATOM     23  N   UNL     1       0.566  -4.320   3.525  0.00  0.00    -0.313 N 
ATOM     24  H   UNL     1      -0.988  -2.789   2.248  0.00  0.00    +0.151 HD
ATOM     25  H   UNL     1       0.168  -3.639   4.089  0.00  0.00    +0.146 HD
ATOM     26  H   UNL     1       1.182  -4.966   3.905  0.00  0.00    +0.146 HD
ENDBRANCH  19  20
BRANCH  19  27
ATOM     27  C   UNL     1       0.362  -3.344  -0.567  0.00  0.00    +0.042 C 
BRANCH  27  28
ATOM     28  C   UNL     1       0.929  -1.942  -0.332  0.00  0.00    +0.071 C 
BRANCH  28  30
ATOM     29  C   UNL     1       2.983  -0.044  -0.922  0.00  0.00    +0.084 C 
ATOM     30  S   UNL     1       2.445  -1.732  -1.307  0.00  0.00    -0.164 S 
ENDBRANCH  28  30
ENDBRANCH  27  28
ENDBRANCH  19  27
ENDBRANCH   1  19
TORSDOF 8
