REMARK  Name = ZINC04729484
REMARK  6 active torsions:
REMARK  status: ('A' for Active; 'I' for Inactive)
REMARK    1  A    between atoms: C_1  and  C_2
REMARK    2  A    between atoms: C_2  and  C_3
REMARK    3  A    between atoms: C_6  and  C_9
REMARK    4  A    between atoms: C_11  and  C_23
REMARK    5  A    between atoms: C_13  and  C_16
REMARK    6  A    between atoms: C_21  and  O_22
REMARK                            x       y       z     vdW  Elec       q    Type
REMARK                         _______ _______ _______ _____ _____    ______ ____
ROOT
ATOM      1  C   UNL     1       1.173   3.563   0.009  0.00  0.00    +0.040 C 
ATOM      2  N   UNL     1       0.043   4.163   0.018  0.00  0.00    -0.299 NA
ATOM      3  C   UNL     1      -0.114   5.612   0.041  0.00  0.00    +0.081 C 
ATOM      4  C   UNL     1       2.267   5.752   0.400  0.00  0.00    -0.028 C 
ATOM      5  C   UNL     1       2.489   4.290   0.001  0.00  0.00    +0.044 C 
ATOM      6  N   UNL     1       1.129   6.277  -0.379  0.00  0.00    +0.401 N 
ATOM      7  H   UNL     1       1.045   7.287  -0.221  0.00  0.00    -0.081 HD
ATOM      8  H   UNL     1       1.289   6.099  -1.378  0.00  0.00    -0.081 HD
ENDROOT
BRANCH   3   9
ATOM      9  C   UNL     1      -1.224   6.003  -0.899  0.00  0.00    -0.040 A 
ATOM     10  C   UNL     1      -1.205   7.241  -1.514  0.00  0.00    +0.006 A 
ATOM     11  C   UNL     1      -2.220   7.599  -2.381  0.00  0.00    +0.038 A 
ATOM     12  C   UNL     1      -3.263   6.722  -2.625  0.00  0.00    +0.123 A 
ATOM     13  C   UNL     1      -3.284   5.484  -2.004  0.00  0.00    +0.038 A 
ATOM     14  C   UNL     1      -2.265   5.126  -1.142  0.00  0.00    +0.006 A 
ATOM     15  F   UNL     1      -4.259   7.073  -3.467  0.00  0.00    -0.205 F 
ENDBRANCH   3   9
BRANCH   1  19
ATOM     16  C   UNL     1       1.208  -0.683  -0.013  0.00  0.00    -0.048 A 
ATOM     17  C   UNL     1       0.002  -0.004   0.002  0.00  0.00    +0.004 A 
ATOM     18  C   UNL     1      -0.017   1.375   0.010  0.00  0.00    +0.010 A 
ATOM     19  C   UNL     1       1.185   2.087   0.002  0.00  0.00    -0.004 A 
ATOM     20  C   UNL     1       2.398   1.395  -0.013  0.00  0.00    +0.010 A 
ATOM     21  C   UNL     1       2.402   0.016  -0.021  0.00  0.00    +0.004 A 
BRANCH  16  23
ATOM     22  C   UNL     1       1.210  -2.692  -1.466  0.00  0.00    +0.009 C 
ATOM     23  C   UNL     1       1.220  -2.190  -0.021  0.00  0.00    +0.032 C 
ENDBRANCH  16  23
ENDBRANCH   1  19
BRANCH   4  24
ATOM     24  C   UNL     1       3.504   6.556   0.092  0.00  0.00    -0.019 A 
ATOM     25  C   UNL     1       3.562   7.322  -1.056  0.00  0.00    +0.005 A 
ATOM     26  C   UNL     1       4.695   8.064  -1.336  0.00  0.00    +0.000 A 
ATOM     27  C   UNL     1       5.776   8.033  -0.474  0.00  0.00    +0.004 A 
ATOM     28  C   UNL     1       5.724   7.265   0.672  0.00  0.00    +0.045 A 
ATOM     29  C   UNL     1       4.586   6.523   0.959  0.00  0.00    +0.118 A 
BRANCH  29  30
ATOM     30  O   UNL     1       4.533   5.766   2.086  0.00  0.00    -0.507 OA
ATOM     31  H   UNL     1       4.853   4.861   1.968  0.00  0.00    +0.292 HD
ENDBRANCH  29  30
ENDBRANCH   4  24
TORSDOF 5
