REMARK  Name = ZINC13041268
REMARK  12 active torsions:
REMARK  status: ('A' for Active; 'I' for Inactive)
REMARK    1  A    between atoms: C_1  and  C_2
REMARK    2  A    between atoms: C_2  and  C_4
REMARK    3  A    between atoms: C_2  and  N_13
REMARK    4  A    between atoms: C_7  and  C_10
REMARK    5  A    between atoms: C_10  and  C_11
REMARK    6  A    between atoms: C_10  and  C_12
REMARK    7  A    between atoms: C_14  and  C_16
REMARK    8  A    between atoms: C_16  and  N_17
REMARK    9  A    between atoms: N_17  and  C_18
REMARK   10  A    between atoms: N_17  and  C_19
REMARK   11  A    between atoms: C_19  and  C_20
REMARK   12  A    between atoms: N_22  and  C_23
REMARK                            x       y       z     vdW  Elec       q    Type
REMARK                         _______ _______ _______ _____ _____    ______ ____
ROOT
ATOM      1  C   UNL     1      -5.978   0.137  -0.256  0.00  0.00    +0.019 C 
ENDROOT
BRANCH   1   3
ATOM      2  N   UNL     1      -5.401   1.875   1.408  0.00  0.00    -0.310 N 
ATOM      3  C   UNL     1      -5.859   1.576   0.176  0.00  0.00    +0.197 C 
ATOM      4  O   UNL     1      -6.176   2.466  -0.585  0.00  0.00    -0.278 OA
ATOM      5  H   UNL     1      -5.147   1.163   2.017  0.00  0.00    +0.149 HD
BRANCH   2   7
ATOM      6  C   UNL     1      -6.632   3.755   2.372  0.00  0.00    +0.033 C 
ATOM      7  C   UNL     1      -5.285   3.273   1.827  0.00  0.00    +0.100 C 
BRANCH   7   8
ATOM      8  C   UNL     1      -4.238   3.390   2.904  0.00  0.00    -0.027 A 
ATOM      9  C   UNL     1      -4.143   2.420   3.885  0.00  0.00    +0.006 A 
ATOM     10  C   UNL     1      -3.182   2.527   4.872  0.00  0.00    +0.004 A 
ATOM     11  C   UNL     1      -2.315   3.604   4.879  0.00  0.00    -0.045 A 
ATOM     12  C   UNL     1      -2.409   4.573   3.898  0.00  0.00    +0.004 A 
ATOM     13  C   UNL     1      -3.367   4.464   2.908  0.00  0.00    +0.006 A 
BRANCH  11  14
ATOM     14  C   UNL     1      -1.268   3.721   5.957  0.00  0.00    +0.013 C 
ATOM     15  C   UNL     1       0.122   3.735   5.317  0.00  0.00    +0.012 C 
ATOM     16  C   UNL     1      -1.483   5.019   6.738  0.00  0.00    +0.012 C 
ENDBRANCH  11  14
ENDBRANCH   7   8
ENDBRANCH   2   7
ENDBRANCH   1   3
BRANCH   1  17
ATOM     17  N   UNL     1      -6.498   0.079  -1.628  0.00  0.00    +0.389 N 
ATOM     18  C   UNL     1      -7.868   0.607  -1.656  0.00  0.00    -0.095 C 
ATOM     19  H   UNL     1      -5.911   0.633  -2.234  0.00  0.00    -0.081 HD
BRANCH  17  20
ATOM     20  C   UNL     1      -6.501  -1.315  -2.092  0.00  0.00    +0.019 C 
BRANCH  20  21
ATOM     21  C   UNL     1      -6.917  -1.362  -3.540  0.00  0.00    +0.201 C 
ATOM     22  O   UNL     1      -7.184  -0.335  -4.127  0.00  0.00    -0.278 OA
ATOM     23  N   UNL     1      -6.992  -2.545  -4.181  0.00  0.00    -0.285 N 
ATOM     24  H   UNL     1      -6.708  -3.358  -3.735  0.00  0.00    +0.155 HD
BRANCH  23  25
ATOM     25  C   UNL     1      -7.479  -2.600  -5.493  0.00  0.00    +0.070 A 
ATOM     26  C   UNL     1      -6.603  -2.494  -6.566  0.00  0.00    +0.064 A 
ATOM     27  C   UNL     1      -7.087  -2.549  -7.860  0.00  0.00    +0.022 A 
ATOM     28  C   UNL     1      -8.442  -2.709  -8.086  0.00  0.00    +0.003 A 
ATOM     29  C   UNL     1      -9.316  -2.815  -7.021  0.00  0.00    +0.022 A 
ATOM     30  C   UNL     1      -8.838  -2.767  -5.724  0.00  0.00    +0.064 A 
ATOM     31 CL   UNL     1      -9.937  -2.908  -4.387  0.00  0.00    -0.082 Cl
ATOM     32 CL   UNL     1      -4.902  -2.292  -6.283  0.00  0.00    -0.082 Cl
ENDBRANCH  23  25
ENDBRANCH  20  21
ENDBRANCH  17  20
ENDBRANCH   1  17
TORSDOF 8
