REMARK  Name = ZINC27496748
REMARK  6 active torsions:
REMARK  status: ('A' for Active; 'I' for Inactive)
REMARK    1  A    between atoms: C_1  and  O_2
REMARK    2  A    between atoms: O_2  and  C_3
REMARK    3  A    between atoms: C_8  and  C_9
REMARK    4  A    between atoms: N_11  and  N_12
REMARK    5  A    between atoms: C_14  and  C_24
REMARK    6  A    between atoms: C_19  and  O_23
REMARK                            x       y       z     vdW  Elec       q    Type
REMARK                         _______ _______ _______ _____ _____    ______ ____
ROOT
ATOM      1  N   UNL     1       5.757  -2.375  -0.592  0.00  0.00    -0.273 N 
ATOM      2  C   UNL     1       5.223  -3.115   0.343  0.00  0.00    +0.223 A 
ATOM      3  C   UNL     1       4.033  -2.656   1.092  0.00  0.00    +0.079 A 
ATOM      4  C   UNL     1       3.213  -3.622   1.624  0.00  0.00    +0.028 A 
ATOM      5  C   UNL     1       3.577  -5.024   1.395  0.00  0.00    +0.018 A 
ATOM      6  C   UNL     1       2.666  -6.052   1.658  0.00  0.00    +0.015 A 
ATOM      7  C   UNL     1       3.025  -7.352   1.437  0.00  0.00    +0.046 A 
ATOM      8  C   UNL     1       4.292  -7.661   0.950  0.00  0.00    +0.120 A 
ATOM      9  C   UNL     1       5.208  -6.653   0.686  0.00  0.00    +0.092 A 
ATOM     10  C   UNL     1       4.861  -5.332   0.907  0.00  0.00    +0.141 A 
ATOM     11  O   UNL     1       5.745  -4.334   0.657  0.00  0.00    -0.437 OA
ATOM     12  H   UNL     1       6.725  -2.658  -1.032  0.00  0.00    +0.188 HD
ENDROOT
BRANCH   3  13
ATOM     13  C   UNL     1       3.743  -1.221   1.267  0.00  0.00    +0.144 A 
ATOM     14  N   UNL     1       4.686  -0.232   1.368  0.00  0.00    -0.338 N 
ATOM     15  H   UNL     1       5.755  -0.484   1.319  0.00  0.00    +0.167 HD
ATOM     16  C   UNL     1       4.009   0.963   1.521  0.00  0.00    +0.066 A 
ATOM     17  C   UNL     1       4.409   2.284   1.670  0.00  0.00    +0.028 A 
ATOM     18  C   UNL     1       3.459   3.275   1.804  0.00  0.00    +0.002 A 
ATOM     19  C   UNL     1       2.107   2.960   1.791  0.00  0.00    +0.002 A 
ATOM     20  C   UNL     1       1.694   1.667   1.645  0.00  0.00    +0.030 A 
ATOM     21  C   UNL     1       2.640   0.644   1.508  0.00  0.00    +0.089 A 
ATOM     22  N   UNL     1       2.542  -0.698   1.351  0.00  0.00    -0.228 NA
ENDBRANCH   3  13
BRANCH   1  25
ATOM     23  C   UNL     1       5.698  -0.396  -1.914  0.00  0.00    +0.265 C 
ATOM     24  O   UNL     1       6.851  -0.597  -2.247  0.00  0.00    -0.268 OA
ATOM     25  N   UNL     1       5.096  -1.222  -1.036  0.00  0.00    -0.223 N 
ATOM     26  H   UNL     1       4.086  -0.991  -0.667  0.00  0.00    +0.175 HD
BRANCH  23  32
ATOM     27  C   UNL     1       5.616   1.685  -3.286  0.00  0.00    +0.132 A 
ATOM     28  C   UNL     1       4.911   2.758  -3.809  0.00  0.00    +0.046 A 
ATOM     29  C   UNL     1       3.569   2.912  -3.520  0.00  0.00    +0.004 A 
ATOM     30  C   UNL     1       2.917   1.995  -2.712  0.00  0.00    +0.001 A 
ATOM     31  C   UNL     1       3.602   0.920  -2.188  0.00  0.00    +0.017 A 
ATOM     32  C   UNL     1       4.959   0.753  -2.472  0.00  0.00    +0.080 A 
BRANCH  27  34
ATOM     33  C   UNL     1       7.538   2.526  -4.402  0.00  0.00    +0.277 C 
ATOM     34  O   UNL     1       6.936   1.536  -3.565  0.00  0.00    -0.494 OA
ENDBRANCH  27  34
ENDBRANCH  23  32
ENDBRANCH   1  25
BRANCH   8  35
ATOM     35  O   UNL     1       4.633  -8.957   0.733  0.00  0.00    -0.507 OA
ATOM     36  H   UNL     1       5.633  -9.205   0.349  0.00  0.00    +0.292 HD
ENDBRANCH   8  35
TORSDOF 5
