REMARK  Name = ZINC21632517
REMARK  9 active torsions:
REMARK  status: ('A' for Active; 'I' for Inactive)
REMARK    1  A    between atoms: C_1  and  C_2
REMARK    2  A    between atoms: C_5  and  N_17
REMARK    3  A    between atoms: C_7  and  S_8
REMARK    4  A    between atoms: S_8  and  N_11
REMARK    5  A    between atoms: N_17  and  S_18
REMARK    6  A    between atoms: S_18  and  C_21
REMARK    7  A    between atoms: C_23  and  N_29
REMARK    8  A    between atoms: C_26  and  O_27
REMARK    9  A    between atoms: O_27  and  C_28
REMARK                            x       y       z     vdW  Elec       q    Type
REMARK                         _______ _______ _______ _____ _____    ______ ____
ROOT
ATOM      1  C   UNL     1      -7.941   6.779   2.559  0.00  0.00    +0.046 C 
ATOM      2  C   UNL     1      -7.474   5.350   2.445  0.00  0.00    -0.024 A 
ATOM      3  C   UNL     1      -6.158   5.078   2.118  0.00  0.00    +0.007 A 
ATOM      4  C   UNL     1      -5.726   3.771   2.017  0.00  0.00    +0.027 A 
ATOM      5  C   UNL     1      -6.617   2.728   2.234  0.00  0.00    +0.076 A 
ATOM      6  C   UNL     1      -7.938   3.004   2.562  0.00  0.00    +0.055 A 
ATOM      7  C   UNL     1      -8.363   4.314   2.667  0.00  0.00    +0.110 A 
ENDROOT
BRANCH   7   8
ATOM      8  S   UNL     1     -10.038   4.666   3.083  0.00  0.00    +0.061 S 
ATOM      9  O   UNL     1     -10.468   5.694   2.201  0.00  0.00    -0.153 OA
ATOM     10  O   UNL     1     -10.705   3.415   3.177  0.00  0.00    -0.153 OA
BRANCH   8  11
ATOM     11  N   UNL     1     -10.038   5.318   4.605  0.00  0.00    -0.177 NA
ATOM     12  C   UNL     1     -10.031   4.450   5.791  0.00  0.00    +0.109 C 
ATOM     13  C   UNL     1      -8.858   4.865   6.692  0.00  0.00    +0.017 C 
ATOM     14  C   UNL     1      -8.967   6.358   7.008  0.00  0.00    +0.003 C 
ATOM     15  C   UNL     1      -8.884   7.163   5.709  0.00  0.00    +0.017 C 
ATOM     16  C   UNL     1     -10.051   6.775   4.796  0.00  0.00    +0.109 C 
ENDBRANCH   8  11
ENDBRANCH   7   8
BRANCH   5  17
ATOM     17  N   UNL     1      -6.185   1.404   2.127  0.00  0.00    -0.098 NA
BRANCH  17  18
ATOM     18  S   UNL     1      -5.244   0.940   0.846  0.00  0.00    +0.095 S 
ATOM     19  O   UNL     1      -5.036  -0.459   0.980  0.00  0.00    -0.148 OA
ATOM     20  O   UNL     1      -4.169   1.867   0.775  0.00  0.00    -0.148 OA
BRANCH  18  21
ATOM     21  C   UNL     1      -6.203   1.170  -0.614  0.00  0.00    +0.154 A 
ATOM     22  C   UNL     1      -5.822   2.111  -1.551  0.00  0.00    +0.065 A 
ATOM     23  C   UNL     1      -6.574   2.292  -2.697  0.00  0.00    +0.128 A 
ATOM     24  C   UNL     1      -7.712   1.534  -2.906  0.00  0.00    +0.036 A 
ATOM     25  C   UNL     1      -8.094   0.587  -1.976  0.00  0.00    +0.050 A 
ATOM     26  C   UNL     1      -7.341   0.405  -0.825  0.00  0.00    +0.147 A 
BRANCH  23  27
ATOM     27  N   UNL     1      -6.164   3.301  -3.699  0.00  0.00    +0.056 N 
ATOM     28  O   UNL     1      -5.165   3.972  -3.513  0.00  0.00    -0.126 OA
ATOM     29  O   UNL     1      -6.823   3.457  -4.711  0.00  0.00    -0.126 OA
ENDBRANCH  23  27
BRANCH  26  30
ATOM     30  O   UNL     1      -7.718  -0.522   0.095  0.00  0.00    -0.493 OA
ATOM     31  C   UNL     1      -8.835  -1.349  -0.237  0.00  0.00    +0.277 C 
ENDBRANCH  26  30
ENDBRANCH  18  21
ENDBRANCH  17  18
ENDBRANCH   5  17
TORSDOF 7
