REMARK  Name = ZINC47992962
REMARK  10 active torsions:
REMARK  status: ('A' for Active; 'I' for Inactive)
REMARK    1  A    between atoms: C_1  and  N_2
REMARK    2  A    between atoms: C_3  and  C_5
REMARK    3  A    between atoms: C_8  and  C_11
REMARK    4  A    between atoms: C_11  and  N_12
REMARK    5  A    between atoms: N_15  and  C_16
REMARK    6  A    between atoms: C_16  and  C_17
REMARK    7  A    between atoms: C_17  and  C_18
REMARK    8  A    between atoms: C_17  and  N_25
REMARK    9  A    between atoms: N_25  and  C_26
REMARK   10  A    between atoms: N_25  and  C_27
REMARK                            x       y       z     vdW  Elec       q    Type
REMARK                         _______ _______ _______ _____ _____    ______ ____
ROOT
ATOM      1  N   UNL     1       1.934  -7.487   1.135  0.00  0.00    -0.295 N 
ATOM      2  C   UNL     1       2.192  -8.740   0.710  0.00  0.00    +0.300 C 
ATOM      3  O   UNL     1       1.466  -9.656   1.042  0.00  0.00    -0.253 OA
ATOM      4  N   UNL     1       3.256  -8.976  -0.083  0.00  0.00    -0.301 N 
ATOM      5  H   UNL     1       2.514  -6.756   0.870  0.00  0.00    +0.151 HD
ATOM      6  H   UNL     1       3.836  -8.245  -0.348  0.00  0.00    +0.150 HD
ENDROOT
BRANCH   1   7
ATOM      7  C   UNL     1       0.778  -7.230   1.997  0.00  0.00    +0.141 C 
BRANCH   7  11
ATOM      8  C   UNL     1       0.597  -3.062   2.934  0.00  0.00    +0.037 A 
ATOM      9  C   UNL     1      -0.059  -3.555   1.806  0.00  0.00    +0.013 A 
ATOM     10  C   UNL     1       0.004  -4.901   1.509  0.00  0.00    +0.006 A 
ATOM     11  C   UNL     1       0.714  -5.761   2.327  0.00  0.00    -0.030 A 
ATOM     12  C   UNL     1       1.366  -5.278   3.448  0.00  0.00    +0.006 A 
ATOM     13  C   UNL     1       1.316  -3.934   3.753  0.00  0.00    +0.013 A 
BRANCH   8  16
ATOM     14  C   UNL     1      -0.224   0.647   2.787  0.00  0.00    +0.128 C 
ATOM     15  N   UNL     1      -0.162  -0.781   2.466  0.00  0.00    -0.314 N 
ATOM     16  C   UNL     1       0.534  -1.621   3.259  0.00  0.00    +0.244 C 
ATOM     17  O   UNL     1       1.110  -1.193   4.240  0.00  0.00    -0.270 OA
ATOM     18  H   UNL     1      -0.621  -1.123   1.683  0.00  0.00    +0.149 HD
ENDBRANCH   8  16
ENDBRANCH   7  11
ENDBRANCH   1   7
BRANCH   4  19
ATOM     19  C   UNL     1       3.537 -10.338  -0.545  0.00  0.00    +0.095 C 
BRANCH  19  20
ATOM     20  C   UNL     1       4.716 -10.312  -1.520  0.00  0.00    -0.020 C 
BRANCH  20  21
ATOM     21  C   UNL     1       4.330  -9.541  -2.756  0.00  0.00    -0.041 A 
ATOM     22  C   UNL     1       4.737  -8.229  -2.907  0.00  0.00    +0.003 A 
ATOM     23  C   UNL     1       4.383  -7.521  -4.040  0.00  0.00    +0.000 A 
ATOM     24  C   UNL     1       3.621  -8.125  -5.023  0.00  0.00    +0.001 A 
ATOM     25  C   UNL     1       3.214  -9.437  -4.873  0.00  0.00    +0.020 A 
ATOM     26  C   UNL     1       3.573 -10.148  -3.742  0.00  0.00    +0.043 A 
ATOM     27 CL   UNL     1       3.067 -11.798  -3.555  0.00  0.00    -0.083 Cl
ENDBRANCH  20  21
BRANCH  20  28
ATOM     28  N   UNL     1       5.868  -9.664  -0.879  0.00  0.00    +0.382 N 
ATOM     29  C   UNL     1       6.162 -10.337   0.394  0.00  0.00    -0.096 C 
ATOM     30  C   UNL     1       7.037  -9.757  -1.763  0.00  0.00    -0.096 C 
ATOM     31  H   UNL     1       5.654  -8.694  -0.704  0.00  0.00    -0.082 HD
ENDBRANCH  20  28
ENDBRANCH  19  20
ENDBRANCH   4  19
TORSDOF 7
