REMARK  Name = ZINC16734961
REMARK  12 active torsions:
REMARK  status: ('A' for Active; 'I' for Inactive)
REMARK    1  A    between atoms: C_1  and  C_2
REMARK    2  A    between atoms: C_2  and  C_4
REMARK    3  A    between atoms: C_2  and  S_15
REMARK    4  A    between atoms: N_6  and  C_7
REMARK    5  A    between atoms: C_8  and  C_12
REMARK    6  A    between atoms: S_15  and  C_16
REMARK    7  A    between atoms: C_19  and  C_26
REMARK    8  A    between atoms: N_20  and  C_21
REMARK    9  A    between atoms: C_29  and  C_32
REMARK   10  A    between atoms: C_32  and  C_33
REMARK   11  A    between atoms: C_32  and  C_34
REMARK   12  A    between atoms: C_32  and  C_35
REMARK                            x       y       z     vdW  Elec       q    Type
REMARK                         _______ _______ _______ _____ _____    ______ ____
ROOT
ATOM      1  C   UNL     1      -3.907   2.129   1.029  0.00  0.00    +0.193 A 
ATOM      2  N   UNL     1      -3.945   3.240   0.327  0.00  0.00    -0.122 NA
ATOM      3  N   UNL     1      -5.154   3.670   0.247  0.00  0.00    -0.128 NA
ATOM      4  C   UNL     1      -5.961   2.860   0.892  0.00  0.00    +0.165 A 
ATOM      5  N   UNL     1      -5.188   1.846   1.408  0.00  0.00    -0.299 N 
ENDROOT
BRANCH   4   6
ATOM      6  C   UNL     1      -7.425   3.008   1.034  0.00  0.00    +0.019 A 
ATOM      7  C   UNL     1      -8.237   1.877   1.135  0.00  0.00    +0.012 A 
ATOM      8  C   UNL     1      -9.602   2.023   1.271  0.00  0.00    +0.005 A 
ATOM      9  C   UNL     1     -10.168   3.285   1.298  0.00  0.00    -0.042 A 
ATOM     10  C   UNL     1      -9.369   4.410   1.194  0.00  0.00    +0.005 A 
ATOM     11  C   UNL     1      -8.002   4.279   1.062  0.00  0.00    +0.012 A 
BRANCH   9  12
ATOM     12  C   UNL     1     -11.660   3.436   1.441  0.00  0.00    -0.013 C 
ATOM     13  C   UNL     1     -12.217   4.176   0.223  0.00  0.00    +0.015 C 
ATOM     14  C   UNL     1     -12.306   2.052   1.536  0.00  0.00    +0.015 C 
ATOM     15  C   UNL     1     -11.973   4.233   2.709  0.00  0.00    +0.015 C 
ENDBRANCH   9  12
ENDBRANCH   4   6
BRANCH   5  16
ATOM     16  C   UNL     1      -5.643   0.701   2.201  0.00  0.00    +0.091 C 
ATOM     17  C   UNL     1      -4.852   0.626   3.523  0.00  0.00    +0.025 C 
ATOM     18  C   UNL     1      -4.657  -0.893   3.762  0.00  0.00    +0.002 C 
ATOM     19  C   UNL     1      -4.410  -1.436   2.333  0.00  0.00    +0.002 C 
ATOM     20  C   UNL     1      -5.363  -0.609   1.444  0.00  0.00    +0.025 C 
ENDBRANCH   5  16
BRANCH   1  21
ATOM     21  S   UNL     1      -2.471   1.179   1.403  0.00  0.00    -0.073 S 
BRANCH  21  23
ATOM     22  C   UNL     1      -1.459   2.150  -0.941  0.00  0.00    +0.029 C 
ATOM     23  C   UNL     1      -1.210   2.172   0.568  0.00  0.00    +0.137 C 
BRANCH  23  24
ATOM     24  C   UNL     1       0.154   1.602   0.861  0.00  0.00    +0.231 C 
ATOM     25  O   UNL     1       0.272   0.430   1.151  0.00  0.00    -0.274 OA
ATOM     26  N   UNL     1       1.244   2.392   0.794  0.00  0.00    -0.278 N 
ATOM     27  H   UNL     1       1.150   3.329   0.561  0.00  0.00    +0.155 HD
BRANCH  26  28
ATOM     28  C   UNL     1       2.499   1.866   1.057  0.00  0.00    +0.084 A 
ATOM     29  C   UNL     1       3.729   2.513   1.034  0.00  0.00    +0.065 A 
ATOM     30  C   UNL     1       4.888   1.716   1.357  0.00  0.00    +0.022 A 
ATOM     31  C   UNL     1       4.681   0.417   1.641  0.00  0.00    +0.048 A 
ATOM     32  S   UNL     1       2.916   0.241   1.488  0.00  0.00    -0.081 S 
BRANCH  29  33
ATOM     33  C   UNL     1       3.843   3.937   0.702  0.00  0.00    +0.244 C 
ATOM     34  O   UNL     1       2.845   4.581   0.437  0.00  0.00    -0.270 OA
ATOM     35  N   UNL     1       5.052   4.531   0.689  0.00  0.00    -0.325 N 
ATOM     36  H   UNL     1       5.847   4.017   0.900  0.00  0.00    +0.145 HD
ATOM     37  H   UNL     1       5.128   5.473   0.469  0.00  0.00    +0.145 HD
ENDBRANCH  29  33
ENDBRANCH  26  28
ENDBRANCH  23  24
ENDBRANCH  21  23
ENDBRANCH   1  21
TORSDOF 8
