REMARK  Name = ZINC20293156
REMARK  9 active torsions:
REMARK  status: ('A' for Active; 'I' for Inactive)
REMARK    1  A    between atoms: C_1  and  O_2
REMARK    2  A    between atoms: O_2  and  C_3
REMARK    3  A    between atoms: C_7  and  C_9
REMARK    4  A    between atoms: N_10  and  N_11
REMARK    5  A    between atoms: C_15  and  S_18
REMARK    6  A    between atoms: N_16  and  N_17
REMARK    7  A    between atoms: S_18  and  C_19
REMARK    8  A    between atoms: C_19  and  C_20
REMARK    9  A    between atoms: N_22  and  C_23
REMARK                            x       y       z     vdW  Elec       q    Type
REMARK                         _______ _______ _______ _____ _____    ______ ____
ROOT
ATOM      1  N   UNL     1      -6.342  -4.256  -3.228  0.00  0.00    -0.204 N 
ATOM      2  C   UNL     1      -7.122  -5.229  -2.619  0.00  0.00    +0.254 A 
ATOM      3  N   UNL     1      -7.589  -5.187  -1.394  0.00  0.00    -0.109 NA
ATOM      4  N   UNL     1      -8.325  -6.358  -1.171  0.00  0.00    -0.119 NA
ATOM      5  C   UNL     1      -8.283  -7.078  -2.267  0.00  0.00    +0.210 A 
ATOM      6  N   UNL     1      -7.543  -6.397  -3.192  0.00  0.00    -0.211 N 
ATOM      7  H   UNL     1      -6.046  -4.375  -4.144  0.00  0.00    +0.177 HD
ENDROOT
BRANCH   6   8
ATOM      8  N   UNL     1      -7.270  -6.810  -4.465  0.00  0.00    -0.294 N 
ATOM      9  H   UNL     1      -6.419  -7.352  -4.494  0.00  0.00    +0.163 HD
ATOM     10  H   UNL     1      -8.044  -7.332  -4.849  0.00  0.00    +0.163 HD
ENDBRANCH   6   8
BRANCH   1  12
ATOM     11  C   UNL     1      -5.252  -2.192  -3.090  0.00  0.00    +0.138 C 
ATOM     12  N   UNL     1      -5.982  -3.102  -2.520  0.00  0.00    -0.188 NA
BRANCH  11  17
ATOM     13  C   UNL     1      -3.736   1.140  -2.248  0.00  0.00    +0.121 A 
ATOM     14  C   UNL     1      -4.163   1.304  -0.937  0.00  0.00    +0.045 A 
ATOM     15  C   UNL     1      -4.941   0.335  -0.331  0.00  0.00    +0.004 A 
ATOM     16  C   UNL     1      -5.298  -0.803  -1.025  0.00  0.00    +0.010 A 
ATOM     17  C   UNL     1      -4.873  -0.978  -2.345  0.00  0.00    -0.002 A 
ATOM     18  C   UNL     1      -4.092   0.005  -2.957  0.00  0.00    +0.055 A 
BRANCH  13  20
ATOM     19  C   UNL     1      -2.642   3.241  -2.049  0.00  0.00    +0.277 C 
ATOM     20  O   UNL     1      -2.972   2.097  -2.838  0.00  0.00    -0.495 OA
ENDBRANCH  13  20
ENDBRANCH  11  17
ENDBRANCH   1  12
BRANCH   5  21
ATOM     21  S   UNL     1      -9.051  -8.645  -2.507  0.00  0.00    -0.075 S 
BRANCH  21  22
ATOM     22  C   UNL     1      -9.870  -8.979  -0.923  0.00  0.00    +0.173 C 
BRANCH  22  23
ATOM     23  C   UNL     1     -10.576 -10.309  -0.993  0.00  0.00    +0.228 C 
ATOM     24  O   UNL     1     -10.530 -10.967  -2.011  0.00  0.00    -0.275 OA
ATOM     25  N   UNL     1     -11.257 -10.768   0.076  0.00  0.00    -0.280 N 
ATOM     26  H   UNL     1     -11.233 -10.278   0.913  0.00  0.00    +0.155 HD
BRANCH  25  27
ATOM     27  C   UNL     1     -12.000 -11.952  -0.022  0.00  0.00    +0.105 A 
ATOM     28  C   UNL     1     -13.327 -11.910  -0.435  0.00  0.00    +0.147 A 
ATOM     29  C   UNL     1     -14.057 -13.081  -0.530  0.00  0.00    +0.040 A 
ATOM     30  C   UNL     1     -13.469 -14.292  -0.216  0.00  0.00    +0.006 A 
ATOM     31  C   UNL     1     -12.149 -14.338   0.194  0.00  0.00    +0.040 A 
ATOM     32  C   UNL     1     -11.411 -13.172   0.287  0.00  0.00    +0.147 A 
ATOM     33  F   UNL     1     -10.120 -13.219   0.683  0.00  0.00    -0.203 F 
ATOM     34  F   UNL     1     -13.902 -10.727  -0.741  0.00  0.00    -0.203 F 
ENDBRANCH  25  27
ENDBRANCH  22  23
ENDBRANCH  21  22
ENDBRANCH   5  21
TORSDOF 8
