REMARK  Name = ZINC20618150
REMARK  5 active torsions:
REMARK  status: ('A' for Active; 'I' for Inactive)
REMARK    1  A    between atoms: C_3  and  C_31
REMARK    2  A    between atoms: C_5  and  N_7
REMARK    3  A    between atoms: C_8  and  C_10
REMARK    4  A    between atoms: C_10  and  N_11
REMARK    5  A    between atoms: N_11  and  C_12
REMARK                            x       y       z     vdW  Elec       q    Type
REMARK                         _______ _______ _______ _____ _____    ______ ____
ROOT
ATOM      1  N   UNL     1      -0.631   4.244   8.043  0.00  0.00    -0.273 N 
ATOM      2  C   UNL     1      -0.870   5.600   8.086  0.00  0.00    +0.136 C 
ATOM      3  N   UNL     1      -1.694   6.222   8.869  0.00  0.00    -0.362 N 
ATOM      4  C   UNL     1      -1.879   7.659   8.807  0.00  0.00    +0.117 C 
ATOM      5  C   UNL     1      -3.376   7.965   8.565  0.00  0.00    +0.191 C 
ATOM      6  S   UNL     1      -3.295   9.487   7.532  0.00  0.00    -0.028 S 
ATOM      7  O   UNL     1      -3.098  10.630   8.354  0.00  0.00    -0.174 OA
ATOM      8  O   UNL     1      -4.366   9.466   6.598  0.00  0.00    -0.174 OA
ATOM      9  C   UNL     1      -1.718   9.080   6.663  0.00  0.00    +0.182 C 
ATOM     10  C   UNL     1      -0.960   8.325   7.771  0.00  0.00    +0.099 C 
ATOM     11  S   UNL     1      -0.105   6.858   7.083  0.00  0.00    -0.085 S 
ATOM     12  H   UNL     1      -2.281   5.658   9.610  0.00  0.00    +0.162 HD
ENDROOT
BRANCH   1  13
ATOM     13  C   UNL     1      -1.235   3.397   8.977  0.00  0.00    +0.037 A 
ATOM     14  C   UNL     1      -0.457   2.707   9.897  0.00  0.00    +0.023 A 
ATOM     15  C   UNL     1      -1.056   1.871  10.818  0.00  0.00    +0.003 A 
ATOM     16  C   UNL     1      -2.431   1.720  10.826  0.00  0.00    +0.020 A 
ATOM     17  C   UNL     1      -3.210   2.406   9.911  0.00  0.00    +0.043 A 
ATOM     18  C   UNL     1      -2.616   3.248   8.989  0.00  0.00    +0.043 A 
ATOM     19 CL   UNL     1      -4.935   2.214   9.924  0.00  0.00    -0.083 Cl
ENDBRANCH   1  13
BRANCH   1  20
ATOM     20  C   UNL     1       0.258   3.690   7.018  0.00  0.00    +0.208 C 
BRANCH  20  22
ATOM     21  N   UNL     1       0.064   2.802   4.718  0.00  0.00    -0.284 N 
ATOM     22  C   UNL     1      -0.547   3.332   5.796  0.00  0.00    +0.235 C 
ATOM     23  O   UNL     1      -1.745   3.521   5.782  0.00  0.00    -0.274 OA
ATOM     24  H   UNL     1       1.137   2.560   4.757  0.00  0.00    +0.155 HD
BRANCH  21  29
ATOM     25  C   UNL     1      -2.708   1.911   2.473  0.00  0.00    +0.002 A 
ATOM     26  C   UNL     1      -2.110   2.083   1.238  0.00  0.00    +0.012 A 
ATOM     27  C   UNL     1      -0.790   2.483   1.155  0.00  0.00    +0.057 A 
ATOM     28  C   UNL     1      -0.066   2.724   2.308  0.00  0.00    +0.035 A 
ATOM     29  C   UNL     1      -0.666   2.558   3.549  0.00  0.00    +0.034 A 
ATOM     30  C   UNL     1      -1.991   2.150   3.628  0.00  0.00    +0.023 A 
BRANCH  27  31
ATOM     31  C   UNL     1      -0.140   2.663  -0.192  0.00  0.00    +0.417 C 
ATOM     32  F   UNL     1       0.450   1.459  -0.590  0.00  0.00    -0.166 F 
ATOM     33  F   UNL     1       0.840   3.658  -0.108  0.00  0.00    -0.166 F 
ATOM     34  F   UNL     1      -1.108   3.041  -1.130  0.00  0.00    -0.166 F 
ENDBRANCH  27  31
ENDBRANCH  21  29
ENDBRANCH  20  22
ENDBRANCH   1  20
TORSDOF 5
