REMARK  Name = ZINC59200070
REMARK  11 active torsions:
REMARK  status: ('A' for Active; 'I' for Inactive)
REMARK    1  A    between atoms: C_1  and  C_2
REMARK    2  A    between atoms: C_6  and  N_9
REMARK    3  A    between atoms: N_9  and  C_10
REMARK    4  A    between atoms: C_10  and  N_12
REMARK    5  A    between atoms: N_12  and  C_13
REMARK    6  A    between atoms: N_12  and  C_21
REMARK    7  A    between atoms: C_13  and  C_14
REMARK    8  A    between atoms: C_23  and  C_29
REMARK    9  A    between atoms: C_23  and  C_30
REMARK   10  A    between atoms: C_25  and  C_27
REMARK   11  A    between atoms: C_25  and  C_28
REMARK                            x       y       z     vdW  Elec       q    Type
REMARK                         _______ _______ _______ _____ _____    ______ ____
ROOT
ATOM      1  N   UNL     1      -0.029  -4.812   3.596  0.00  0.00    -0.305 N 
ENDROOT
BRANCH   1   2
ATOM      2  C   UNL     1      -0.118  -4.075   4.863  0.00  0.00    +0.073 C 
ATOM      3  C   UNL     1       1.145  -3.232   5.043  0.00  0.00    +0.009 C 
ATOM      4  C   UNL     1       1.063  -2.449   6.353  0.00  0.00    -0.072 C 
ATOM      5  N   UNL     1      -0.155  -1.657   6.442  0.00  0.00    +0.386 N 
ATOM      6  C   UNL     1      -1.409  -2.304   6.091  0.00  0.00    -0.072 C 
ATOM      7  C   UNL     1      -1.321  -3.134   4.816  0.00  0.00    +0.009 C 
ATOM      8  C   UNL     1      -1.942  -3.165   7.239  0.00  0.00    -0.010 C 
ATOM      9  C   UNL     1      -2.452  -1.189   5.842  0.00  0.00    -0.010 C 
ATOM     10  C   UNL     1       2.260  -1.470   6.378  0.00  0.00    -0.010 C 
ATOM     11  C   UNL     1       1.224  -3.393   7.544  0.00  0.00    -0.010 C 
ATOM     12  H   UNL     1      -0.234  -1.296   7.396  0.00  0.00    -0.084 HD
ATOM     13  H   UNL     1      -0.043  -0.829   5.851  0.00  0.00    -0.084 HD
ENDBRANCH   1   2
BRANCH   1  14
ATOM     14  C   UNL     1      -0.009  -4.142   2.427  0.00  0.00    +0.138 C 
ATOM     15  S   UNL     1      -0.011  -5.002   0.947  0.00  0.00    -0.018 S 
BRANCH  14  16
ATOM     16  N   UNL     1       0.014  -2.794   2.423  0.00  0.00    -0.296 N 
ATOM     17  H   UNL     1       0.094  -2.308   3.259  0.00  0.00    +0.154 HD
BRANCH  16  23
ATOM     18  C   UNL     1      -2.133   0.695  -0.299  0.00  0.00    +0.045 C 
ATOM     19  C   UNL     1      -1.111  -0.400  -0.133  0.00  0.00    -0.030 A 
ATOM     20  C   UNL     1      -0.262  -0.716  -1.179  0.00  0.00    +0.005 A 
ATOM     21  C   UNL     1       0.677  -1.720  -1.031  0.00  0.00    +0.002 A 
ATOM     22  C   UNL     1       0.771  -2.411   0.162  0.00  0.00    +0.025 A 
ATOM     23  C   UNL     1      -0.079  -2.096   1.214  0.00  0.00    +0.051 A 
ATOM     24  C   UNL     1      -1.018  -1.083   1.064  0.00  0.00    +0.065 A 
ATOM     25 CL   UNL     1      -2.079  -0.680   2.378  0.00  0.00    -0.081 Cl
ENDBRANCH  16  23
ENDBRANCH  14  16
ENDBRANCH   1  14
BRANCH   1  26
ATOM     26  C   UNL     1       0.037  -6.276   3.602  0.00  0.00    +0.145 C 
BRANCH  26  27
ATOM     27  C   UNL     1       1.477  -6.713   3.666  0.00  0.00    +0.005 A 
ATOM     28  C   UNL     1       2.131  -7.110   2.515  0.00  0.00    +0.008 A 
ATOM     29  C   UNL     1       3.453  -7.511   2.573  0.00  0.00    +0.000 A 
ATOM     30  C   UNL     1       4.122  -7.516   3.783  0.00  0.00    +0.003 A 
ATOM     31  C   UNL     1       3.471  -7.119   4.935  0.00  0.00    +0.038 A 
ATOM     32  C   UNL     1       2.148  -6.712   4.877  0.00  0.00    +0.128 A 
ATOM     33  F   UNL     1       1.512  -6.319   6.002  0.00  0.00    -0.205 F 
ENDBRANCH  26  27
ENDBRANCH   1  26
TORSDOF 6
