REMARK  Name = ZINC37928874
REMARK  11 active torsions:
REMARK  status: ('A' for Active; 'I' for Inactive)
REMARK    1  A    between atoms: C_1  and  C_2
REMARK    2  A    between atoms: C_2  and  N_3
REMARK    3  A    between atoms: N_3  and  C_4
REMARK    4  A    between atoms: N_3  and  C_6
REMARK    5  A    between atoms: C_4  and  C_5
REMARK    6  A    between atoms: C_6  and  C_7
REMARK    7  A    between atoms: C_7  and  C_8
REMARK    8  A    between atoms: C_8  and  N_9
REMARK    9  A    between atoms: N_9  and  S_10
REMARK   10  A    between atoms: S_10  and  C_13
REMARK   11  A    between atoms: C_18  and  N_19
REMARK                            x       y       z     vdW  Elec       q    Type
REMARK                         _______ _______ _______ _____ _____    ______ ____
ROOT
ATOM      1  S   UNL     1       3.046  -5.639   3.925  0.00  0.00    +0.060 S 
ATOM      2  O   UNL     1       3.587  -6.027   5.181  0.00  0.00    -0.153 OA
ATOM      3  O   UNL     1       1.837  -6.186   3.415  0.00  0.00    -0.153 OA
ENDROOT
BRANCH   1   4
ATOM      4  C   UNL     1       4.291  -5.959   2.720  0.00  0.00    +0.127 A 
ATOM      5  C   UNL     1       3.982  -6.677   1.581  0.00  0.00    +0.045 A 
ATOM      6  C   UNL     1       4.959  -6.928   0.634  0.00  0.00    +0.020 A 
ATOM      7  C   UNL     1       6.248  -6.462   0.825  0.00  0.00    +0.017 A 
ATOM      8  C   UNL     1       6.563  -5.744   1.962  0.00  0.00    +0.026 A 
ATOM      9  C   UNL     1       5.582  -5.485   2.912  0.00  0.00    +0.051 A 
ATOM     10 BR   UNL     1       4.533  -7.912  -0.923  0.00  0.00    -0.050 Br
BRANCH   9  11
ATOM     11  N   UNL     1       5.896  -4.754   4.060  0.00  0.00    -0.356 N 
ATOM     12  H   UNL     1       5.229  -4.629   4.753  0.00  0.00    +0.142 HD
ATOM     13  H   UNL     1       6.781  -4.370   4.164  0.00  0.00    +0.142 HD
ENDBRANCH   9  11
ENDBRANCH   1   4
BRANCH   1  14
ATOM     14  N   UNL     1       2.834  -3.998   3.987  0.00  0.00    -0.190 NA
ATOM     15  H   UNL     1       3.045  -3.512   4.800  0.00  0.00    +0.148 HD
BRANCH  14  16
ATOM     16  C   UNL     1       2.330  -3.280   2.814  0.00  0.00    +0.104 C 
BRANCH  16  17
ATOM     17  C   UNL     1       1.832  -1.897   3.238  0.00  0.00    -0.002 C 
BRANCH  17  18
ATOM     18  C   UNL     1       1.305  -1.147   2.013  0.00  0.00    -0.078 C 
BRANCH  18  19
ATOM     19  N   UNL     1       0.733   0.139   2.434  0.00  0.00    +0.379 N 
ATOM     20  H   UNL     1       0.040  -0.020   3.150  0.00  0.00    -0.082 HD
BRANCH  19  22
ATOM     21  C   UNL     1       1.187   2.287   3.520  0.00  0.00    -0.017 C 
ATOM     22  C   UNL     1       1.799   0.998   2.967  0.00  0.00    -0.082 C 
ENDBRANCH  19  22
BRANCH  19  23
ATOM     23  C   UNL     1       0.105   0.797   1.281  0.00  0.00    -0.082 C 
ATOM     24  C   UNL     1      -1.100  -0.026   0.819  0.00  0.00    -0.017 C 
ENDBRANCH  19  23
ENDBRANCH  18  19
ENDBRANCH  17  18
ENDBRANCH  16  17
ENDBRANCH  14  16
ENDBRANCH   1  14
TORSDOF 9
