REMARK  Name = ZINC08749468
REMARK  14 active torsions:
REMARK  status: ('A' for Active; 'I' for Inactive)
REMARK    1  A    between atoms: C_1  and  C_2
REMARK    2  A    between atoms: C_3  and  C_12
REMARK    3  A    between atoms: C_14  and  C_19
REMARK    4  A    between atoms: C_16  and  C_17
REMARK    5  A    between atoms: C_16  and  C_18
REMARK    6  A    between atoms: C_19  and  C_20
REMARK    7  A    between atoms: N_22  and  C_23
REMARK    8  A    between atoms: N_22  and  C_29
REMARK    9  A    between atoms: C_23  and  C_24
REMARK   10  A    between atoms: C_29  and  C_35
REMARK   11  A    between atoms: C_34  and  N_85
REMARK   12  A    between atoms: N_37  and  C_38
REMARK   13  A    between atoms: C_41  and  O_44
REMARK   14  A    between atoms: O_44  and  C_45
REMARK                            x       y       z     vdW  Elec       q    Type
REMARK                         _______ _______ _______ _____ _____    ______ ____
ROOT
ATOM      1  C   UNL     1      -5.894   2.748  -1.171  0.00  0.00    +0.217 C 
ATOM      2  O   UNL     1      -5.343   3.520  -1.927  0.00  0.00    -0.276 OA
ATOM      3  N   UNL     1      -7.078   2.202  -1.511  0.00  0.00    -0.280 N 
ENDROOT
BRANCH   3   4
ATOM      4  C   UNL     1      -7.626   2.417  -2.852  0.00  0.00    +0.111 C 
ATOM      5  C   UNL     1      -8.768   1.429  -3.104  0.00  0.00    +0.017 C 
ATOM      6  C   UNL     1      -8.219   0.000  -3.050  0.00  0.00    -0.077 C 
ATOM      7  C   UNL     1      -6.045   0.744  -3.818  0.00  0.00    -0.077 C 
ATOM      8  C   UNL     1      -6.528   2.194  -3.896  0.00  0.00    +0.017 C 
ATOM      9  C   UNL     1      -6.720  -1.559  -4.138  0.00  0.00    -0.096 C 
ATOM     10  N   UNL     1      -7.184  -0.157  -4.094  0.00  0.00    +0.378 N 
ATOM     11  H   UNL     1      -7.590   0.089  -5.005  0.00  0.00    -0.082 HD
BRANCH   4  12
ATOM     12  C   UNL     1      -8.147   3.827  -2.963  0.00  0.00    +0.241 C 
ATOM     13  O   UNL     1      -8.100   4.409  -4.026  0.00  0.00    -0.273 OA
ATOM     14  N   UNL     1      -8.665   4.441  -1.881  0.00  0.00    -0.284 N 
ATOM     15  H   UNL     1      -8.620   4.012  -1.012  0.00  0.00    +0.155 HD
BRANCH  14  16
ATOM     16  C   UNL     1      -9.269   5.699  -2.011  0.00  0.00    +0.034 A 
ATOM     17  C   UNL     1      -9.744   6.117  -3.247  0.00  0.00    +0.027 A 
ATOM     18  C   UNL     1     -10.344   7.354  -3.373  0.00  0.00    +0.047 A 
ATOM     19  C   UNL     1     -10.463   8.184  -2.268  0.00  0.00    +0.120 A 
ATOM     20  C   UNL     1      -9.983   7.769  -1.034  0.00  0.00    +0.047 A 
ATOM     21  C   UNL     1      -9.388   6.530  -0.905  0.00  0.00    +0.027 A 
BRANCH  19  22
ATOM     22  O   UNL     1     -11.048   9.404  -2.394  0.00  0.00    -0.495 OA
ATOM     23  C   UNL     1     -11.519   9.767  -3.693  0.00  0.00    +0.277 C 
ENDBRANCH  19  22
ENDBRANCH  14  16
ENDBRANCH   4  12
ENDBRANCH   3   4
BRANCH   1  24
ATOM     24  C   UNL     1      -5.254   2.398   0.148  0.00  0.00    +0.100 C 
BRANCH  24  26
ATOM     25  C   UNL     1      -2.710   2.620   0.717  0.00  0.00    +0.031 C 
ATOM     26  C   UNL     1      -4.039   3.299   0.380  0.00  0.00    +0.012 C 
ATOM     27  C   UNL     1      -3.478   3.378   1.802  0.00  0.00    -0.024 C 
ATOM     28  C   UNL     1      -4.174   2.549   2.883  0.00  0.00    +0.012 C 
ATOM     29  C   UNL     1      -2.909   4.721   2.263  0.00  0.00    +0.012 C 
BRANCH  25  32
ATOM     30  C   UNL     1      -3.349   0.664  -1.607  0.00  0.00    +0.063 C 
ATOM     31  C   UNL     1      -2.966   0.262  -0.206  0.00  0.00    +0.017 A 
ATOM     32  C   UNL     1      -2.697   1.116   0.795  0.00  0.00    -0.016 A 
ATOM     33  C   UNL     1      -2.372   0.307   1.972  0.00  0.00    +0.003 A 
ATOM     34  C   UNL     1      -2.001   0.608   3.284  0.00  0.00    +0.010 A 
ATOM     35  C   UNL     1      -1.759  -0.403   4.170  0.00  0.00    +0.001 A 
ATOM     36  C   UNL     1      -1.878  -1.729   3.776  0.00  0.00    +0.002 A 
ATOM     37  C   UNL     1      -2.242  -2.049   2.486  0.00  0.00    +0.026 A 
ATOM     38  C   UNL     1      -2.489  -1.035   1.566  0.00  0.00    +0.047 A 
ATOM     39  N   UNL     1      -2.854  -1.028   0.239  0.00  0.00    -0.358 N 
ATOM     40  H   UNL     1      -3.009  -1.819  -0.301  0.00  0.00    +0.166 HD
ENDBRANCH  25  32
ENDBRANCH  24  26
ENDBRANCH   1  24
BRANCH   3  41
ATOM     41  C   UNL     1      -7.818   1.393  -0.539  0.00  0.00    +0.183 C 
BRANCH  41  42
ATOM     42  C   UNL     1      -8.718   2.285   0.276  0.00  0.00    +0.122 A 
ATOM     43  C   UNL     1      -9.950   2.695  -0.077  0.00  0.00    +0.046 A 
ATOM     44  C   UNL     1     -10.429   3.508   0.975  0.00  0.00    +0.041 A 
ATOM     45  C   UNL     1      -9.458   3.555   1.905  0.00  0.00    +0.195 A 
ATOM     46  O   UNL     1      -8.424   2.812   1.476  0.00  0.00    -0.466 OA
ENDBRANCH  41  42
ENDBRANCH   3  41
TORSDOF 9
