REMARK  Name = ZINC63386259
REMARK  10 active torsions:
REMARK  status: ('A' for Active; 'I' for Inactive)
REMARK    1  A    between atoms: C_1  and  C_2
REMARK    2  A    between atoms: C_2  and  C_3
REMARK    3  A    between atoms: C_16  and  C_19
REMARK    4  A    between atoms: N_25  and  C_28
REMARK    5  A    between atoms: C_28  and  C_29
REMARK    6  A    between atoms: C_29  and  C_30
REMARK    7  A    between atoms: C_33  and  O_38
REMARK    8  A    between atoms: C_34  and  O_36
REMARK    9  A    between atoms: O_36  and  C_37
REMARK   10  A    between atoms: O_38  and  C_39
REMARK                            x       y       z     vdW  Elec       q    Type
REMARK                         _______ _______ _______ _____ _____    ______ ____
ROOT
ATOM      1  C   UNL     1      -1.808  -0.303   3.739  0.00  0.00    +0.070 A 
ATOM      2  H   UNL     1      -1.009   1.239   6.472  0.00  0.00    +0.173 HD
ATOM      3  C   UNL     1      -1.022   0.351   4.640  0.00  0.00    +0.259 A 
ATOM      4  N   UNL     1      -1.564   0.773   5.827  0.00  0.00    -0.275 N 
ATOM      5  C   UNL     1      -2.861   0.544   6.104  0.00  0.00    +0.332 A 
ATOM      6  O   UNL     1      -3.324   0.925   7.162  0.00  0.00    -0.246 OA
ATOM      7  N   UNL     1      -3.653  -0.099   5.227  0.00  0.00    -0.260 N 
ATOM      8  C   UNL     1      -3.162  -0.525   4.047  0.00  0.00    +0.262 A 
ATOM      9  O   UNL     1      -3.885  -1.103   3.254  0.00  0.00    -0.267 OA
ATOM     10  O   UNL     1       0.280   0.582   4.367  0.00  0.00    -0.267 OA
ENDROOT
BRANCH   1  22
ATOM     11  C   UNL     1      -1.433  -0.534   0.013  0.00  0.00    -0.067 C 
ATOM     12  C   UNL     1      -1.419  -2.050  -0.257  0.00  0.00    +0.018 C 
ATOM     13  C   UNL     1      -0.808  -2.686   0.967  0.00  0.00    -0.041 C 
ATOM     14  C   UNL     1       0.156  -3.581   1.125  0.00  0.00    -0.001 A 
ATOM     15  C   UNL     1       0.902  -4.402   0.158  0.00  0.00    +0.010 A 
ATOM     16  C   UNL     1       1.863  -5.212   0.675  0.00  0.00    +0.001 A 
ATOM     17  C   UNL     1       2.153  -5.288   2.040  0.00  0.00    +0.002 A 
ATOM     18  C   UNL     1       1.510  -4.578   3.001  0.00  0.00    +0.026 A 
ATOM     19  C   UNL     1       0.471  -3.698   2.582  0.00  0.00    +0.043 A 
ATOM     20  N   UNL     1      -0.318  -2.934   3.281  0.00  0.00    -0.379 N 
ATOM     21  C   UNL     1      -1.271  -2.305   2.371  0.00  0.00    +0.097 C 
ATOM     22  C   UNL     1      -1.235  -0.776   2.427  0.00  0.00    -0.003 C 
ATOM     23  N   UNL     1      -2.042  -0.257   1.316  0.00  0.00    +0.387 N 
ATOM     24  H   UNL     1      -2.141   0.741   1.427  0.00  0.00    -0.085 HD
ATOM     25  H   UNL     1      -0.279  -2.805   4.242  0.00  0.00    +0.160 HD
ATOM     26  H   UNL     1      -2.957  -0.682   1.347  0.00  0.00    -0.085 HD
BRANCH  11  28
ATOM     27  C   UNL     1      -0.014   1.516   0.178  0.00  0.00    +0.002 C 
ATOM     28  C   UNL     1       0.002  -0.004   0.002  0.00  0.00    -0.019 C 
ENDBRANCH  11  28
ENDBRANCH   1  22
BRANCH   7  29
ATOM     29  C   UNL     1      -5.061  -0.334   5.556  0.00  0.00    +0.134 C 
BRANCH  29  30
ATOM     30  C   UNL     1      -5.903   0.845   5.063  0.00  0.00    +0.057 C 
BRANCH  30  31
ATOM     31  C   UNL     1      -7.352   0.604   5.401  0.00  0.00    -0.042 A 
ATOM     32  C   UNL     1      -8.168  -0.062   4.505  0.00  0.00    +0.007 A 
ATOM     33  C   UNL     1      -9.497  -0.286   4.810  0.00  0.00    +0.049 A 
ATOM     34  C   UNL     1     -10.015   0.157   6.017  0.00  0.00    +0.161 A 
ATOM     35  C   UNL     1      -9.194   0.827   6.919  0.00  0.00    +0.162 A 
ATOM     36  C   UNL     1      -7.861   1.044   6.609  0.00  0.00    +0.053 A 
BRANCH  35  37
ATOM     37  O   UNL     1      -9.697   1.263   8.104  0.00  0.00    -0.491 OA
ATOM     38  C   UNL     1      -8.796   1.943   8.981  0.00  0.00    +0.277 C 
ENDBRANCH  35  37
BRANCH  34  39
ATOM     39  O   UNL     1     -11.323  -0.062   6.319  0.00  0.00    -0.491 OA
ATOM     40  C   UNL     1     -12.106  -0.756   5.345  0.00  0.00    +0.277 C 
ENDBRANCH  34  39
ENDBRANCH  30  31
ENDBRANCH  29  30
ENDBRANCH   7  29
TORSDOF 7
